MODEL 1
REMARK VINA RESULT:      -7.5      0.000      0.000
REMARK  4 active torsions:
REMARK  status: ('A' for Active; 'I' for Inactive)
REMARK    1  A    between atoms: C_6  and  C_1 
REMARK    2  A    between atoms: O_15  and  C_6 
REMARK    3  A    between atoms: C_7  and  C_8 
REMARK    4  A    between atoms: C_16  and  O_15 
ROOT
ATOM      1  C   UNL d   1     -46.340  11.965  23.408  0.00  0.00     0.145 A 
ATOM      2  N   UNL d   1     -45.922  12.660  23.302  0.00  0.00    -0.240 NA
ATOM      3  C   UNL d   1     -47.142  12.121  23.299  0.00  0.00     0.026 A 
ATOM      4  C   UNL d   1     -47.222  12.922  23.123  0.00  0.00     0.019 A 
ATOM      5  C   UNL d   1     -46.462  13.263  23.124  0.00  0.00     0.082 A 
ATOM      6  C   UNL d   1     -47.788  14.201  22.800  0.00  0.00     0.065 A 
ATOM      7  C   UNL d   1     -47.887  13.393  22.961  0.00  0.00     0.008 A 
ATOM      8  C   UNL d   1     -46.367  14.063  22.965  0.00  0.00     0.019 A 
ATOM      9  C   UNL d   1     -47.033  14.538  22.802  0.00  0.00     0.008 A 
ENDROOT
BRANCH   1  10
ATOM     10  C   UNL d   1     -46.020  11.227  23.594  0.00  0.00     0.318 C 
ATOM     11  O   UNL d   1     -46.509  10.575  23.698  0.00  0.00    -0.257 OA
BRANCH  10  12
ATOM     12  O   UNL d   1     -45.198  11.143  23.676  0.00  0.00    -0.270 OA
BRANCH  12  13
ATOM     13  C   UNL d   1     -44.864  10.393  23.685  0.00  0.00     0.126 C 
ATOM     14  C   UNL d   1     -44.046  10.297  23.665  0.00  0.00     0.029 C 
ENDBRANCH  12  13
ENDBRANCH  10  12
ENDBRANCH   1  10
BRANCH   6  15
ATOM     15  C   UNL d   1     -48.445  14.668  22.640  0.00  0.00     0.211 C 
ATOM     16  O   UNL d   1     -48.723  14.735  21.866  0.00  0.00    -0.644 OA
ATOM     17  O   UNL d   1     -48.829  15.071  23.251  0.00  0.00    -0.644 OA
ENDBRANCH   6  15
TORSDOF 4
ENDMDL
MODEL 2
REMARK VINA RESULT:      -7.2      1.560      2.113
REMARK  4 active torsions:
REMARK  status: ('A' for Active; 'I' for Inactive)
REMARK    1  A    between atoms: C_6  and  C_1 
REMARK    2  A    between atoms: O_15  and  C_6 
REMARK    3  A    between atoms: C_7  and  C_8 
REMARK    4  A    between atoms: C_16  and  O_15 
ROOT
ATOM      1  C   UNL d   1     -46.845  13.371  22.862  0.00  0.00     0.145 A 
ATOM      2  N   UNL d   1     -47.536  12.934  22.823  0.00  0.00    -0.240 NA
ATOM      3  C   UNL d   1     -47.043  14.171  22.902  0.00  0.00     0.026 A 
ATOM      4  C   UNL d   1     -47.864  14.229  22.887  0.00  0.00     0.019 A 
ATOM      5  C   UNL d   1     -48.177  13.460  22.838  0.00  0.00     0.082 A 
ATOM      6  C   UNL d   1     -49.197  14.763  22.886  0.00  0.00     0.065 A 
ATOM      7  C   UNL d   1     -48.377  14.884  22.911  0.00  0.00     0.008 A 
ATOM      8  C   UNL d   1     -48.989  13.342  22.813  0.00  0.00     0.019 A 
ATOM      9  C   UNL d   1     -49.506  13.997  22.838  0.00  0.00     0.008 A 
ENDROOT
BRANCH   1  10
ATOM     10  C   UNL d   1     -46.077  13.071  22.863  0.00  0.00     0.318 C 
ATOM     11  O   UNL d   1     -45.808  12.615  23.492  0.00  0.00    -0.257 OA
BRANCH  10  12
ATOM     12  O   UNL d   1     -45.572  13.228  22.224  0.00  0.00    -0.270 OA
BRANCH  12  13
ATOM     13  C   UNL d   1     -44.837  12.862  22.185  0.00  0.00     0.126 C 
ATOM     14  C   UNL d   1     -44.325  13.015  21.558  0.00  0.00     0.029 C 
ENDBRANCH  12  13
ENDBRANCH  10  12
ENDBRANCH   1  10
BRANCH   6  15
ATOM     15  C   UNL d   1     -49.705  15.409  22.911  0.00  0.00     0.211 C 
ATOM     16  O   UNL d   1     -50.157  15.602  22.248  0.00  0.00    -0.644 OA
ATOM     17  O   UNL d   1     -49.765  15.865  23.597  0.00  0.00    -0.644 OA
ENDBRANCH   6  15
TORSDOF 4
ENDMDL
MODEL 3
REMARK VINA RESULT:      -7.1      2.210      2.835
REMARK  4 active torsions:
REMARK  status: ('A' for Active; 'I' for Inactive)
REMARK    1  A    between atoms: C_6  and  C_1 
REMARK    2  A    between atoms: O_15  and  C_6 
REMARK    3  A    between atoms: C_7  and  C_8 
REMARK    4  A    between atoms: C_16  and  O_15 
ROOT
ATOM      1  C   UNL d   1     -47.083  13.091  22.568  0.00  0.00     0.145 A 
ATOM      2  N   UNL d   1     -47.565  13.058  21.908  0.00  0.00    -0.240 NA
ATOM      3  C   UNL d   1     -47.504  12.802  23.216  0.00  0.00     0.026 A 
ATOM      4  C   UNL d   1     -48.255  12.588  22.953  0.00  0.00     0.019 A 
ATOM      5  C   UNL d   1     -48.298  12.746  22.137  0.00  0.00     0.082 A 
ATOM      6  C   UNL d   1     -49.608  12.108  22.923  0.00  0.00     0.065 A 
ATOM      7  C   UNL d   1     -48.913  12.268  23.348  0.00  0.00     0.008 A 
ATOM      8  C   UNL d   1     -48.987  12.587  21.719  0.00  0.00     0.019 A 
ATOM      9  C   UNL d   1     -49.648  12.266  22.112  0.00  0.00     0.008 A 
ENDROOT
BRANCH   1  10
ATOM     10  C   UNL d   1     -46.306  13.366  22.591  0.00  0.00     0.318 C 
ATOM     11  O   UNL d   1     -46.096  13.982  23.094  0.00  0.00    -0.257 OA
BRANCH  10  12
ATOM     12  O   UNL d   1     -45.731  13.018  22.104  0.00  0.00    -0.270 OA
BRANCH  12  13
ATOM     13  C   UNL d   1     -44.959  13.299  22.119  0.00  0.00     0.126 C 
ATOM     14  C   UNL d   1     -44.363  12.911  21.703  0.00  0.00     0.029 C 
ENDBRANCH  12  13
ENDBRANCH  10  12
ENDBRANCH   1  10
BRANCH   6  15
ATOM     15  C   UNL d   1     -50.260  11.791  23.313  0.00  0.00     0.211 C 
ATOM     16  O   UNL d   1     -50.196  11.064  23.696  0.00  0.00    -0.644 OA
ATOM     17  O   UNL d   1     -50.978  12.200  23.320  0.00  0.00    -0.644 OA
ENDBRANCH   6  15
TORSDOF 4
ENDMDL
MODEL 4
REMARK VINA RESULT:      -7.0      1.435      4.372
REMARK  4 active torsions:
REMARK  status: ('A' for Active; 'I' for Inactive)
REMARK    1  A    between atoms: C_6  and  C_1 
REMARK    2  A    between atoms: O_15  and  C_6 
REMARK    3  A    between atoms: C_7  and  C_8 
REMARK    4  A    between atoms: C_16  and  O_15 
ROOT
ATOM      1  C   UNL d   1     -49.037  13.388  22.947  0.00  0.00     0.145 A 
ATOM      2  N   UNL d   1     -49.161  12.644  23.266  0.00  0.00    -0.240 NA
ATOM      3  C   UNL d   1     -48.226  13.499  22.847  0.00  0.00     0.026 A 
ATOM      4  C   UNL d   1     -47.844  12.818  23.107  0.00  0.00     0.019 A 
ATOM      5  C   UNL d   1     -48.423  12.281  23.369  0.00  0.00     0.082 A 
ATOM      6  C   UNL d   1     -46.821  11.865  23.438  0.00  0.00     0.065 A 
ATOM      7  C   UNL d   1     -47.039  12.609  23.141  0.00  0.00     0.008 A 
ATOM      8  C   UNL d   1     -48.205  11.545  23.662  0.00  0.00     0.019 A 
ATOM      9  C   UNL d   1     -47.399  11.333  23.698  0.00  0.00     0.008 A 
ENDROOT
BRANCH   1  10
ATOM     10  C   UNL d   1     -49.620  13.939  22.755  0.00  0.00     0.318 C 
ATOM     11  O   UNL d   1     -49.975  13.929  22.013  0.00  0.00    -0.257 OA
BRANCH  10  12
ATOM     12  O   UNL d   1     -49.851  14.507  23.313  0.00  0.00    -0.270 OA
BRANCH  12  13
ATOM     13  C   UNL d   1     -50.371  15.104  23.097  0.00  0.00     0.126 C 
ATOM     14  C   UNL d   1     -50.587  15.689  23.636  0.00  0.00     0.029 C 
ENDBRANCH  12  13
ENDBRANCH  10  12
ENDBRANCH   1  10
BRANCH   6  15
ATOM     15  C   UNL d   1     -46.027  11.657  23.472  0.00  0.00     0.211 C 
ATOM     16  O   UNL d   1     -45.810  10.894  23.697  0.00  0.00    -0.644 OA
ATOM     17  O   UNL d   1     -45.444  12.211  23.283  0.00  0.00    -0.644 OA
ENDBRANCH   6  15
TORSDOF 4
ENDMDL
MODEL 5
REMARK VINA RESULT:      -6.8      1.492      4.139
REMARK  4 active torsions:
REMARK  status: ('A' for Active; 'I' for Inactive)
REMARK    1  A    between atoms: C_6  and  C_1 
REMARK    2  A    between atoms: O_15  and  C_6 
REMARK    3  A    between atoms: C_7  and  C_8 
REMARK    4  A    between atoms: C_16  and  O_15 
ROOT
ATOM      1  C   UNL d   1     -48.826  13.787  22.955  0.00  0.00     0.145 A 
ATOM      2  N   UNL d   1     -48.242  14.361  22.952  0.00  0.00    -0.240 NA
ATOM      3  C   UNL d   1     -48.465  13.046  22.959  0.00  0.00     0.026 A 
ATOM      4  C   UNL d   1     -47.649  13.162  22.959  0.00  0.00     0.019 A 
ATOM      5  C   UNL d   1     -47.505  13.981  22.955  0.00  0.00     0.082 A 
ATOM      6  C   UNL d   1     -46.234  12.920  22.961  0.00  0.00     0.065 A 
ATOM      7  C   UNL d   1     -47.011  12.629  22.962  0.00  0.00     0.008 A 
ATOM      8  C   UNL d   1     -46.735  14.267  22.954  0.00  0.00     0.019 A 
ATOM      9  C   UNL d   1     -46.093  13.735  22.957  0.00  0.00     0.008 A 
ENDROOT
BRANCH   1  10
ATOM     10  C   UNL d   1     -49.640  13.920  22.954  0.00  0.00     0.318 C 
ATOM     11  O   UNL d   1     -50.148  13.391  22.582  0.00  0.00    -0.257 OA
BRANCH  10  12
ATOM     12  O   UNL d   1     -49.949  14.592  23.329  0.00  0.00    -0.270 OA
BRANCH  12  13
ATOM     13  C   UNL d   1     -50.753  14.750  23.285  0.00  0.00     0.126 C 
ATOM     14  C   UNL d   1     -51.064  15.441  23.610  0.00  0.00     0.029 C 
ENDBRANCH  12  13
ENDBRANCH  10  12
ENDBRANCH   1  10
BRANCH   6  15
ATOM     15  C   UNL d   1     -45.601  12.395  22.964  0.00  0.00     0.211 C 
ATOM     16  O   UNL d   1     -45.014  12.454  22.388  0.00  0.00    -0.644 OA
ATOM     17  O   UNL d   1     -45.552  11.807  23.543  0.00  0.00    -0.644 OA
ENDBRANCH   6  15
TORSDOF 4
ENDMDL
MODEL 6
REMARK VINA RESULT:      -5.6      7.638      8.329
REMARK  4 active torsions:
REMARK  status: ('A' for Active; 'I' for Inactive)
REMARK    1  A    between atoms: C_6  and  C_1 
REMARK    2  A    between atoms: O_15  and  C_6 
REMARK    3  A    between atoms: C_7  and  C_8 
REMARK    4  A    between atoms: C_16  and  O_15 
ROOT
ATOM      1  C   UNL d   1     -40.331  15.393  20.260  0.00  0.00     0.145 A 
ATOM      2  N   UNL d   1     -40.187  14.665  19.915  0.00  0.00    -0.240 NA
ATOM      3  C   UNL d   1     -40.562  15.922  19.671  0.00  0.00     0.026 A 
ATOM      4  C   UNL d   1     -40.562  15.516  18.954  0.00  0.00     0.019 A 
ATOM      5  C   UNL d   1     -40.329  14.731  19.101  0.00  0.00     0.082 A 
ATOM      6  C   UNL d   1     -40.692  15.208  17.557  0.00  0.00     0.065 A 
ATOM      7  C   UNL d   1     -40.745  15.755  18.178  0.00  0.00     0.008 A 
ATOM      8  C   UNL d   1     -40.277  14.191  18.485  0.00  0.00     0.019 A 
ATOM      9  C   UNL d   1     -40.459  14.428  17.706  0.00  0.00     0.008 A 
ENDROOT
BRANCH   1  10
ATOM     10  C   UNL d   1     -40.258  15.576  21.061  0.00  0.00     0.318 C 
ATOM     11  O   UNL d   1     -40.925  15.737  21.514  0.00  0.00    -0.257 OA
BRANCH  10  12
ATOM     12  O   UNL d   1     -39.507  15.598  21.413  0.00  0.00    -0.270 OA
BRANCH  12  13
ATOM     13  C   UNL d   1     -39.436  15.775  22.212  0.00  0.00     0.126 C 
ATOM     14  C   UNL d   1     -38.696  15.920  22.545  0.00  0.00     0.029 C 
ENDBRANCH  12  13
ENDBRANCH  10  12
ENDBRANCH   1  10
BRANCH   6  15
ATOM     15  C   UNL d   1     -40.872  15.443  16.790  0.00  0.00     0.211 C 
ATOM     16  O   UNL d   1     -40.287  15.778  16.315  0.00  0.00    -0.644 OA
ATOM     17  O   UNL d   1     -41.636  15.345  16.494  0.00  0.00    -0.644 OA
ENDBRANCH   6  15
TORSDOF 4
ENDMDL
MODEL 7
REMARK VINA RESULT:      -5.3      7.685      8.666
REMARK  4 active torsions:
REMARK  status: ('A' for Active; 'I' for Inactive)
REMARK    1  A    between atoms: C_6  and  C_1 
REMARK    2  A    between atoms: O_15  and  C_6 
REMARK    3  A    between atoms: C_7  and  C_8 
REMARK    4  A    between atoms: C_16  and  O_15 
ROOT
ATOM      1  C   UNL d   1     -40.122  14.340  19.059  0.00  0.00     0.145 A 
ATOM      2  N   UNL d   1     -39.316  14.202  19.108  0.00  0.00    -0.240 NA
ATOM      3  C   UNL d   1     -40.426  14.393  19.824  0.00  0.00     0.026 A 
ATOM      4  C   UNL d   1     -39.802  14.288  20.352  0.00  0.00     0.019 A 
ATOM      5  C   UNL d   1     -39.107  14.168  19.910  0.00  0.00     0.082 A 
ATOM      6  C   UNL d   1     -39.044  14.161  21.565  0.00  0.00     0.065 A 
ATOM      7  C   UNL d   1     -39.770  14.285  21.183  0.00  0.00     0.008 A 
ATOM      8  C   UNL d   1     -38.390  14.046  20.290  0.00  0.00     0.019 A 
ATOM      9  C   UNL d   1     -38.355  14.042  21.123  0.00  0.00     0.008 A 
ENDROOT
BRANCH   1  10
ATOM     10  C   UNL d   1     -40.562  14.413  18.366  0.00  0.00     0.318 C 
ATOM     11  O   UNL d   1     -40.968  13.767  18.059  0.00  0.00    -0.257 OA
BRANCH  10  12
ATOM     12  O   UNL d   1     -40.596  15.144  17.974  0.00  0.00    -0.270 OA
BRANCH  12  13
ATOM     13  C   UNL d   1     -40.930  15.190  17.225  0.00  0.00     0.126 C 
ATOM     14  C   UNL d   1     -41.083  15.922  16.878  0.00  0.00     0.029 C 
ENDBRANCH  12  13
ENDBRANCH  10  12
ENDBRANCH   1  10
BRANCH   6  15
ATOM     15  C   UNL d   1     -39.011  14.158  22.386  0.00  0.00     0.211 C 
ATOM     16  O   UNL d   1     -38.955  14.870  22.799  0.00  0.00    -0.644 OA
ATOM     17  O   UNL d   1     -39.034  13.443  22.800  0.00  0.00    -0.644 OA
ENDBRANCH   6  15
TORSDOF 4
ENDMDL
MODEL 8
REMARK VINA RESULT:      -5.3      8.887      9.921
REMARK  4 active torsions:
REMARK  status: ('A' for Active; 'I' for Inactive)
REMARK    1  A    between atoms: C_6  and  C_1 
REMARK    2  A    between atoms: O_15  and  C_6 
REMARK    3  A    between atoms: C_7  and  C_8 
REMARK    4  A    between atoms: C_16  and  O_15 
ROOT
ATOM      1  C   UNL d   1     -40.030  14.105  18.271  0.00  0.00     0.145 A 
ATOM      2  N   UNL d   1     -39.448  13.529  18.302  0.00  0.00    -0.240 NA
ATOM      3  C   UNL d   1     -39.990  14.480  17.538  0.00  0.00     0.026 A 
ATOM      4  C   UNL d   1     -39.377  14.133  17.110  0.00  0.00     0.019 A 
ATOM      5  C   UNL d   1     -39.036  13.539  17.583  0.00  0.00     0.082 A 
ATOM      6  C   UNL d   1     -38.443  13.826  16.064  0.00  0.00     0.065 A 
ATOM      7  C   UNL d   1     -39.079  14.277  16.347  0.00  0.00     0.008 A 
ATOM      8  C   UNL d   1     -38.407  13.093  17.300  0.00  0.00     0.019 A 
ATOM      9  C   UNL d   1     -38.106  13.236  16.536  0.00  0.00     0.008 A 
ENDROOT
BRANCH   1  10
ATOM     10  C   UNL d   1     -40.569  14.285  18.869  0.00  0.00     0.318 C 
ATOM     11  O   UNL d   1     -41.327  13.967  18.857  0.00  0.00    -0.257 OA
BRANCH  10  12
ATOM     12  O   UNL d   1     -40.345  14.791  19.488  0.00  0.00    -0.270 OA
BRANCH  12  13
ATOM     13  C   UNL d   1     -40.873  14.949  20.097  0.00  0.00     0.126 C 
ATOM     14  C   UNL d   1     -40.686  15.497  20.683  0.00  0.00     0.029 C 
ENDBRANCH  12  13
ENDBRANCH  10  12
ENDBRANCH   1  10
BRANCH   6  15
ATOM     15  C   UNL d   1     -38.147  13.967  15.310  0.00  0.00     0.211 C 
ATOM     16  O   UNL d   1     -37.944  14.734  15.085  0.00  0.00    -0.644 OA
ATOM     17  O   UNL d   1     -38.053  13.343  14.777  0.00  0.00    -0.644 OA
ENDBRANCH   6  15
TORSDOF 4
ENDMDL
MODEL 9
REMARK VINA RESULT:      -5.3      7.983      8.700
REMARK  4 active torsions:
REMARK  status: ('A' for Active; 'I' for Inactive)
REMARK    1  A    between atoms: C_6  and  C_1 
REMARK    2  A    between atoms: O_15  and  C_6 
REMARK    3  A    between atoms: C_7  and  C_8 
REMARK    4  A    between atoms: C_16  and  O_15 
ROOT
ATOM      1  C   UNL d   1     -39.931  14.796  17.744  0.00  0.00     0.145 A 
ATOM      2  N   UNL d   1     -40.221  14.156  18.164  0.00  0.00    -0.240 NA
ATOM      3  C   UNL d   1     -39.991  15.469  18.216  0.00  0.00     0.026 A 
ATOM      4  C   UNL d   1     -40.320  15.243  18.937  0.00  0.00     0.019 A 
ATOM      5  C   UNL d   1     -40.466  14.424  18.909  0.00  0.00     0.082 A 
ATOM      6  C   UNL d   1     -40.844  15.283  20.273  0.00  0.00     0.065 A 
ATOM      7  C   UNL d   1     -40.510  15.674  19.622  0.00  0.00     0.008 A 
ATOM      8  C   UNL d   1     -40.796  14.039  19.554  0.00  0.00     0.019 A 
ATOM      9  C   UNL d   1     -40.988  14.469  20.243  0.00  0.00     0.008 A 
ENDROOT
BRANCH   1  10
ATOM     10  C   UNL d   1     -39.629  14.779  16.976  0.00  0.00     0.318 C 
ATOM     11  O   UNL d   1     -40.017  15.173  16.367  0.00  0.00    -0.257 OA
BRANCH  10  12
ATOM     12  O   UNL d   1     -38.930  14.362  16.817  0.00  0.00    -0.270 OA
BRANCH  12  13
ATOM     13  C   UNL d   1     -38.572  14.432  16.081  0.00  0.00     0.126 C 
ATOM     14  C   UNL d   1     -37.975  13.911  15.854  0.00  0.00     0.029 C 
ENDBRANCH  12  13
ENDBRANCH  10  12
ENDBRANCH   1  10
BRANCH   6  15
ATOM     15  C   UNL d   1     -41.032  15.708  20.951  0.00  0.00     0.211 C 
ATOM     16  O   UNL d   1     -41.815  15.922  21.099  0.00  0.00    -0.644 OA
ATOM     17  O   UNL d   1     -40.440  15.922  21.486  0.00  0.00    -0.644 OA
ENDBRANCH   6  15
TORSDOF 4
ENDMDL
