MODEL 1
REMARK VINA RESULT:      48.0      0.000      0.000
REMARK  3 active torsions:
REMARK  status: ('A' for Active; 'I' for Inactive)
REMARK    1  A    between atoms: C_2  and  C_1 
REMARK    2  A    between atoms: C_13  and  C_8 
REMARK    3  A    between atoms: O_23  and  C_20 
ROOT
ATOM      1  C   UNL d   1      46.427 -17.250  42.298  0.00  0.00     0.106 A 
ATOM      2  C   UNL d   1      46.428 -17.597  41.522  0.00  0.00     0.304 A 
ATOM      3  C   UNL d   1      46.437 -17.736  42.962  0.00  0.00     0.011 A 
ATOM      4  C   UNL d   1      46.447 -18.539  42.874  0.00  0.00     0.023 A 
ATOM      5  O   UNL d   1      46.439 -18.418  41.438  0.00  0.00    -0.273 OA
ATOM      6  C   UNL d   1      46.448 -18.886  42.098  0.00  0.00     0.103 A 
ATOM      7  C   UNL d   1      46.457 -19.024  43.539  0.00  0.00     0.002 A 
ATOM      8  O   UNL d   1      46.418 -17.093  40.845  0.00  0.00    -0.259 OA
ATOM      9  C   UNL d   1      46.458 -19.707  42.014  0.00  0.00     0.025 A 
ATOM     10  C   UNL d   1      46.467 -19.847  43.460  0.00  0.00     0.000 A 
ATOM     11  C   UNL d   1      46.468 -20.195  42.684  0.00  0.00     0.002 A 
ATOM     12  C   UNL d   1      46.456 -18.665  44.285  0.00  0.00     0.000 A 
ATOM     13  C   UNL d   1      46.477 -20.313  44.115  0.00  0.00     0.000 A 
ATOM     14  C   UNL d   1      46.466 -19.155  44.954  0.00  0.00     0.000 A 
ATOM     15  C   UNL d   1      46.476 -19.975  44.871  0.00  0.00     0.000 A 
ENDROOT
BRANCH   1  16
ATOM     16  C   UNL d   1      46.417 -16.427  42.376  0.00  0.00     0.210 A 
ATOM     17  O   UNL d   1      46.134 -16.078  43.061  0.00  0.00    -0.268 OA
ATOM     18  C   UNL d   1      46.191 -15.267  42.981  0.00  0.00     0.204 A 
ATOM     19  N   UNL d   1      46.508 -15.130  42.249  0.00  0.00    -0.121 NA
ATOM     20  N   UNL d   1      46.647 -15.840  41.877  0.00  0.00    -0.121 NA
BRANCH  18  21
ATOM     21  C   UNL d   1      45.998 -14.626  43.474  0.00  0.00     0.043 A 
ATOM     22  C   UNL d   1      45.635 -13.962  43.159  0.00  0.00     0.006 A 
ATOM     23  C   UNL d   1      45.441 -13.333  43.621  0.00  0.00     0.024 A 
ATOM     24  C   UNL d   1      45.620 -13.369  44.447  0.00  0.00     0.094 A 
ATOM     25  C   UNL d   1      45.984 -14.036  44.760  0.00  0.00     0.024 A 
ATOM     26  C   UNL d   1      46.171 -14.664  44.266  0.00  0.00     0.006 A 
BRANCH  24  27
ATOM     27  O   UNL d   1      45.437 -12.744  44.954  0.00  0.00    -0.328 OA
ATOM     28  C   UNL d   1      44.857 -12.206  44.757  0.00  0.00     0.181 C 
ENDBRANCH  24  27
ENDBRANCH  18  21
ENDBRANCH   1  16
TORSDOF 3
ENDMDL
