MODEL 1
REMARK VINA RESULT:      28.0      0.000      0.000
REMARK  5 active torsions:
REMARK  status: ('A' for Active; 'I' for Inactive)
REMARK       I    between atoms: N_2  and  C_5 
REMARK    1  A    between atoms: C_3  and  N_2 
REMARK    2  A    between atoms: C_14  and  C_4 
REMARK    3  A    between atoms: C_5  and  C_13 
REMARK    4  A    between atoms: C_17  and  C_6 
REMARK    5  A    between atoms: C_13  and  C_14 
ROOT
ATOM      1  N   UNL d   1     -54.773-100.623 -45.063  0.00  0.00    -0.208 NA
ATOM      2  C   UNL d   1     -55.075 -99.865 -45.094  0.00  0.00     0.279 C 
ATOM      3  O   UNL d   1     -55.081 -99.448 -45.811  0.00  0.00    -0.265 OA
ENDROOT
BRANCH   2   4
ATOM      4  C   UNL d   1     -55.375 -99.511 -44.412  0.00  0.00     0.065 C 
BRANCH   4   5
ATOM      5  C   UNL d   1     -55.795 -98.802 -44.462  0.00  0.00     0.030 C 
BRANCH   5   6
ATOM      6  C   UNL d   1     -56.606 -98.794 -44.339  0.00  0.00     0.100 A 
ATOM      7  O   UNL d   1     -57.194 -98.783 -44.927  0.00  0.00    -0.307 OA
ATOM      8  C   UNL d   1     -57.924 -98.778 -44.559  0.00  0.00     0.100 A 
ATOM      9  C   UNL d   1     -57.802 -98.784 -43.743  0.00  0.00     0.027 A 
ATOM     10  C   UNL d   1     -56.988 -98.794 -43.612  0.00  0.00     0.027 A 
BRANCH   8  11
ATOM     11  C   UNL d   1     -58.651 -98.767 -44.941  0.00  0.00     0.025 C 
ATOM     12  C   UNL d   1     -59.350 -98.760 -44.497  0.00  0.00     0.002 C 
ENDBRANCH   8  11
ENDBRANCH   5   6
ENDBRANCH   4   5
ENDBRANCH   2   4
BRANCH   1  13
ATOM     13  C   UNL d   1     -54.768-101.037 -44.347  0.00  0.00     0.085 A 
ATOM     14  C   UNL d   1     -54.812-101.858 -44.352  0.00  0.00     0.018 A 
ATOM     15  C   UNL d   1     -54.807-102.269 -43.640  0.00  0.00     0.002 A 
ATOM     16  C   UNL d   1     -54.863-102.264 -45.071  0.00  0.00     0.002 C 
ATOM     17  C   UNL d   1     -54.757-101.857 -42.928  0.00  0.00     0.000 A 
ATOM     18  C   UNL d   1     -54.712-101.036 -42.923  0.00  0.00     0.002 A 
ATOM     19  C   UNL d   1     -54.751-102.274 -42.209  0.00  0.00     0.000 C 
ATOM     20  C   UNL d   1     -54.718-100.625 -43.646  0.00  0.00     0.019 A 
ENDBRANCH   1  13
TORSDOF 5
ENDMDL
