MODEL 1
REMARK VINA RESULT:      -5.5      0.000      0.000
REMARK  4 active torsions:
REMARK  status: ('A' for Active; 'I' for Inactive)
REMARK    1  A    between atoms: C_6  and  C_2 
REMARK    2  A    between atoms: C_8  and  N_3 
REMARK       I    between atoms: N_7  and  C_6 
REMARK    3  A    between atoms: C_16  and  N_7 
REMARK    4  A    between atoms: C_9  and  C_16 
ROOT
ATOM      1  C   UNL d   1      57.085  -0.123  31.613  0.00  0.00     0.211 A 
ATOM      2  C   UNL d   1      57.300  -0.704  31.061  0.00  0.00     0.199 A 
ATOM      3  N   UNL d   1      56.662  -0.480  32.220  0.00  0.00    -0.191 N 
ATOM      4  N   UNL d   1      56.615  -1.285  32.041  0.00  0.00    -0.058 NA
ATOM      5  N   UNL d   1      57.010  -1.414  31.326  0.00  0.00    -0.122 NA
ATOM      6  N   UNL d   1      57.264   0.682  31.567  0.00  0.00    -0.125 N 
ENDROOT
BRANCH   2   7
ATOM      7  C   UNL d   1      57.729  -0.573  30.370  0.00  0.00     0.302 C 
ATOM      8  N   UNL d   1      58.261  -1.135  30.098  0.00  0.00    -0.203 NA
ATOM      9  O   UNL d   1      57.619   0.132  29.953  0.00  0.00    -0.263 OA
BRANCH   8  10
ATOM     10  C   UNL d   1      58.692  -0.999  29.401  0.00  0.00     0.127 C 
BRANCH  10  11
ATOM     11  C   UNL d   1      59.207  -1.568  29.115  0.00  0.00     0.119 A 
ATOM     12  O   UNL d   1      58.987  -2.301  28.776  0.00  0.00    -0.304 OA
ATOM     13  C   UNL d   1      59.675  -2.694  28.566  0.00  0.00     0.123 A 
ATOM     14  C   UNL d   1      60.328  -2.206  28.774  0.00  0.00     0.029 A 
ATOM     15  C   UNL d   1      60.029  -1.527  29.106  0.00  0.00     0.028 A 
ENDBRANCH  10  11
ENDBRANCH   8  10
ENDBRANCH   2   7
BRANCH   3  16
ATOM     16  C   UNL d   1      56.343  -0.110  32.884  0.00  0.00     0.086 A 
ATOM     17  C   UNL d   1      56.845   0.257  33.429  0.00  0.00     0.019 A 
ATOM     18  C   UNL d   1      56.525   0.627  34.093  0.00  0.00     0.002 A 
ATOM     19  C   UNL d   1      55.706   0.631  34.214  0.00  0.00     0.000 A 
ATOM     20  C   UNL d   1      55.211   0.262  33.665  0.00  0.00     0.002 A 
ATOM     21  C   UNL d   1      55.527  -0.110  32.998  0.00  0.00     0.019 A 
ENDBRANCH   3  16
TORSDOF 4
ENDMDL
