MODEL 1
REMARK VINA RESULT:      21.2      0.000      0.000
REMARK  1 active torsions:
REMARK  status: ('A' for Active; 'I' for Inactive)
REMARK       I    between atoms: C_2  and  N_1 
REMARK    1  A    between atoms: C_4  and  C_2 
ROOT
ATOM      1  N   UNL d   1     -57.492 -98.778 -44.480  0.00  0.00    -0.273 N 
ATOM      2  C   UNL d   1     -56.851 -98.781 -45.033  0.00  0.00     0.271 C 
ATOM      3  C   UNL d   1     -58.300 -98.774 -44.644  0.00  0.00     0.067 A 
ATOM      4  C   UNL d   1     -57.424 -98.779 -43.643  0.00  0.00     0.083 A 
ATOM      5  O   UNL d   1     -57.032 -98.780 -45.844  0.00  0.00    -0.266 OA
ATOM      6  C   UNL d   1     -58.721 -98.772 -43.937  0.00  0.00     0.018 A 
ATOM      7  C   UNL d   1     -58.168 -98.775 -43.319  0.00  0.00     0.021 A 
ATOM      8  C   UNL d   1     -58.689 -98.772 -45.371  0.00  0.00     0.018 A 
ATOM      9  C   UNL d   1     -59.537 -98.768 -43.948  0.00  0.00     0.002 A 
ATOM     10  C   UNL d   1     -59.509 -98.768 -45.383  0.00  0.00     0.002 A 
ATOM     11  C   UNL d   1     -59.954 -98.766 -44.657  0.00  0.00     0.000 A 
ENDROOT
BRANCH   2  12
ATOM     12  C   UNL d   1     -56.061 -98.785 -44.763  0.00  0.00     0.086 A 
ATOM     13  S   UNL d   1     -55.731 -98.813 -44.013  0.00  0.00    -0.082 SA
ATOM     14  C   UNL d   1     -54.908 -98.802 -44.106  0.00  0.00     0.036 A 
ATOM     15  C   UNL d   1     -54.717 -98.767 -44.899  0.00  0.00     0.008 A 
ATOM     16  C   UNL d   1     -55.431 -98.757 -45.317  0.00  0.00     0.012 A 
ENDBRANCH   2  12
TORSDOF 1
ENDMDL
