MODEL 1
REMARK VINA RESULT:      -4.0      0.000      0.000
REMARK  3 active torsions:
REMARK  status: ('A' for Active; 'I' for Inactive)
REMARK    1  A    between atoms: C_6  and  C_2 
REMARK       I    between atoms: N_8  and  C_6 
REMARK    2  A    between atoms: C_14  and  N_8 
REMARK    3  A    between atoms: C_15  and  C_14 
ROOT
ATOM      1  N   UNL d   1      59.957  -7.264  36.076  0.00  0.00    -0.252 N 
ATOM      2  C   UNL d   1      59.840  -8.676  35.929  0.00  0.00     0.133 A 
ATOM      3  C   UNL d   1      59.494  -7.929  35.937  0.00  0.00     0.272 A 
ATOM      4  C   UNL d   1      60.768  -7.344  36.207  0.00  0.00     0.182 A 
ATOM      5  N   UNL d   1      61.115  -8.090  36.199  0.00  0.00    -0.220 NA
ATOM      6  C   UNL d   1      60.651  -8.757  36.060  0.00  0.00     0.111 A 
ATOM      7  S   UNL d   1      61.087  -6.588  36.329  0.00  0.00    -0.048 SA
ATOM      8  O   UNL d   1      58.683  -7.849  35.806  0.00  0.00    -0.266 OA
ATOM      9  C   UNL d   1      59.776  -6.458  36.117  0.00  0.00     0.092 A 
ATOM     10  C   UNL d   1      60.474  -6.049  36.273  0.00  0.00     0.057 A 
ENDROOT
BRANCH   2  11
ATOM     11  C   UNL d   1      59.376  -9.355  35.789  0.00  0.00     0.285 C 
ATOM     12  N   UNL d   1      59.505  -9.809  35.110  0.00  0.00    -0.208 NA
ATOM     13  O   UNL d   1      58.791  -9.567  36.330  0.00  0.00    -0.265 OA
BRANCH  12  14
ATOM     14  C   UNL d   1      60.092  -9.593  34.570  0.00  0.00     0.085 C 
ATOM     15  C   UNL d   1      60.889  -9.765  34.732  0.00  0.00     0.021 C 
BRANCH  14  16
ATOM     16  C   UNL d   1      59.885  -9.208  33.873  0.00  0.00     0.019 C 
ATOM     17  C   UNL d   1      60.164  -9.490  33.145  0.00  0.00     0.002 C 
ENDBRANCH  14  16
ENDBRANCH  12  14
ENDBRANCH   2  11
TORSDOF 3
ENDMDL
MODEL 2
REMARK VINA RESULT:      -2.5      8.924      9.747
REMARK  3 active torsions:
REMARK  status: ('A' for Active; 'I' for Inactive)
REMARK    1  A    between atoms: C_6  and  C_2 
REMARK       I    between atoms: N_8  and  C_6 
REMARK    2  A    between atoms: C_14  and  N_8 
REMARK    3  A    between atoms: C_15  and  C_14 
ROOT
ATOM      1  N   UNL d   1      57.229  -0.418  31.401  0.00  0.00    -0.252 N 
ATOM      2  C   UNL d   1      56.548  -0.528  32.648  0.00  0.00     0.133 A 
ATOM      3  C   UNL d   1      56.773  -0.856  31.926  0.00  0.00     0.272 A 
ATOM      4  C   UNL d   1      57.462   0.349  31.596  0.00  0.00     0.182 A 
ATOM      5  N   UNL d   1      57.238   0.678  32.317  0.00  0.00    -0.220 NA
ATOM      6  C   UNL d   1      56.781   0.239  32.843  0.00  0.00     0.111 A 
ATOM      7  S   UNL d   1      57.912   0.651  30.968  0.00  0.00    -0.048 SA
ATOM      8  O   UNL d   1      56.540  -1.623  31.731  0.00  0.00    -0.266 OA
ATOM      9  C   UNL d   1      57.535  -0.589  30.652  0.00  0.00     0.092 A 
ATOM     10  C   UNL d   1      57.954   0.072  30.392  0.00  0.00     0.057 A 
ENDROOT
BRANCH   2  11
ATOM     11  C   UNL d   1      56.085  -0.967  33.185  0.00  0.00     0.285 C 
ATOM     12  N   UNL d   1      55.638  -0.575  33.759  0.00  0.00    -0.208 NA
ATOM     13  O   UNL d   1      56.078  -1.791  33.138  0.00  0.00    -0.265 OA
BRANCH  12  14
ATOM     14  C   UNL d   1      55.648   0.250  33.803  0.00  0.00     0.085 C 
ATOM     15  C   UNL d   1      56.320   0.642  34.092  0.00  0.00     0.021 C 
BRANCH  14  16
ATOM     16  C   UNL d   1      54.990   0.680  33.559  0.00  0.00     0.019 C 
ATOM     17  C   UNL d   1      54.271   0.604  33.965  0.00  0.00     0.002 C 
ENDBRANCH  14  16
ENDBRANCH  12  14
ENDBRANCH   2  11
TORSDOF 3
ENDMDL
MODEL 3
REMARK VINA RESULT:      -2.4      9.235     10.032
REMARK  3 active torsions:
REMARK  status: ('A' for Active; 'I' for Inactive)
REMARK    1  A    between atoms: C_6  and  C_2 
REMARK       I    between atoms: N_8  and  C_6 
REMARK    2  A    between atoms: C_14  and  N_8 
REMARK    3  A    between atoms: C_15  and  C_14 
ROOT
ATOM      1  N   UNL d   1      57.468  -0.579  30.937  0.00  0.00    -0.252 N 
ATOM      2  C   UNL d   1      58.208  -0.529  29.720  0.00  0.00     0.133 A 
ATOM      3  C   UNL d   1      57.863  -0.965  30.328  0.00  0.00     0.272 A 
ATOM      4  C   UNL d   1      57.416   0.245  30.940  0.00  0.00     0.182 A 
ATOM      5  N   UNL d   1      57.760   0.682  30.333  0.00  0.00    -0.220 NA
ATOM      6  C   UNL d   1      58.156   0.295  29.723  0.00  0.00     0.111 A 
ATOM      7  S   UNL d   1      56.991   0.476  31.613  0.00  0.00    -0.048 SA
ATOM      8  O   UNL d   1      57.915  -1.788  30.326  0.00  0.00    -0.266 OA
ATOM      9  C   UNL d   1      57.074  -0.856  31.609  0.00  0.00     0.092 A 
ATOM     10  C   UNL d   1      56.783  -0.203  32.020  0.00  0.00     0.057 A 
ENDROOT
BRANCH   2  11
ATOM     11  C   UNL d   1      58.610  -0.915  29.100  0.00  0.00     0.285 C 
ATOM     12  N   UNL d   1      59.391  -0.707  28.924  0.00  0.00    -0.208 NA
ATOM     13  O   UNL d   1      58.225  -1.501  28.667  0.00  0.00    -0.265 OA
BRANCH  12  14
ATOM     14  C   UNL d   1      59.773  -0.119  29.360  0.00  0.00     0.085 C 
ATOM     15  C   UNL d   1      59.618   0.682  29.203  0.00  0.00     0.021 C 
BRANCH  14  16
ATOM     16  C   UNL d   1      60.308  -0.329  29.949  0.00  0.00     0.019 C 
ATOM     17  C   UNL d   1      61.089  -0.055  29.917  0.00  0.00     0.002 C 
ENDBRANCH  14  16
ENDBRANCH  12  14
ENDBRANCH   2  11
TORSDOF 3
ENDMDL
MODEL 4
REMARK VINA RESULT:      -2.2      9.177     10.303
REMARK  3 active torsions:
REMARK  status: ('A' for Active; 'I' for Inactive)
REMARK    1  A    between atoms: C_6  and  C_2 
REMARK       I    between atoms: N_8  and  C_6 
REMARK    2  A    between atoms: C_14  and  N_8 
REMARK    3  A    between atoms: C_15  and  C_14 
ROOT
ATOM      1  N   UNL d   1      60.018  -2.044  29.088  0.00  0.00    -0.252 N 
ATOM      2  C   UNL d   1      59.761  -0.668  28.822  0.00  0.00     0.133 A 
ATOM      3  C   UNL d   1      60.253  -1.257  29.121  0.00  0.00     0.272 A 
ATOM      4  C   UNL d   1      59.289  -2.244  28.755  0.00  0.00     0.182 A 
ATOM      5  N   UNL d   1      58.796  -1.657  28.456  0.00  0.00    -0.220 NA
ATOM      6  C   UNL d   1      59.032  -0.868  28.490  0.00  0.00     0.111 A 
ATOM      7  S   UNL d   1      59.203  -3.068  28.798  0.00  0.00    -0.048 SA
ATOM      8  O   UNL d   1      60.981  -1.056  29.453  0.00  0.00    -0.266 OA
ATOM      9  C   UNL d   1      60.380  -2.744  29.335  0.00  0.00     0.092 A 
ATOM     10  C   UNL d   1      59.874  -3.370  29.154  0.00  0.00     0.057 A 
ENDROOT
BRANCH   2  11
ATOM     11  C   UNL d   1      59.994   0.132  28.852  0.00  0.00     0.285 C 
ATOM     12  N   UNL d   1      59.538   0.678  29.274  0.00  0.00    -0.208 NA
ATOM     13  O   UNL d   1      60.679   0.373  28.461  0.00  0.00    -0.265 OA
BRANCH  12  14
ATOM     14  C   UNL d   1      58.852   0.433  29.665  0.00  0.00     0.085 C 
ATOM     15  C   UNL d   1      58.151   0.312  29.238  0.00  0.00     0.021 C 
BRANCH  14  16
ATOM     16  C   UNL d   1      58.868   0.311  30.478  0.00  0.00     0.019 C 
ATOM     17  C   UNL d   1      58.308   0.682  30.965  0.00  0.00     0.002 C 
ENDBRANCH  14  16
ENDBRANCH  12  14
ENDBRANCH   2  11
TORSDOF 3
ENDMDL
MODEL 5
REMARK VINA RESULT:      -1.5      9.054      9.653
REMARK  3 active torsions:
REMARK  status: ('A' for Active; 'I' for Inactive)
REMARK    1  A    between atoms: C_6  and  C_2 
REMARK       I    between atoms: N_8  and  C_6 
REMARK    2  A    between atoms: C_14  and  N_8 
REMARK    3  A    between atoms: C_15  and  C_14 
ROOT
ATOM      1  N   UNL d   1      56.211  -0.478  32.713  0.00  0.00    -0.252 N 
ATOM      2  C   UNL d   1      57.038  -0.588  31.558  0.00  0.00     0.133 A 
ATOM      3  C   UNL d   1      56.547  -0.937  32.119  0.00  0.00     0.272 A 
ATOM      4  C   UNL d   1      56.366   0.332  32.747  0.00  0.00     0.182 A 
ATOM      5  N   UNL d   1      56.857   0.682  32.187  0.00  0.00    -0.220 NA
ATOM      6  C   UNL d   1      57.193   0.222  31.591  0.00  0.00     0.111 A 
ATOM      7  S   UNL d   1      55.958   0.647  33.397  0.00  0.00    -0.048 SA
ATOM      8  O   UNL d   1      56.391  -1.747  32.085  0.00  0.00    -0.266 OA
ATOM      9  C   UNL d   1      55.707  -0.662  33.342  0.00  0.00     0.092 A 
ATOM     10  C   UNL d   1      55.556   0.033  33.758  0.00  0.00     0.057 A 
ENDROOT
BRANCH   2  11
ATOM     11  C   UNL d   1      57.380  -1.048  30.953  0.00  0.00     0.285 C 
ATOM     12  N   UNL d   1      57.904  -0.699  30.417  0.00  0.00    -0.208 NA
ATOM     13  O   UNL d   1      57.193  -1.850  30.895  0.00  0.00    -0.265 OA
BRANCH  12  14
ATOM     14  C   UNL d   1      58.089   0.103  30.478  0.00  0.00     0.085 C 
ATOM     15  C   UNL d   1      57.520   0.677  30.286  0.00  0.00     0.021 C 
BRANCH  14  16
ATOM     16  C   UNL d   1      58.838   0.332  30.731  0.00  0.00     0.019 C 
ATOM     17  C   UNL d   1      59.367   0.682  30.197  0.00  0.00     0.002 C 
ENDBRANCH  14  16
ENDBRANCH  12  14
ENDBRANCH   2  11
TORSDOF 3
ENDMDL
MODEL 6
REMARK VINA RESULT:      -1.1      9.080      9.747
REMARK  3 active torsions:
REMARK  status: ('A' for Active; 'I' for Inactive)
REMARK    1  A    between atoms: C_6  and  C_2 
REMARK       I    between atoms: N_8  and  C_6 
REMARK    2  A    between atoms: C_14  and  N_8 
REMARK    3  A    between atoms: C_15  and  C_14 
ROOT
ATOM      1  N   UNL d   1      56.602  -0.416  32.817  0.00  0.00    -0.252 N 
ATOM      2  C   UNL d   1      57.645  -0.055  31.915  0.00  0.00     0.133 A 
ATOM      3  C   UNL d   1      57.237   0.068  32.620  0.00  0.00     0.272 A 
ATOM      4  C   UNL d   1      56.375  -1.026  32.310  0.00  0.00     0.182 A 
ATOM      5  N   UNL d   1      56.782  -1.151  31.606  0.00  0.00    -0.220 NA
ATOM      6  C   UNL d   1      57.417  -0.665  31.408  0.00  0.00     0.111 A 
ATOM      7  S   UNL d   1      55.727  -1.417  32.649  0.00  0.00    -0.048 SA
ATOM      8  O   UNL d   1      57.464   0.678  33.127  0.00  0.00    -0.266 OA
ATOM      9  C   UNL d   1      56.094  -0.431  33.469  0.00  0.00     0.092 A 
ATOM     10  C   UNL d   1      55.559  -1.049  33.360  0.00  0.00     0.057 A 
ENDROOT
BRANCH   2  11
ATOM     11  C   UNL d   1      58.289   0.433  31.710  0.00  0.00     0.285 C 
ATOM     12  N   UNL d   1      58.396   0.663  30.923  0.00  0.00    -0.208 NA
ATOM     13  O   UNL d   1      58.815   0.682  32.295  0.00  0.00    -0.265 OA
BRANCH  12  14
ATOM     14  C   UNL d   1      57.867   0.412  30.340  0.00  0.00     0.085 C 
ATOM     15  C   UNL d   1      57.082   0.682  30.347  0.00  0.00     0.021 C 
BRANCH  14  16
ATOM     16  C   UNL d   1      58.122  -0.106  29.754  0.00  0.00     0.019 C 
ATOM     17  C   UNL d   1      58.303   0.179  28.997  0.00  0.00     0.002 C 
ENDBRANCH  14  16
ENDBRANCH  12  14
ENDBRANCH   2  11
TORSDOF 3
ENDMDL
