MODEL 1
REMARK VINA RESULT:      34.9      0.000      0.000
REMARK  6 active torsions:
REMARK  status: ('A' for Active; 'I' for Inactive)
REMARK    1  A    between atoms: N_14  and  C_6 
REMARK    2  A    between atoms: C_20  and  N_14 
REMARK    3  A    between atoms: O_19  and  C_22 
REMARK    4  A    between atoms: C_23  and  O_19 
REMARK    5  A    between atoms: C_22  and  C_20 
REMARK    6  A    between atoms: C_21  and  C_23 
ROOT
ATOM      1  N   UNL d   1      14.253  14.035  -3.032  0.00  0.00    -0.193 N 
ATOM      2  C   UNL d   1      13.956  13.280  -2.858  0.00  0.00     0.168 A 
ATOM      3  C   UNL d   1      14.144  12.910  -2.153  0.00  0.00     0.073 A 
ATOM      4  C   UNL d   1      14.629  13.299  -1.623  0.00  0.00     0.185 A 
ATOM      5  N   UNL d   1      14.926  14.055  -1.797  0.00  0.00    -0.143 NA
ATOM      6  C   UNL d   1      14.055  14.389  -3.741  0.00  0.00     0.167 A 
ATOM      7  N   UNL d   1      13.469  12.899  -3.399  0.00  0.00    -0.227 NA
ATOM      8  C   UNL d   1      13.850  12.163  -1.981  0.00  0.00     0.007 A 
ATOM      9  N   UNL d   1      14.828  12.938  -0.905  0.00  0.00    -0.225 NA
ATOM     10  C   UNL d   1      13.573  14.016  -4.280  0.00  0.00     0.058 A 
ATOM     11  C   UNL d   1      14.037  11.793  -1.277  0.00  0.00     0.019 A 
ATOM     12  C   UNL d   1      13.276  13.261  -4.106  0.00  0.00     0.086 A 
ATOM     13  C   UNL d   1      14.531  12.182  -0.731  0.00  0.00     0.083 A 
ATOM     14  C   UNL d   1      13.360  11.781  -2.525  0.00  0.00     0.000 C 
ATOM     15  C   UNL d   1      12.770  12.867  -4.670  0.00  0.00     0.021 C 
ATOM     16  C   UNL d   1      14.722  11.820  -0.027  0.00  0.00     0.021 C 
ENDROOT
BRANCH   6  17
ATOM     17  N   UNL d   1      14.365  15.168  -3.913  0.00  0.00    -0.223 NA
BRANCH  17  18
ATOM     18  C   UNL d   1      14.849  15.845  -3.770  0.00  0.00     0.127 C 
BRANCH  18  19
ATOM     19  C   UNL d   1      14.629  16.403  -3.163  0.00  0.00     0.143 C 
BRANCH  19  20
ATOM     20  O   UNL d   1      15.180  16.616  -2.553  0.00  0.00    -0.298 OA
BRANCH  20  21
ATOM     21  C   UNL d   1      14.904  16.788  -1.763  0.00  0.00     0.168 C 
BRANCH  21  22
ATOM     22  C   UNL d   1      15.446  16.745  -1.105  0.00  0.00     0.261 C 
ATOM     23  O   UNL d   1      15.224  17.084  -0.351  0.00  0.00    -0.281 OA
ENDBRANCH  21  22
ENDBRANCH  20  21
ENDBRANCH  19  20
ENDBRANCH  18  19
ENDBRANCH  17  18
ENDBRANCH   6  17
TORSDOF 6
ENDMDL
MODEL 2
REMARK VINA RESULT:      36.8      0.990      2.737
REMARK  6 active torsions:
REMARK  status: ('A' for Active; 'I' for Inactive)
REMARK    1  A    between atoms: N_14  and  C_6 
REMARK    2  A    between atoms: C_20  and  N_14 
REMARK    3  A    between atoms: O_19  and  C_22 
REMARK    4  A    between atoms: C_23  and  O_19 
REMARK    5  A    between atoms: C_22  and  C_20 
REMARK    6  A    between atoms: C_21  and  C_23 
ROOT
ATOM      1  N   UNL d   1      14.434  14.170  -2.243  0.00  0.00    -0.193 N 
ATOM      2  C   UNL d   1      14.228  13.370  -2.164  0.00  0.00     0.168 A 
ATOM      3  C   UNL d   1      13.864  12.970  -2.779  0.00  0.00     0.073 A 
ATOM      4  C   UNL d   1      13.707  13.375  -3.471  0.00  0.00     0.185 A 
ATOM      5  N   UNL d   1      13.913  14.175  -3.550  0.00  0.00    -0.143 NA
ATOM      6  C   UNL d   1      14.797  14.552  -1.619  0.00  0.00     0.167 A 
ATOM      7  N   UNL d   1      14.391  12.974  -1.463  0.00  0.00    -0.227 NA
ATOM      8  C   UNL d   1      13.661  12.179  -2.701  0.00  0.00     0.007 A 
ATOM      9  N   UNL d   1      13.339  12.984  -4.102  0.00  0.00    -0.225 NA
ATOM     10  C   UNL d   1      14.961  14.164  -0.923  0.00  0.00     0.058 A 
ATOM     11  C   UNL d   1      13.297  11.779  -3.314  0.00  0.00     0.019 A 
ATOM     12  C   UNL d   1      14.755  13.364  -0.844  0.00  0.00     0.086 A 
ATOM     13  C   UNL d   1      13.133  12.184  -4.023  0.00  0.00     0.083 A 
ATOM     14  C   UNL d   1      13.825  11.782  -1.996  0.00  0.00     0.000 C 
ATOM     15  C   UNL d   1      14.926  12.956  -0.114  0.00  0.00     0.021 C 
ATOM     16  C   UNL d   1      12.771  11.792  -4.638  0.00  0.00     0.021 C 
ENDROOT
BRANCH   6  17
ATOM     17  N   UNL d   1      15.006  15.377  -1.708  0.00  0.00    -0.223 NA
BRANCH  17  18
ATOM     18  C   UNL d   1      14.935  16.204  -1.552  0.00  0.00     0.127 C 
BRANCH  18  19
ATOM     19  C   UNL d   1      15.190  16.769  -2.140  0.00  0.00     0.143 C 
BRANCH  19  20
ATOM     20  O   UNL d   1      15.124  16.589  -2.967  0.00  0.00    -0.298 OA
BRANCH  20  21
ATOM     21  C   UNL d   1      15.016  17.214  -3.538  0.00  0.00     0.168 C 
BRANCH  21  22
ATOM     22  C   UNL d   1      15.637  17.393  -4.095  0.00  0.00     0.261 C 
ATOM     23  O   UNL d   1      15.695  16.947  -4.823  0.00  0.00    -0.281 OA
ENDBRANCH  21  22
ENDBRANCH  20  21
ENDBRANCH  19  20
ENDBRANCH  18  19
ENDBRANCH  17  18
ENDBRANCH   6  17
TORSDOF 6
ENDMDL
