MODEL 1
REMARK VINA RESULT:      19.4      0.000      0.000
REMARK  2 active torsions:
REMARK  status: ('A' for Active; 'I' for Inactive)
REMARK    1  A    between atoms: C_6  and  N_2 
REMARK    2  A    between atoms: C_8  and  C_6 
ROOT
ATOM      1  C   UNL d   1      58.421  49.707  49.614  0.00  0.00     0.151 A 
ATOM      2  N   UNL d   1      58.285  49.707  50.425  0.00  0.00    -0.286 N 
ATOM      3  S   UNL d   1      59.229  49.706  49.503  0.00  0.00    -0.057 SA
ATOM      4  C   UNL d   1      59.001  49.706  50.802  0.00  0.00     0.071 A 
ATOM      5  C   UNL d   1      59.586  49.706  50.231  0.00  0.00     0.048 A 
ATOM      6  S   UNL d   1      57.864  49.707  49.014  0.00  0.00    -0.052 SA
ATOM      7  C   UNL d   1      59.207  49.706  51.600  0.00  0.00     0.018 A 
ATOM      8  C   UNL d   1      60.383  49.705  50.452  0.00  0.00     0.008 A 
ATOM      9  C   UNL d   1      60.004  49.705  51.829  0.00  0.00     0.002 A 
ATOM     10  C   UNL d   1      60.588  49.705  51.258  0.00  0.00     0.001 A 
ENDROOT
BRANCH   2  11
ATOM     11  C   UNL d   1      57.526  49.707  50.782  0.00  0.00     0.152 C 
BRANCH  11  12
ATOM     12  C   UNL d   1      56.901  49.284  50.448  0.00  0.00     0.230 C 
ATOM     13  O   UNL d   1      56.449  49.620  49.839  0.00  0.00    -0.643 OA
ATOM     14  O   UNL d   1      56.726  48.532  50.719  0.00  0.00    -0.643 OA
ENDBRANCH  11  12
ENDBRANCH   2  11
TORSDOF 2
ENDMDL
MODEL 2
REMARK VINA RESULT:      20.5      1.458      2.763
REMARK  2 active torsions:
REMARK  status: ('A' for Active; 'I' for Inactive)
REMARK    1  A    between atoms: C_6  and  N_2 
REMARK    2  A    between atoms: C_8  and  C_6 
ROOT
ATOM      1  C   UNL d   1      58.747  49.697  49.816  0.00  0.00     0.151 A 
ATOM      2  N   UNL d   1      58.466  49.696  50.589  0.00  0.00    -0.286 N 
ATOM      3  S   UNL d   1      58.099  49.684  49.321  0.00  0.00    -0.057 SA
ATOM      4  C   UNL d   1      57.657  49.684  50.564  0.00  0.00     0.071 A 
ATOM      5  C   UNL d   1      57.430  49.676  49.780  0.00  0.00     0.048 A 
ATOM      6  S   UNL d   1      59.528  49.708  49.568  0.00  0.00    -0.052 SA
ATOM      7  C   UNL d   1      57.085  49.678  51.157  0.00  0.00     0.018 A 
ATOM      8  C   UNL d   1      56.628  49.662  49.579  0.00  0.00     0.008 A 
ATOM      9  C   UNL d   1      56.279  49.664  50.964  0.00  0.00     0.002 A 
ATOM     10  C   UNL d   1      56.052  49.657  50.179  0.00  0.00     0.001 A 
ENDROOT
BRANCH   2  11
ATOM     11  C   UNL d   1      58.951  49.707  51.273  0.00  0.00     0.152 C 
BRANCH  11  12
ATOM     12  C   UNL d   1      59.655  49.278  51.301  0.00  0.00     0.230 C 
ATOM     13  O   UNL d   1      59.664  48.514  51.626  0.00  0.00    -0.643 OA
ATOM     14  O   UNL d   1      60.345  49.604  51.008  0.00  0.00    -0.643 OA
ENDBRANCH  11  12
ENDBRANCH   2  11
TORSDOF 2
ENDMDL
MODEL 3
REMARK VINA RESULT:      20.7      1.079      1.484
REMARK  2 active torsions:
REMARK  status: ('A' for Active; 'I' for Inactive)
REMARK    1  A    between atoms: C_6  and  N_2 
REMARK    2  A    between atoms: C_8  and  C_6 
ROOT
ATOM      1  C   UNL d   1      57.837  49.704  51.298  0.00  0.00     0.151 A 
ATOM      2  N   UNL d   1      58.050  49.704  50.504  0.00  0.00    -0.286 N 
ATOM      3  S   UNL d   1      58.526  49.706  51.735  0.00  0.00    -0.057 SA
ATOM      4  C   UNL d   1      58.858  49.705  50.459  0.00  0.00     0.071 A 
ATOM      5  C   UNL d   1      59.152  49.706  51.221  0.00  0.00     0.048 A 
ATOM      6  S   UNL d   1      57.081  49.704  51.613  0.00  0.00    -0.052 SA
ATOM      7  C   UNL d   1      59.377  49.705  49.819  0.00  0.00     0.018 A 
ATOM      8  C   UNL d   1      59.969  49.708  51.351  0.00  0.00     0.008 A 
ATOM      9  C   UNL d   1      60.197  49.706  49.942  0.00  0.00     0.002 A 
ATOM     10  C   UNL d   1      60.491  49.708  50.704  0.00  0.00     0.001 A 
ENDROOT
BRANCH   2  11
ATOM     11  C   UNL d   1      57.508  49.702  49.864  0.00  0.00     0.152 C 
BRANCH  11  12
ATOM     12  C   UNL d   1      56.853  49.200  49.865  0.00  0.00     0.230 C 
ATOM     13  O   UNL d   1      56.945  48.395  50.047  0.00  0.00    -0.643 OA
ATOM     14  O   UNL d   1      56.111  49.495  49.687  0.00  0.00    -0.643 OA
ENDBRANCH  11  12
ENDBRANCH   2  11
TORSDOF 2
ENDMDL
