MODEL 1
REMARK VINA RESULT:      -9.2      0.000      0.000
REMARK  4 active torsions:
REMARK  status: ('A' for Active; 'I' for Inactive)
REMARK    1  A    between atoms: C_10  and  C_3 
REMARK    2  A    between atoms: C_12  and  C_6 
REMARK    3  A    between atoms: O_15  and  C_10 
REMARK    4  A    between atoms: C_22  and  O_15 
ROOT
ATOM      1  C   UNL d   1     -47.808  12.479  23.121  0.00  0.00     0.057 A 
ATOM      2  C   UNL d   1     -47.035  12.769  23.110  0.00  0.00     0.085 A 
ATOM      3  C   UNL d   1     -48.301  13.777  22.804  0.00  0.00     0.081 A 
ATOM      4  N   UNL d   1     -46.889  13.558  22.947  0.00  0.00    -0.245 NA
ATOM      5  C   UNL d   1     -47.778  11.674  23.299  0.00  0.00     0.197 A 
ATOM      6  C   UNL d   1     -48.436  12.985  22.969  0.00  0.00     0.013 A 
ATOM      7  C   UNL d   1     -47.525  14.069  22.792  0.00  0.00     0.086 A 
ATOM      8  C   UNL d   1     -46.525  12.140  23.282  0.00  0.00     0.021 A 
ATOM      9  C   UNL d   1     -46.981  11.466  23.398  0.00  0.00     0.041 A 
ATOM     10  O   UNL d   1     -48.426  11.165  23.367  0.00  0.00    -0.286 OA
ATOM     11  C   UNL d   1     -47.386  14.864  22.628  0.00  0.00     0.021 C 
ATOM     12  C   UNL d   1     -45.695  12.093  23.348  0.00  0.00     0.002 A 
ATOM     13  C   UNL d   1     -46.621  10.742  23.581  0.00  0.00     0.003 A 
ATOM     14  C   UNL d   1     -45.795  10.702  23.645  0.00  0.00     0.000 A 
ATOM     15  C   UNL d   1     -45.342  11.375  23.528  0.00  0.00     0.000 A 
ENDROOT
BRANCH   6  16
ATOM     16  C   UNL d   1     -49.208  12.694  22.980  0.00  0.00     0.020 A 
ATOM     17  C   UNL d   1     -49.630  12.697  23.682  0.00  0.00     0.099 A 
ATOM     18  N   UNL d   1     -50.403  12.407  23.697  0.00  0.00    -0.242 NA
ATOM     19  C   UNL d   1     -50.752  12.113  23.004  0.00  0.00     0.099 A 
ATOM     20  C   UNL d   1     -50.322  12.112  22.293  0.00  0.00     0.021 A 
ATOM     21  C   UNL d   1     -49.550  12.402  22.282  0.00  0.00     0.003 A 
ENDBRANCH   6  16
BRANCH   3  22
ATOM     22  C   UNL d   1     -48.931  14.287  22.650  0.00  0.00     0.302 C 
ATOM     23  O   UNL d   1     -49.218  14.360  21.881  0.00  0.00    -0.259 OA
BRANCH  22  24
ATOM     24  O   UNL d   1     -49.272  14.721  23.261  0.00  0.00    -0.271 OA
BRANCH  24  25
ATOM     25  C   UNL d   1     -49.741  15.375  23.086  0.00  0.00     0.126 C 
ATOM     26  C   UNL d   1     -49.933  15.912  23.680  0.00  0.00     0.029 C 
ENDBRANCH  24  25
ENDBRANCH  22  24
ENDBRANCH   3  22
TORSDOF 4
ENDMDL
MODEL 2
REMARK VINA RESULT:      -8.9      1.423      3.634
REMARK  4 active torsions:
REMARK  status: ('A' for Active; 'I' for Inactive)
REMARK    1  A    between atoms: C_10  and  C_3 
REMARK    2  A    between atoms: C_12  and  C_6 
REMARK    3  A    between atoms: O_15  and  C_10 
REMARK    4  A    between atoms: C_22  and  O_15 
ROOT
ATOM      1  C   UNL d   1     -48.628  13.686  22.960  0.00  0.00     0.057 A 
ATOM      2  C   UNL d   1     -48.618  14.510  22.943  0.00  0.00     0.085 A 
ATOM      3  C   UNL d   1     -47.204  13.667  22.912  0.00  0.00     0.081 A 
ATOM      4  N   UNL d   1     -47.909  14.918  22.911  0.00  0.00    -0.245 NA
ATOM      5  C   UNL d   1     -49.414  13.438  22.991  0.00  0.00     0.197 A 
ATOM      6  C   UNL d   1     -47.921  13.268  22.944  0.00  0.00     0.013 A 
ATOM      7  C   UNL d   1     -47.194  14.496  22.895  0.00  0.00     0.086 A 
ATOM      8  C   UNL d   1     -49.402  14.775  22.965  0.00  0.00     0.021 A 
ATOM      9  C   UNL d   1     -49.893  14.115  22.995  0.00  0.00     0.041 A 
ATOM     10  O   UNL d   1     -49.679  12.654  23.016  0.00  0.00    -0.286 OA
ATOM     11  C   UNL d   1     -46.476  14.899  22.862  0.00  0.00     0.021 C 
ATOM     12  C   UNL d   1     -49.738  15.538  22.961  0.00  0.00     0.002 A 
ATOM     13  C   UNL d   1     -50.717  14.205  23.021  0.00  0.00     0.003 A 
ATOM     14  C   UNL d   1     -51.044  14.967  23.017  0.00  0.00     0.000 A 
ATOM     15  C   UNL d   1     -50.553  15.624  22.987  0.00  0.00     0.000 A 
ENDROOT
BRANCH   6  16
ATOM     16  C   UNL d   1     -47.931  12.443  22.960  0.00  0.00     0.020 A 
ATOM     17  C   UNL d   1     -48.044  12.027  22.265  0.00  0.00     0.099 A 
ATOM     18  N   UNL d   1     -48.055  11.202  22.278  0.00  0.00    -0.242 NA
ATOM     19  C   UNL d   1     -47.952  10.794  22.994  0.00  0.00     0.099 A 
ATOM     20  C   UNL d   1     -47.838  11.219  23.698  0.00  0.00     0.021 A 
ATOM     21  C   UNL d   1     -47.827  12.044  23.681  0.00  0.00     0.003 A 
ENDBRANCH   6  16
BRANCH   3  22
ATOM     22  C   UNL d   1     -46.493  13.249  22.895  0.00  0.00     0.302 C 
ATOM     23  O   UNL d   1     -46.189  12.934  23.595  0.00  0.00    -0.259 OA
BRANCH  22  24
ATOM     24  O   UNL d   1     -46.088  13.147  22.186  0.00  0.00    -0.271 OA
BRANCH  24  25
ATOM     25  C   UNL d   1     -45.273  13.025  22.194  0.00  0.00     0.126 C 
ATOM     26  C   UNL d   1     -44.875  12.879  21.488  0.00  0.00     0.029 C 
ENDBRANCH  24  25
ENDBRANCH  22  24
ENDBRANCH   3  22
TORSDOF 4
ENDMDL
MODEL 3
REMARK VINA RESULT:      -7.3      1.208      2.439
REMARK  4 active torsions:
REMARK  status: ('A' for Active; 'I' for Inactive)
REMARK    1  A    between atoms: C_10  and  C_3 
REMARK    2  A    between atoms: C_12  and  C_6 
REMARK    3  A    between atoms: O_15  and  C_10 
REMARK    4  A    between atoms: C_22  and  O_15 
ROOT
ATOM      1  C   UNL d   1     -47.239  12.485  23.101  0.00  0.00     0.057 A 
ATOM      2  C   UNL d   1     -47.241  11.717  23.400  0.00  0.00     0.085 A 
ATOM      3  C   UNL d   1     -48.660  12.527  23.199  0.00  0.00     0.081 A 
ATOM      4  N   UNL d   1     -47.944  11.349  23.600  0.00  0.00    -0.245 NA
ATOM      5  C   UNL d   1     -46.457  12.703  22.954  0.00  0.00     0.197 A 
ATOM      6  C   UNL d   1     -47.949  12.887  23.002  0.00  0.00     0.013 A 
ATOM      7  C   UNL d   1     -48.662  11.755  23.499  0.00  0.00     0.086 A 
ATOM      8  C   UNL d   1     -46.456  11.457  23.438  0.00  0.00     0.021 A 
ATOM      9  C   UNL d   1     -45.973  12.063  23.164  0.00  0.00     0.041 A 
ATOM     10  O   UNL d   1     -46.201  13.429  22.651  0.00  0.00    -0.286 OA
ATOM     11  C   UNL d   1     -49.374  11.391  23.698  0.00  0.00     0.021 C 
ATOM     12  C   UNL d   1     -46.114  10.739  23.690  0.00  0.00     0.002 A 
ATOM     13  C   UNL d   1     -45.150  11.965  23.136  0.00  0.00     0.003 A 
ATOM     14  C   UNL d   1     -44.816  11.249  23.388  0.00  0.00     0.000 A 
ATOM     15  C   UNL d   1     -45.299  10.645  23.661  0.00  0.00     0.000 A 
ENDROOT
BRANCH   6  16
ATOM     16  C   UNL d   1     -47.947  13.655  22.702  0.00  0.00     0.020 A 
ATOM     17  C   UNL d   1     -47.935  13.774  21.892  0.00  0.00     0.099 A 
ATOM     18  N   UNL d   1     -47.932  14.541  21.589  0.00  0.00    -0.242 NA
ATOM     19  C   UNL d   1     -47.942  15.193  22.104  0.00  0.00     0.099 A 
ATOM     20  C   UNL d   1     -47.954  15.071  22.925  0.00  0.00     0.021 A 
ATOM     21  C   UNL d   1     -47.957  14.302  23.224  0.00  0.00     0.003 A 
ENDBRANCH   6  16
BRANCH   3  22
ATOM     22  C   UNL d   1     -49.374  12.929  23.100  0.00  0.00     0.302 C 
ATOM     23  O   UNL d   1     -49.638  13.443  23.688  0.00  0.00    -0.259 OA
BRANCH  22  24
ATOM     24  O   UNL d   1     -49.821  12.817  22.418  0.00  0.00    -0.271 OA
BRANCH  24  25
ATOM     25  C   UNL d   1     -50.631  12.971  22.429  0.00  0.00     0.126 C 
ATOM     26  C   UNL d   1     -51.064  12.932  21.731  0.00  0.00     0.029 C 
ENDBRANCH  24  25
ENDBRANCH  22  24
ENDBRANCH   3  22
TORSDOF 4
ENDMDL
MODEL 4
REMARK VINA RESULT:      -7.2      1.396      3.593
REMARK  4 active torsions:
REMARK  status: ('A' for Active; 'I' for Inactive)
REMARK    1  A    between atoms: C_10  and  C_3 
REMARK    2  A    between atoms: C_12  and  C_6 
REMARK    3  A    between atoms: O_15  and  C_10 
REMARK    4  A    between atoms: C_22  and  O_15 
ROOT
ATOM      1  C   UNL d   1     -48.578  12.938  23.024  0.00  0.00     0.057 A 
ATOM      2  C   UNL d   1     -48.614  12.175  23.335  0.00  0.00     0.085 A 
ATOM      3  C   UNL d   1     -47.154  12.886  23.061  0.00  0.00     0.081 A 
ATOM      4  N   UNL d   1     -47.928  11.764  23.511  0.00  0.00    -0.245 NA
ATOM      5  C   UNL d   1     -49.349  13.205  22.906  0.00  0.00     0.197 A 
ATOM      6  C   UNL d   1     -47.848  13.290  22.889  0.00  0.00     0.013 A 
ATOM      7  C   UNL d   1     -47.190  12.119  23.374  0.00  0.00     0.086 A 
ATOM      8  C   UNL d   1     -49.412  11.969  23.410  0.00  0.00     0.021 A 
ATOM      9  C   UNL d   1     -49.865  12.602  23.147  0.00  0.00     0.041 A 
ATOM     10  O   UNL d   1     -49.569  13.943  22.603  0.00  0.00    -0.286 OA
ATOM     11  C   UNL d   1     -46.496  11.711  23.548  0.00  0.00     0.021 C 
ATOM     12  C   UNL d   1     -49.789  11.279  23.688  0.00  0.00     0.002 A 
ATOM     13  C   UNL d   1     -50.693  12.559  23.155  0.00  0.00     0.003 A 
ATOM     14  C   UNL d   1     -51.063  11.870  23.432  0.00  0.00     0.000 A 
ATOM     15  C   UNL d   1     -50.609  11.239  23.695  0.00  0.00     0.000 A 
ENDROOT
BRANCH   6  16
ATOM     16  C   UNL d   1     -47.812  14.053  22.578  0.00  0.00     0.020 A 
ATOM     17  C   UNL d   1     -47.867  14.162  21.768  0.00  0.00     0.099 A 
ATOM     18  N   UNL d   1     -47.832  14.924  21.453  0.00  0.00    -0.242 NA
ATOM     19  C   UNL d   1     -47.740  15.580  21.955  0.00  0.00     0.099 A 
ATOM     20  C   UNL d   1     -47.684  15.466  22.776  0.00  0.00     0.021 A 
ATOM     21  C   UNL d   1     -47.720  14.703  23.087  0.00  0.00     0.003 A 
ENDBRANCH   6  16
BRANCH   3  22
ATOM     22  C   UNL d   1     -46.420  13.238  22.926  0.00  0.00     0.302 C 
ATOM     23  O   UNL d   1     -46.116  13.772  23.476  0.00  0.00    -0.259 OA
BRANCH  22  24
ATOM     24  O   UNL d   1     -45.993  13.057  22.245  0.00  0.00    -0.271 OA
BRANCH  24  25
ATOM     25  C   UNL d   1     -45.183  13.207  22.218  0.00  0.00     0.126 C 
ATOM     26  C   UNL d   1     -44.744  12.963  21.567  0.00  0.00     0.029 C 
ENDBRANCH  24  25
ENDBRANCH  22  24
ENDBRANCH   3  22
TORSDOF 4
ENDMDL
MODEL 5
REMARK VINA RESULT:      -7.1      9.179     10.365
REMARK  4 active torsions:
REMARK  status: ('A' for Active; 'I' for Inactive)
REMARK    1  A    between atoms: C_10  and  C_3 
REMARK    2  A    between atoms: C_12  and  C_6 
REMARK    3  A    between atoms: O_15  and  C_10 
REMARK    4  A    between atoms: C_22  and  O_15 
ROOT
ATOM      1  C   UNL d   1     -39.560  14.820  19.381  0.00  0.00     0.057 A 
ATOM      2  C   UNL d   1     -39.046  14.494  19.939  0.00  0.00     0.085 A 
ATOM      3  C   UNL d   1     -39.034  13.946  18.386  0.00  0.00     0.081 A 
ATOM      4  N   UNL d   1     -38.527  13.898  19.729  0.00  0.00    -0.245 NA
ATOM      5  C   UNL d   1     -40.010  15.402  19.754  0.00  0.00     0.197 A 
ATOM      6  C   UNL d   1     -39.551  14.544  18.607  0.00  0.00     0.013 A 
ATOM      7  C   UNL d   1     -38.518  13.619  18.946  0.00  0.00     0.086 A 
ATOM      8  C   UNL d   1     -39.179  14.877  20.660  0.00  0.00     0.021 A 
ATOM      9  C   UNL d   1     -39.772  15.436  20.548  0.00  0.00     0.041 A 
ATOM     10  O   UNL d   1     -40.594  15.869  19.400  0.00  0.00    -0.286 OA
ATOM     11  C   UNL d   1     -37.998  13.019  18.727  0.00  0.00     0.021 C 
ATOM     12  C   UNL d   1     -38.834  14.789  21.414  0.00  0.00     0.002 A 
ATOM     13  C   UNL d   1     -40.027  15.911  21.177  0.00  0.00     0.003 A 
ATOM     14  C   UNL d   1     -39.680  15.819  21.925  0.00  0.00     0.000 A 
ATOM     15  C   UNL d   1     -39.089  15.261  22.035  0.00  0.00     0.000 A 
ENDROOT
BRANCH   6  16
ATOM     16  C   UNL d   1     -40.064  14.869  18.050  0.00  0.00     0.020 A 
ATOM     17  C   UNL d   1     -40.772  14.493  17.885  0.00  0.00     0.099 A 
ATOM     18  N   UNL d   1     -41.289  14.816  17.328  0.00  0.00    -0.242 NA
ATOM     19  C   UNL d   1     -41.092  15.521  16.935  0.00  0.00     0.099 A 
ATOM     20  C   UNL d   1     -40.373  15.900  17.104  0.00  0.00     0.021 A 
ATOM     21  C   UNL d   1     -39.859  15.575  17.662  0.00  0.00     0.003 A 
ENDBRANCH   6  16
BRANCH   3  22
ATOM     22  C   UNL d   1     -39.023  13.667  17.610  0.00  0.00     0.302 C 
ATOM     23  O   UNL d   1     -39.574  13.102  17.372  0.00  0.00    -0.259 OA
BRANCH  22  24
ATOM     24  O   UNL d   1     -38.466  13.952  17.075  0.00  0.00    -0.271 OA
BRANCH  24  25
ATOM     25  C   UNL d   1     -38.111  13.435  16.540  0.00  0.00     0.126 C 
ATOM     26  C   UNL d   1     -37.940  13.691  15.776  0.00  0.00     0.029 C 
ENDBRANCH  24  25
ENDBRANCH  22  24
ENDBRANCH   3  22
TORSDOF 4
ENDMDL
MODEL 6
REMARK VINA RESULT:      -6.8      1.108      4.158
REMARK  4 active torsions:
REMARK  status: ('A' for Active; 'I' for Inactive)
REMARK    1  A    between atoms: C_10  and  C_3 
REMARK    2  A    between atoms: C_12  and  C_6 
REMARK    3  A    between atoms: O_15  and  C_10 
REMARK    4  A    between atoms: C_22  and  O_15 
ROOT
ATOM      1  C   UNL d   1     -48.301  13.524  23.091  0.00  0.00     0.057 A 
ATOM      2  C   UNL d   1     -49.047  13.256  23.321  0.00  0.00     0.085 A 
ATOM      3  C   UNL d   1     -47.809  12.187  23.133  0.00  0.00     0.081 A 
ATOM      4  N   UNL d   1     -49.181  12.461  23.459  0.00  0.00    -0.245 NA
ATOM      5  C   UNL d   1     -48.339  14.342  22.995  0.00  0.00     0.197 A 
ATOM      6  C   UNL d   1     -47.686  12.987  22.998  0.00  0.00     0.013 A 
ATOM      7  C   UNL d   1     -48.558  11.918  23.365  0.00  0.00     0.086 A 
ATOM      8  C   UNL d   1     -49.549  13.913  23.369  0.00  0.00     0.021 A 
ATOM      9  C   UNL d   1     -49.114  14.582  23.168  0.00  0.00     0.041 A 
ATOM     10  O   UNL d   1     -47.715  14.836  22.768  0.00  0.00    -0.286 OA
ATOM     11  C   UNL d   1     -48.685  11.116  23.501  0.00  0.00     0.021 C 
ATOM     12  C   UNL d   1     -50.354  13.991  23.571  0.00  0.00     0.002 A 
ATOM     13  C   UNL d   1     -49.470  15.330  23.166  0.00  0.00     0.003 A 
ATOM     14  C   UNL d   1     -50.272  15.401  23.368  0.00  0.00     0.000 A 
ATOM     15  C   UNL d   1     -50.704  14.733  23.567  0.00  0.00     0.000 A 
ENDROOT
BRANCH   6  16
ATOM     16  C   UNL d   1     -46.941  13.254  22.767  0.00  0.00     0.020 A 
ATOM     17  C   UNL d   1     -46.434  13.572  23.327  0.00  0.00     0.099 A 
ATOM     18  N   UNL d   1     -45.688  13.840  23.100  0.00  0.00    -0.242 NA
ATOM     19  C   UNL d   1     -45.449  13.789  22.307  0.00  0.00     0.099 A 
ATOM     20  C   UNL d   1     -45.965  13.467  21.741  0.00  0.00     0.021 A 
ATOM     21  C   UNL d   1     -46.710  13.200  21.971  0.00  0.00     0.003 A 
ENDBRANCH   6  16
BRANCH   3  22
ATOM     22  C   UNL d   1     -47.193  11.647  23.040  0.00  0.00     0.302 C 
ATOM     23  O   UNL d   1     -46.994  11.380  22.286  0.00  0.00    -0.259 OA
BRANCH  22  24
ATOM     24  O   UNL d   1     -46.777  11.375  23.697  0.00  0.00    -0.271 OA
BRANCH  24  25
ATOM     25  C   UNL d   1     -46.462  10.614  23.696  0.00  0.00     0.126 C 
ATOM     26  C   UNL d   1     -45.645  10.510  23.685  0.00  0.00     0.029 C 
ENDBRANCH  24  25
ENDBRANCH  22  24
ENDBRANCH   3  22
TORSDOF 4
ENDMDL
MODEL 7
REMARK VINA RESULT:      -6.5      1.452      2.716
REMARK  4 active torsions:
REMARK  status: ('A' for Active; 'I' for Inactive)
REMARK    1  A    between atoms: C_10  and  C_3 
REMARK    2  A    between atoms: C_12  and  C_6 
REMARK    3  A    between atoms: O_15  and  C_10 
REMARK    4  A    between atoms: C_22  and  O_15 
ROOT
ATOM      1  C   UNL d   1     -47.972  13.696  22.617  0.00  0.00     0.057 A 
ATOM      2  C   UNL d   1     -47.494  13.033  22.500  0.00  0.00     0.085 A 
ATOM      3  C   UNL d   1     -49.127  12.862  22.621  0.00  0.00     0.081 A 
ATOM      4  N   UNL d   1     -47.823  12.287  22.442  0.00  0.00    -0.245 NA
ATOM      5  C   UNL d   1     -47.486  14.361  22.652  0.00  0.00     0.197 A 
ATOM      6  C   UNL d   1     -48.786  13.606  22.677  0.00  0.00     0.013 A 
ATOM      7  C   UNL d   1     -48.647  12.196  22.503  0.00  0.00     0.086 A 
ATOM      8  C   UNL d   1     -46.708  13.290  22.461  0.00  0.00     0.021 A 
ATOM      9  C   UNL d   1     -46.702  14.108  22.555  0.00  0.00     0.041 A 
ATOM     10  O   UNL d   1     -47.735  15.142  22.763  0.00  0.00    -0.286 OA
ATOM     11  C   UNL d   1     -48.986  11.447  22.446  0.00  0.00     0.021 C 
ATOM     12  C   UNL d   1     -45.989  12.883  22.353  0.00  0.00     0.002 A 
ATOM     13  C   UNL d   1     -45.987  14.527  22.541  0.00  0.00     0.003 A 
ATOM     14  C   UNL d   1     -45.275  14.116  22.433  0.00  0.00     0.000 A 
ATOM     15  C   UNL d   1     -45.283  13.301  22.340  0.00  0.00     0.000 A 
ENDROOT
BRANCH   6  16
ATOM     16  C   UNL d   1     -49.264  14.268  22.794  0.00  0.00     0.020 A 
ATOM     17  C   UNL d   1     -49.477  14.731  22.154  0.00  0.00     0.099 A 
ATOM     18  N   UNL d   1     -49.954  15.394  22.267  0.00  0.00    -0.242 NA
ATOM     19  C   UNL d   1     -50.219  15.593  23.029  0.00  0.00     0.099 A 
ATOM     20  C   UNL d   1     -50.001  15.122  23.677  0.00  0.00     0.021 A 
ATOM     21  C   UNL d   1     -49.523  14.460  23.560  0.00  0.00     0.003 A 
ENDBRANCH   6  16
BRANCH   3  22
ATOM     22  C   UNL d   1     -49.945  12.770  22.681  0.00  0.00     0.302 C 
ATOM     23  O   UNL d   1     -50.415  12.852  22.008  0.00  0.00    -0.259 OA
BRANCH  22  24
ATOM     24  O   UNL d   1     -50.290  12.597  23.407  0.00  0.00    -0.271 OA
BRANCH  24  25
ATOM     25  C   UNL d   1     -51.020  12.215  23.434  0.00  0.00     0.126 C 
ATOM     26  C   UNL d   1     -51.064  11.436  23.698  0.00  0.00     0.029 C 
ENDBRANCH  24  25
ENDBRANCH  22  24
ENDBRANCH   3  22
TORSDOF 4
ENDMDL
MODEL 8
REMARK VINA RESULT:      -6.4      7.972      9.712
REMARK  4 active torsions:
REMARK  status: ('A' for Active; 'I' for Inactive)
REMARK    1  A    between atoms: C_10  and  C_3 
REMARK    2  A    between atoms: C_12  and  C_6 
REMARK    3  A    between atoms: O_15  and  C_10 
REMARK    4  A    between atoms: C_22  and  O_15 
ROOT
ATOM      1  C   UNL d   1     -39.591  14.255  19.399  0.00  0.00     0.057 A 
ATOM      2  C   UNL d   1     -38.919  13.870  19.115  0.00  0.00     0.085 A 
ATOM      3  C   UNL d   1     -39.165  14.014  20.737  0.00  0.00     0.081 A 
ATOM      4  N   UNL d   1     -38.369  13.556  19.633  0.00  0.00    -0.245 NA
ATOM      5  C   UNL d   1     -40.036  14.509  18.753  0.00  0.00     0.197 A 
ATOM      6  C   UNL d   1     -39.710  14.325  20.209  0.00  0.00     0.013 A 
ATOM      7  C   UNL d   1     -38.489  13.626  20.452  0.00  0.00     0.086 A 
ATOM      8  C   UNL d   1     -38.948  13.885  18.288  0.00  0.00     0.021 A 
ATOM      9  C   UNL d   1     -39.635  14.278  18.063  0.00  0.00     0.041 A 
ATOM     10  O   UNL d   1     -40.753  14.919  18.784  0.00  0.00    -0.286 OA
ATOM     11  C   UNL d   1     -37.940  13.313  20.979  0.00  0.00     0.021 C 
ATOM     12  C   UNL d   1     -38.433  13.589  17.703  0.00  0.00     0.002 A 
ATOM     13  C   UNL d   1     -39.818  14.381  17.262  0.00  0.00     0.003 A 
ATOM     14  C   UNL d   1     -39.301  14.084  16.684  0.00  0.00     0.000 A 
ATOM     15  C   UNL d   1     -38.616  13.692  16.910  0.00  0.00     0.000 A 
ENDROOT
BRANCH   6  16
ATOM     16  C   UNL d   1     -40.382  14.710  20.493  0.00  0.00     0.020 A 
ATOM     17  C   UNL d   1     -41.047  14.273  20.686  0.00  0.00     0.099 A 
ATOM     18  N   UNL d   1     -41.721  14.655  20.970  0.00  0.00    -0.242 NA
ATOM     19  C   UNL d   1     -41.726  15.481  21.060  0.00  0.00     0.099 A 
ATOM     20  C   UNL d   1     -41.051  15.922  20.863  0.00  0.00     0.021 A 
ATOM     21  C   UNL d   1     -40.379  15.537  20.579  0.00  0.00     0.003 A 
ENDBRANCH   6  16
BRANCH   3  22
ATOM     22  C   UNL d   1     -39.282  14.083  21.551  0.00  0.00     0.302 C 
ATOM     23  O   UNL d   1     -39.792  13.560  21.935  0.00  0.00    -0.259 OA
BRANCH  22  24
ATOM     24  O   UNL d   1     -38.894  14.670  21.977  0.00  0.00    -0.271 OA
BRANCH  24  25
ATOM     25  C   UNL d   1     -38.734  14.557  22.778  0.00  0.00     0.126 C 
ATOM     26  C   UNL d   1     -38.445  15.181  23.229  0.00  0.00     0.029 C 
ENDBRANCH  24  25
ENDBRANCH  22  24
ENDBRANCH   3  22
TORSDOF 4
ENDMDL
MODEL 9
REMARK VINA RESULT:      -6.4      8.688     10.050
REMARK  4 active torsions:
REMARK  status: ('A' for Active; 'I' for Inactive)
REMARK    1  A    between atoms: C_10  and  C_3 
REMARK    2  A    between atoms: C_12  and  C_6 
REMARK    3  A    between atoms: O_15  and  C_10 
REMARK    4  A    between atoms: C_22  and  O_15 
ROOT
ATOM      1  C   UNL d   1     -39.209  14.355  19.753  0.00  0.00     0.057 A 
ATOM      2  C   UNL d   1     -39.609  14.771  20.343  0.00  0.00     0.085 A 
ATOM      3  C   UNL d   1     -40.233  14.692  18.822  0.00  0.00     0.081 A 
ATOM      4  N   UNL d   1     -40.317  15.147  20.181  0.00  0.00    -0.245 NA
ATOM      5  C   UNL d   1     -38.521  14.041  20.080  0.00  0.00     0.197 A 
ATOM      6  C   UNL d   1     -39.524  14.319  18.995  0.00  0.00     0.013 A 
ATOM      7  C   UNL d   1     -40.635  15.110  19.415  0.00  0.00     0.086 A 
ATOM      8  C   UNL d   1     -39.166  14.712  21.040  0.00  0.00     0.021 A 
ATOM      9  C   UNL d   1     -38.495  14.263  20.879  0.00  0.00     0.041 A 
ATOM     10  O   UNL d   1     -37.956  13.584  19.684  0.00  0.00    -0.286 OA
ATOM     11  C   UNL d   1     -41.348  15.486  19.244  0.00  0.00     0.021 C 
ATOM     12  C   UNL d   1     -39.286  15.012  21.808  0.00  0.00     0.002 A 
ATOM     13  C   UNL d   1     -37.941  14.107  21.475  0.00  0.00     0.003 A 
ATOM     14  C   UNL d   1     -38.066  14.409  22.238  0.00  0.00     0.000 A 
ATOM     15  C   UNL d   1     -38.735  14.857  22.396  0.00  0.00     0.000 A 
ENDROOT
BRANCH   6  16
ATOM     16  C   UNL d   1     -39.124  13.904  18.405  0.00  0.00     0.020 A 
ATOM     17  C   UNL d   1     -39.313  13.120  18.264  0.00  0.00     0.099 A 
ATOM     18  N   UNL d   1     -38.915  12.701  17.674  0.00  0.00    -0.242 NA
ATOM     19  C   UNL d   1     -38.324  13.073  17.225  0.00  0.00     0.099 A 
ATOM     20  C   UNL d   1     -38.134  13.868  17.370  0.00  0.00     0.021 A 
ATOM     21  C   UNL d   1     -38.534  14.284  17.960  0.00  0.00     0.003 A 
ENDBRANCH   6  16
BRANCH   3  22
ATOM     22  C   UNL d   1     -40.551  14.657  18.061  0.00  0.00     0.302 C 
ATOM     23  O   UNL d   1     -40.933  13.970  17.811  0.00  0.00    -0.259 OA
BRANCH  22  24
ATOM     24  O   UNL d   1     -40.487  15.302  17.555  0.00  0.00    -0.271 OA
BRANCH  24  25
ATOM     25  C   UNL d   1     -41.056  15.422  16.971  0.00  0.00     0.126 C 
ATOM     26  C   UNL d   1     -40.893  15.922  16.337  0.00  0.00     0.029 C 
ENDBRANCH  24  25
ENDBRANCH  22  24
ENDBRANCH   3  22
TORSDOF 4
ENDMDL
