MODEL 1
REMARK VINA RESULT:      -5.7      0.000      0.000
REMARK  2 active torsions:
REMARK  status: ('A' for Active; 'I' for Inactive)
REMARK    1  A    between atoms: C_10  and  N_1 
REMARK    2  A    between atoms: C_13  and  C_10 
ROOT
ATOM      1  N   UNL d   1     -41.301-122.387 -51.672  0.00  0.00    -0.260 N 
ATOM      2  C   UNL d   1     -41.282-123.079 -52.108  0.00  0.00     0.174 A 
ATOM      3  C   UNL d   1     -41.441-121.599 -51.847  0.00  0.00     0.348 A 
ATOM      4  N   UNL d   1     -41.617-121.185 -52.518  0.00  0.00    -0.216 NA
ATOM      5  C   UNL d   1     -41.730-121.380 -53.309  0.00  0.00     0.137 A 
ATOM      6  O   UNL d   1     -41.394-123.275 -52.890  0.00  0.00    -0.316 OA
ATOM      7  C   UNL d   1     -41.493-121.982 -52.442  0.00  0.00     0.079 A 
ATOM      8  C   UNL d   1     -41.710-122.069 -53.737  0.00  0.00     0.022 A 
ATOM      9  C   UNL d   1     -41.572-122.849 -53.564  0.00  0.00     0.094 A 
ATOM     10  O   UNL d   1     -41.390-121.130 -51.191  0.00  0.00    -0.245 OA
ATOM     11  C   UNL d   1     -41.123-123.817 -51.785  0.00  0.00     0.055 C 
ATOM     12  C   UNL d   1     -41.878-121.833 -54.501  0.00  0.00    -0.001 A 
ATOM     13  C   UNL d   1     -41.602-123.407 -54.172  0.00  0.00     0.024 A 
ATOM     14  C   UNL d   1     -41.907-122.389 -55.099  0.00  0.00    -0.000 A 
ATOM     15  C   UNL d   1     -41.769-123.178 -54.934  0.00  0.00     0.002 A 
ENDROOT
BRANCH   1  16
ATOM     16  C   UNL d   1     -41.166-122.315 -50.852  0.00  0.00     0.082 C 
BRANCH  16  17
ATOM     17  C   UNL d   1     -41.717-122.663 -50.305  0.00  0.00     0.017 A 
ATOM     18  C   UNL d   1     -42.477-122.314 -50.191  0.00  0.00     0.002 A 
ATOM     19  C   UNL d   1     -43.029-122.661 -49.644  0.00  0.00     0.000 A 
ATOM     20  C   UNL d   1     -42.815-123.356 -49.214  0.00  0.00     0.000 A 
ATOM     21  C   UNL d   1     -42.044-123.710 -49.328  0.00  0.00     0.000 A 
ATOM     22  C   UNL d   1     -41.503-123.357 -49.874  0.00  0.00     0.002 A 
ENDBRANCH  16  17
ENDBRANCH   1  16
TORSDOF 2
ENDMDL
MODEL 2
REMARK VINA RESULT:      -5.4      0.753      3.680
REMARK  2 active torsions:
REMARK  status: ('A' for Active; 'I' for Inactive)
REMARK    1  A    between atoms: C_10  and  N_1 
REMARK    2  A    between atoms: C_13  and  C_10 
ROOT
ATOM      1  N   UNL d   1     -41.431-122.382 -52.242  0.00  0.00    -0.260 N 
ATOM      2  C   UNL d   1     -41.579-123.141 -51.975  0.00  0.00     0.174 A 
ATOM      3  C   UNL d   1     -41.517-121.632 -51.924  0.00  0.00     0.348 A 
ATOM      4  N   UNL d   1     -41.781-121.337 -51.220  0.00  0.00    -0.216 NA
ATOM      5  C   UNL d   1     -42.076-121.664 -50.525  0.00  0.00     0.137 A 
ATOM      6  O   UNL d   1     -41.870-123.469 -51.289  0.00  0.00    -0.316 OA
ATOM      7  C   UNL d   1     -41.732-122.112 -51.448  0.00  0.00     0.079 A 
ATOM      8  C   UNL d   1     -42.220-122.419 -50.265  0.00  0.00     0.022 A 
ATOM      9  C   UNL d   1     -42.136-123.161 -50.580  0.00  0.00     0.094 A 
ATOM     10  O   UNL d   1     -41.280-121.056 -52.438  0.00  0.00    -0.245 OA
ATOM     11  C   UNL d   1     -41.438-123.816 -52.421  0.00  0.00     0.055 C 
ATOM     12  C   UNL d   1     -42.515-122.316 -49.510  0.00  0.00    -0.001 A 
ATOM     13  C   UNL d   1     -42.352-123.817 -50.127  0.00  0.00     0.024 A 
ATOM     14  C   UNL d   1     -42.728-122.968 -49.066  0.00  0.00    -0.000 A 
ATOM     15  C   UNL d   1     -42.646-123.721 -49.376  0.00  0.00     0.002 A 
ENDROOT
BRANCH   1  16
ATOM     16  C   UNL d   1     -41.123-122.171 -52.988  0.00  0.00     0.082 C 
BRANCH  16  17
ATOM     17  C   UNL d   1     -41.605-122.266 -53.682  0.00  0.00     0.017 A 
ATOM     18  C   UNL d   1     -41.545-122.968 -54.146  0.00  0.00     0.002 A 
ATOM     19  C   UNL d   1     -42.026-123.064 -54.841  0.00  0.00     0.000 A 
ATOM     20  C   UNL d   1     -42.566-122.454 -55.067  0.00  0.00     0.000 A 
ATOM     21  C   UNL d   1     -42.627-121.740 -54.598  0.00  0.00     0.000 A 
ATOM     22  C   UNL d   1     -42.144-121.656 -53.909  0.00  0.00     0.002 A 
ENDBRANCH  16  17
ENDBRANCH   1  16
TORSDOF 2
ENDMDL
