MODEL 1
REMARK VINA RESULT:      46.4      0.000      0.000
REMARK  2 active torsions:
REMARK  status: ('A' for Active; 'I' for Inactive)
REMARK    1  A    between atoms: N_3  and  C_1 
REMARK       I    between atoms: C_6  and  N_3 
REMARK    2  A    between atoms: C_8  and  C_6 
ROOT
ATOM      1  N   UNL d   1     -55.930 -98.755 -45.179  0.00  0.00    -0.183 NA
ATOM      2  C   UNL d   1     -55.397 -99.412 -45.152  0.00  0.00     0.281 C 
ATOM      3  O   UNL d   1     -54.713 -99.401 -45.605  0.00  0.00    -0.265 OA
ENDROOT
BRANCH   1   4
ATOM      4  C   UNL d   1     -56.611 -98.766 -44.728  0.00  0.00     0.197 A 
ATOM      5  N   UNL d   1     -56.648 -98.760 -43.913  0.00  0.00    -0.221 NA
ATOM      6  C   UNL d   1     -57.428 -98.775 -43.692  0.00  0.00     0.090 A 
ATOM      7  C   UNL d   1     -57.797 -98.777 -42.955  0.00  0.00     0.020 A 
ATOM      8  C   UNL d   1     -57.884 -98.789 -44.382  0.00  0.00     0.050 A 
ATOM      9  C   UNL d   1     -58.621 -98.793 -42.902  0.00  0.00     0.002 A 
ATOM     10  C   UNL d   1     -59.077 -98.807 -43.592  0.00  0.00     0.001 A 
ATOM     11  C   UNL d   1     -58.705 -98.805 -44.327  0.00  0.00     0.008 A 
ATOM     12  S   UNL d   1     -57.376 -98.783 -45.013  0.00  0.00    -0.047 SA
ENDBRANCH   1   4
BRANCH   2  13
ATOM     13  C   UNL d   1     -55.566-100.046 -44.680  0.00  0.00     0.058 A 
ATOM     14  C   UNL d   1     -55.110-100.189 -44.008  0.00  0.00     0.005 A 
ATOM     15  C   UNL d   1     -55.275-100.833 -43.520  0.00  0.00     0.000 A 
ATOM     16  C   UNL d   1     -54.827-100.975 -42.858  0.00  0.00     0.000 C 
ATOM     17  C   UNL d   1     -55.903-101.340 -43.706  0.00  0.00     0.000 A 
ATOM     18  C   UNL d   1     -56.359-101.186 -44.390  0.00  0.00     0.000 A 
ATOM     19  C   UNL d   1     -56.194-100.553 -44.866  0.00  0.00     0.005 A 
ENDBRANCH   2  13
TORSDOF 2
ENDMDL
