MODEL 1
REMARK VINA RESULT:     -11.0      0.000      0.000
REMARK  5 active torsions:
REMARK  status: ('A' for Active; 'I' for Inactive)
REMARK    1  A    between atoms: S_3  and  C_17 
REMARK    2  A    between atoms: N_11  and  S_3 
REMARK    3  A    between atoms: C_13  and  C_10 
REMARK    4  A    between atoms: C_12  and  N_11 
REMARK       I    between atoms: N_19  and  C_13 
REMARK    5  A    between atoms: C_31  and  N_19 
ROOT
ATOM      1  C   UNL d   1      51.731  34.032  52.783  0.00  0.00     0.105 A 
ATOM      2  C   UNL d   1      51.520  34.254  52.058  0.00  0.00     0.015 A 
ATOM      3  C   UNL d   1      51.177  33.983  53.370  0.00  0.00     0.015 A 
ATOM      4  C   UNL d   1      50.231  34.382  52.473  0.00  0.00     0.085 A 
ATOM      5  C   UNL d   1      50.438  34.161  53.197  0.00  0.00     0.020 A 
ATOM      6  C   UNL d   1      50.746  34.436  51.893  0.00  0.00     0.020 A 
ENDROOT
BRANCH   4   7
ATOM      7  N   UNL d   1      49.503  34.559  52.294  0.00  0.00    -0.208 NA
ATOM      8  C   UNL d   1      49.121  35.184  52.686  0.00  0.00     0.285 C 
ATOM      9  O   UNL d   1      49.525  35.620  53.275  0.00  0.00    -0.265 OA
BRANCH   8  10
ATOM     10  C   UNL d   1      48.330  35.383  52.498  0.00  0.00     0.089 A 
ATOM     11  C   UNL d   1      47.901  35.119  51.844  0.00  0.00     0.018 A 
ATOM     12  C   UNL d   1      47.135  35.460  51.882  0.00  0.00     0.081 A 
ATOM     13  C   UNL d   1      47.102  35.937  52.569  0.00  0.00     0.117 A 
ATOM     14  C   UNL d   1      46.475  35.396  51.384  0.00  0.00     0.268 A 
ATOM     15  N   UNL d   1      46.405  36.344  52.747  0.00  0.00    -0.221 NA
ATOM     16  S   UNL d   1      47.839  35.889  52.949  0.00  0.00    -0.063 SA
ATOM     17  C   UNL d   1      45.737  36.285  52.251  0.00  0.00     0.151 A 
ATOM     18  N   UNL d   1      45.778  35.810  51.572  0.00  0.00    -0.258 N 
ATOM     19  C   UNL d   1      45.043  36.693  52.433  0.00  0.00     0.038 A 
ATOM     20  C   UNL d   1      45.111  35.744  51.065  0.00  0.00     0.084 A 
ATOM     21  C   UNL d   1      44.416  36.162  51.261  0.00  0.00     0.019 A 
ATOM     22  C   UNL d   1      44.383  36.634  51.942  0.00  0.00     0.005 A 
ATOM     23  O   UNL d   1      46.509  34.919  50.697  0.00  0.00    -0.267 OA
ENDBRANCH   8  10
ENDBRANCH   4   7
BRANCH   1  24
ATOM     24  S   UNL d   1      52.454  33.866  52.922  0.00  0.00     0.287 S 
ATOM     25  O   UNL d   1      53.385  34.117  53.396  0.00  0.00    -0.198 OA
ATOM     26  O   UNL d   1      52.517  34.767  53.514  0.00  0.00    -0.198 OA
BRANCH  24  27
ATOM     27  N   UNL d   1      52.881  33.040  52.543  0.00  0.00    -0.139 NA
BRANCH  27  28
ATOM     28  C   UNL d   1      53.089  32.467  53.021  0.00  0.00     0.178 A 
ATOM     29  N   UNL d   1      52.888  31.704  52.791  0.00  0.00    -0.207 NA
ATOM     30  C   UNL d   1      53.113  31.110  53.303  0.00  0.00     0.164 A 
ATOM     31  C   UNL d   1      52.932  30.402  53.101  0.00  0.00     0.042 C 
ATOM     32  N   UNL d   1      53.524  31.262  54.020  0.00  0.00    -0.227 NA
ATOM     33  C   UNL d   1      53.717  32.026  54.234  0.00  0.00     0.086 A 
ATOM     34  C   UNL d   1      53.498  32.626  53.732  0.00  0.00     0.059 A 
ATOM     35  C   UNL d   1      54.085  32.165  54.875  0.00  0.00     0.021 C 
ENDBRANCH  27  28
ENDBRANCH  24  27
ENDBRANCH   1  24
TORSDOF 5
ENDMDL
MODEL 2
REMARK VINA RESULT:     -10.5      1.400      1.935
REMARK  5 active torsions:
REMARK  status: ('A' for Active; 'I' for Inactive)
REMARK    1  A    between atoms: S_3  and  C_17 
REMARK    2  A    between atoms: N_11  and  S_3 
REMARK    3  A    between atoms: C_13  and  C_10 
REMARK    4  A    between atoms: C_12  and  N_11 
REMARK       I    between atoms: N_19  and  C_13 
REMARK    5  A    between atoms: C_31  and  N_19 
ROOT
ATOM      1  C   UNL d   1      51.682  33.585  52.960  0.00  0.00     0.105 A 
ATOM      2  C   UNL d   1      51.033  33.286  53.288  0.00  0.00     0.015 A 
ATOM      3  C   UNL d   1      51.623  34.151  52.385  0.00  0.00     0.015 A 
ATOM      4  C   UNL d   1      50.266  34.086  52.499  0.00  0.00     0.085 A 
ATOM      5  C   UNL d   1      50.912  34.386  52.170  0.00  0.00     0.020 A 
ATOM      6  C   UNL d   1      50.298  33.542  53.053  0.00  0.00     0.020 A 
ENDROOT
BRANCH   4   7
ATOM      7  N   UNL d   1      49.560  34.313  52.291  0.00  0.00    -0.208 NA
ATOM      8  C   UNL d   1      49.244  35.016  52.601  0.00  0.00     0.285 C 
ATOM      9  O   UNL d   1      49.691  35.477  53.137  0.00  0.00    -0.265 OA
BRANCH   8  10
ATOM     10  C   UNL d   1      48.477  35.271  52.380  0.00  0.00     0.089 A 
ATOM     11  C   UNL d   1      47.965  35.730  52.836  0.00  0.00     0.018 A 
ATOM     12  C   UNL d   1      47.261  35.848  52.394  0.00  0.00     0.081 A 
ATOM     13  C   UNL d   1      47.351  35.455  51.660  0.00  0.00     0.117 A 
ATOM     14  C   UNL d   1      46.562  36.259  52.566  0.00  0.00     0.268 A 
ATOM     15  N   UNL d   1      46.737  35.479  51.108  0.00  0.00    -0.221 NA
ATOM     16  S   UNL d   1      48.102  35.099  51.653  0.00  0.00    -0.063 SA
ATOM     17  C   UNL d   1      46.030  35.890  51.274  0.00  0.00     0.151 A 
ATOM     18  N   UNL d   1      45.948  36.278  52.002  0.00  0.00    -0.258 N 
ATOM     19  C   UNL d   1      45.419  35.912  50.719  0.00  0.00     0.038 A 
ATOM     20  C   UNL d   1      45.240  36.695  52.179  0.00  0.00     0.084 A 
ATOM     21  C   UNL d   1      44.631  36.708  51.610  0.00  0.00     0.019 A 
ATOM     22  C   UNL d   1      44.721  36.319  50.883  0.00  0.00     0.005 A 
ATOM     23  O   UNL d   1      46.472  36.653  53.299  0.00  0.00    -0.267 OA
ENDBRANCH   8  10
ENDBRANCH   4   7
BRANCH   1  24
ATOM     24  S   UNL d   1      52.358  33.338  53.188  0.00  0.00     0.287 S 
ATOM     25  O   UNL d   1      53.348  33.000  52.945  0.00  0.00    -0.198 OA
ATOM     26  O   UNL d   1      52.653  33.277  52.151  0.00  0.00    -0.198 OA
BRANCH  24  27
ATOM     27  N   UNL d   1      52.568  33.225  54.163  0.00  0.00    -0.139 NA
BRANCH  27  28
ATOM     28  C   UNL d   1      53.130  33.651  54.482  0.00  0.00     0.178 A 
ATOM     29  N   UNL d   1      52.951  34.437  54.641  0.00  0.00    -0.207 NA
ATOM     30  C   UNL d   1      53.552  34.876  54.977  0.00  0.00     0.164 A 
ATOM     31  C   UNL d   1      53.397  35.603  55.127  0.00  0.00     0.042 C 
ATOM     32  N   UNL d   1      54.307  34.551  55.151  0.00  0.00    -0.227 NA
ATOM     33  C   UNL d   1      54.469  33.768  54.987  0.00  0.00     0.086 A 
ATOM     34  C   UNL d   1      53.879  33.321  54.653  0.00  0.00     0.059 A 
ATOM     35  C   UNL d   1      55.144  33.473  55.142  0.00  0.00     0.021 C 
ENDBRANCH  27  28
ENDBRANCH  24  27
ENDBRANCH   1  24
TORSDOF 5
ENDMDL
MODEL 3
REMARK VINA RESULT:      -9.7      1.216      7.213
REMARK  5 active torsions:
REMARK  status: ('A' for Active; 'I' for Inactive)
REMARK    1  A    between atoms: S_3  and  C_17 
REMARK    2  A    between atoms: N_11  and  S_3 
REMARK    3  A    between atoms: C_13  and  C_10 
REMARK    4  A    between atoms: C_12  and  N_11 
REMARK       I    between atoms: N_19  and  C_13 
REMARK    5  A    between atoms: C_31  and  N_19 
ROOT
ATOM      1  C   UNL d   1      48.037  35.202  51.939  0.00  0.00     0.105 A 
ATOM      2  C   UNL d   1      48.411  34.522  51.809  0.00  0.00     0.015 A 
ATOM      3  C   UNL d   1      48.321  35.723  52.488  0.00  0.00     0.015 A 
ATOM      4  C   UNL d   1      49.338  34.853  52.748  0.00  0.00     0.085 A 
ATOM      5  C   UNL d   1      48.967  35.532  52.879  0.00  0.00     0.020 A 
ATOM      6  C   UNL d   1      49.083  34.337  52.225  0.00  0.00     0.020 A 
ENDROOT
BRANCH   4   7
ATOM      7  N   UNL d   1      49.976  34.657  53.131  0.00  0.00    -0.208 NA
ATOM      8  C   UNL d   1      50.687  34.539  52.718  0.00  0.00     0.285 C 
ATOM      9  O   UNL d   1      50.710  34.631  51.886  0.00  0.00    -0.265 OA
BRANCH   8  10
ATOM     10  C   UNL d   1      51.386  34.326  53.126  0.00  0.00     0.089 A 
ATOM     11  C   UNL d   1      51.941  34.844  53.449  0.00  0.00     0.018 A 
ATOM     12  C   UNL d   1      52.547  34.386  53.804  0.00  0.00     0.081 A 
ATOM     13  C   UNL d   1      52.356  33.579  53.693  0.00  0.00     0.117 A 
ATOM     14  C   UNL d   1      53.239  34.600  54.208  0.00  0.00     0.268 A 
ATOM     15  N   UNL d   1      52.862  32.996  53.989  0.00  0.00    -0.221 NA
ATOM     16  S   UNL d   1      51.639  33.542  53.274  0.00  0.00    -0.063 SA
ATOM     17  C   UNL d   1      53.560  33.204  54.396  0.00  0.00     0.151 A 
ATOM     18  N   UNL d   1      53.743  34.005  54.503  0.00  0.00    -0.258 N 
ATOM     19  C   UNL d   1      54.062  32.619  54.690  0.00  0.00     0.038 A 
ATOM     20  C   UNL d   1      54.443  34.225  54.912  0.00  0.00     0.084 A 
ATOM     21  C   UNL d   1      54.942  33.624  55.203  0.00  0.00     0.019 A 
ATOM     22  C   UNL d   1      54.752  32.825  55.093  0.00  0.00     0.005 A 
ATOM     23  O   UNL d   1      53.431  35.407  54.319  0.00  0.00    -0.267 OA
ENDBRANCH   8  10
ENDBRANCH   4   7
BRANCH   1  24
ATOM     24  S   UNL d   1      47.413  35.361  51.545  0.00  0.00     0.287 S 
ATOM     25  O   UNL d   1      46.806  35.202  50.673  0.00  0.00    -0.198 OA
ATOM     26  O   UNL d   1      47.744  34.659  50.793  0.00  0.00    -0.198 OA
BRANCH  24  27
ATOM     27  N   UNL d   1      46.739  36.024  51.882  0.00  0.00    -0.139 NA
BRANCH  27  28
ATOM     28  C   UNL d   1      46.003  35.803  51.972  0.00  0.00     0.178 A 
ATOM     29  N   UNL d   1      45.532  35.806  51.298  0.00  0.00    -0.207 NA
ATOM     30  C   UNL d   1      44.758  35.571  51.407  0.00  0.00     0.164 A 
ATOM     31  C   UNL d   1      44.314  35.571  50.793  0.00  0.00     0.042 C 
ATOM     32  N   UNL d   1      44.456  35.340  52.157  0.00  0.00    -0.227 NA
ATOM     33  C   UNL d   1      44.937  35.342  52.816  0.00  0.00     0.086 A 
ATOM     34  C   UNL d   1      45.709  35.573  52.720  0.00  0.00     0.059 A 
ATOM     35  C   UNL d   1      44.670  35.135  53.488  0.00  0.00     0.021 C 
ENDBRANCH  27  28
ENDBRANCH  24  27
ENDBRANCH   1  24
TORSDOF 5
ENDMDL
