MODEL 1
REMARK VINA RESULT:      -4.6      0.000      0.000
REMARK  7 active torsions:
REMARK  status: ('A' for Active; 'I' for Inactive)
REMARK    1  A    between atoms: C_6  and  C_1 
REMARK    2  A    between atoms: C_8  and  N_3 
REMARK    3  A    between atoms: O_7  and  C_6 
REMARK    4  A    between atoms: C_9  and  O_7 
REMARK    5  A    between atoms: C_19  and  C_8 
REMARK    6  A    between atoms: O_16  and  C_10 
REMARK    7  A    between atoms: O_18  and  C_19 
ROOT
ATOM      1  C   UNL d   1      58.499  -0.487  30.062  0.00  0.00     0.173 A 
ATOM      2  N   UNL d   1      58.983   0.156  30.275  0.00  0.00    -0.225 NA
ATOM      3  N   UNL d   1      58.850  -0.872  29.405  0.00  0.00    -0.286 N 
ATOM      4  C   UNL d   1      59.556  -0.461  29.213  0.00  0.00     0.083 A 
ATOM      5  C   UNL d   1      59.632   0.171  29.754  0.00  0.00     0.099 A 
ATOM      6  C   UNL d   1      60.132  -0.569  28.634  0.00  0.00     0.019 A 
ATOM      7  C   UNL d   1      60.282   0.682  29.704  0.00  0.00     0.021 A 
ATOM      8  C   UNL d   1      60.779  -0.060  28.586  0.00  0.00     0.002 A 
ATOM      9  C   UNL d   1      60.854   0.566  29.121  0.00  0.00     0.002 A 
ENDROOT
BRANCH   1  10
ATOM     10  C   UNL d   1      57.841  -0.544  30.551  0.00  0.00     0.160 C 
BRANCH  10  11
ATOM     11  O   UNL d   1      57.741  -0.013  31.179  0.00  0.00    -0.302 OA
BRANCH  11  12
ATOM     12  C   UNL d   1      57.102  -0.093  31.694  0.00  0.00     0.100 A 
ATOM     13  C   UNL d   1      56.845  -0.846  31.904  0.00  0.00     0.027 A 
ATOM     14  C   UNL d   1      56.206  -0.927  32.419  0.00  0.00     0.026 A 
ATOM     15  C   UNL d   1      55.826  -0.255  32.721  0.00  0.00     0.094 A 
ATOM     16  C   UNL d   1      56.087   0.493  32.507  0.00  0.00     0.026 A 
ATOM     17  C   UNL d   1      56.727   0.574  31.992  0.00  0.00     0.027 A 
BRANCH  15  18
ATOM     18  O   UNL d   1      55.189  -0.337  33.234  0.00  0.00    -0.328 OA
ATOM     19  C   UNL d   1      54.993   0.272  33.757  0.00  0.00     0.181 C 
ENDBRANCH  15  18
ENDBRANCH  11  12
ENDBRANCH  10  11
ENDBRANCH   1  10
BRANCH   3  20
ATOM     20  C   UNL d   1      58.558  -1.533  29.015  0.00  0.00     0.108 C 
BRANCH  20  21
ATOM     21  C   UNL d   1      58.793  -2.293  29.246  0.00  0.00     0.135 C 
BRANCH  21  22
ATOM     22  O   UNL d   1      58.468  -2.951  28.883  0.00  0.00    -0.325 OA
ATOM     23  C   UNL d   1      58.908  -3.642  28.813  0.00  0.00     0.182 C 
ENDBRANCH  21  22
ENDBRANCH  20  21
ENDBRANCH   3  20
TORSDOF 7
ENDMDL
MODEL 2
REMARK VINA RESULT:      -2.2      0.993      2.207
REMARK  7 active torsions:
REMARK  status: ('A' for Active; 'I' for Inactive)
REMARK    1  A    between atoms: C_6  and  C_1 
REMARK    2  A    between atoms: C_8  and  N_3 
REMARK    3  A    between atoms: O_7  and  C_6 
REMARK    4  A    between atoms: C_9  and  O_7 
REMARK    5  A    between atoms: C_19  and  C_8 
REMARK    6  A    between atoms: O_16  and  C_10 
REMARK    7  A    between atoms: O_18  and  C_19 
ROOT
ATOM      1  C   UNL d   1      58.475  -0.606  30.186  0.00  0.00     0.173 A 
ATOM      2  N   UNL d   1      58.291  -1.407  30.053  0.00  0.00    -0.225 NA
ATOM      3  N   UNL d   1      59.153  -0.416  29.730  0.00  0.00    -0.286 N 
ATOM      4  C   UNL d   1      59.386  -1.107  29.314  0.00  0.00     0.083 A 
ATOM      5  C   UNL d   1      58.850  -1.713  29.518  0.00  0.00     0.099 A 
ATOM      6  C   UNL d   1      59.999  -1.268  28.787  0.00  0.00     0.019 A 
ATOM      7  C   UNL d   1      58.938  -2.469  29.191  0.00  0.00     0.021 A 
ATOM      8  C   UNL d   1      60.085  -2.021  28.463  0.00  0.00     0.002 A 
ATOM      9  C   UNL d   1      59.554  -2.622  28.665  0.00  0.00     0.002 A 
ENDROOT
BRANCH   1  10
ATOM     10  C   UNL d   1      57.948  -0.258  30.711  0.00  0.00     0.160 C 
BRANCH  10  11
ATOM     11  O   UNL d   1      57.296  -0.685  30.992  0.00  0.00    -0.302 OA
BRANCH  11  12
ATOM     12  C   UNL d   1      56.858  -0.403  31.631  0.00  0.00     0.100 A 
ATOM     13  C   UNL d   1      56.680   0.399  31.675  0.00  0.00     0.027 A 
ATOM     14  C   UNL d   1      56.242   0.682  32.314  0.00  0.00     0.026 A 
ATOM     15  C   UNL d   1      55.984   0.162  32.906  0.00  0.00     0.094 A 
ATOM     16  C   UNL d   1      56.165  -0.637  32.856  0.00  0.00     0.026 A 
ATOM     17  C   UNL d   1      56.603  -0.920  32.216  0.00  0.00     0.027 A 
BRANCH  15  18
ATOM     18  O   UNL d   1      55.547   0.445  33.543  0.00  0.00    -0.328 OA
ATOM     19  C   UNL d   1      55.137  -0.078  34.033  0.00  0.00     0.181 C 
ENDBRANCH  15  18
ENDBRANCH  11  12
ENDBRANCH  10  11
ENDBRANCH   1  10
BRANCH   3  20
ATOM     20  C   UNL d   1      59.526   0.316  29.694  0.00  0.00     0.108 C 
BRANCH  20  21
ATOM     21  C   UNL d   1      59.889   0.634  30.367  0.00  0.00     0.135 C 
BRANCH  21  22
ATOM     22  O   UNL d   1      60.704   0.602  30.447  0.00  0.00    -0.325 OA
ATOM     23  C   UNL d   1      61.048   0.682  31.190  0.00  0.00     0.182 C 
ENDBRANCH  21  22
ENDBRANCH  20  21
ENDBRANCH   3  20
TORSDOF 7
ENDMDL
