MODEL 1
REMARK VINA RESULT:      39.1      0.000      0.000
REMARK  6 active torsions:
REMARK  status: ('A' for Active; 'I' for Inactive)
REMARK    1  A    between atoms: C_5  and  N_1 
REMARK    2  A    between atoms: C_8  and  C_2 
REMARK    3  A    between atoms: C_3  and  O_4 
REMARK    4  A    between atoms: O_4  and  C_9 
REMARK    5  A    between atoms: C_7  and  C_5 
REMARK    6  A    between atoms: C_9  and  C_7 
ROOT
ATOM      1  O   UNL d   1      58.980  49.642  50.665  0.00  0.00    -0.302 OA
ENDROOT
BRANCH   1   2
ATOM      2  C   UNL d   1      58.334  49.659  50.160  0.00  0.00     0.100 A 
ATOM      3  C   UNL d   1      57.569  49.653  50.467  0.00  0.00     0.023 A 
ATOM      4  C   UNL d   1      56.922  49.670  49.962  0.00  0.00     0.002 A 
ATOM      5  C   UNL d   1      57.037  49.694  49.143  0.00  0.00     0.000 A 
ATOM      6  C   UNL d   1      57.798  49.700  48.834  0.00  0.00     0.002 A 
ATOM      7  C   UNL d   1      58.449  49.682  49.341  0.00  0.00     0.025 A 
BRANCH   3   8
ATOM      8  C   UNL d   1      57.455  49.630  51.282  0.00  0.00     0.002 C 
ATOM      9  C   UNL d   1      56.695  49.708  51.594  0.00  0.00     0.000 C 
ATOM     10  C   UNL d   1      58.097  49.529  51.785  0.00  0.00     0.000 C 
ENDBRANCH   3   8
ENDBRANCH   1   2
BRANCH   1  11
ATOM     11  C   UNL d   1      59.741  49.703  50.356  0.00  0.00     0.166 C 
BRANCH  11  12
ATOM     12  C   UNL d   1      60.389  49.436  50.797  0.00  0.00     0.238 C 
ATOM     13  O   UNL d   1      60.468  49.661  51.584  0.00  0.00    -0.283 OA
BRANCH  12  14
ATOM     14  C   UNL d   1      60.953  48.950  50.450  0.00  0.00     0.125 C 
BRANCH  14  15
ATOM     15  N   UNL d   1      60.991  48.151  50.654  0.00  0.00    -0.296 N 
ATOM     16  C   UNL d   1      60.553  47.873  51.298  0.00  0.00     0.107 A 
ATOM     17  C   UNL d   1      60.590  47.078  51.503  0.00  0.00     0.142 A 
ATOM     18  O   UNL d   1      61.062  46.561  51.066  0.00  0.00    -0.300 OA
ATOM     19  C   UNL d   1      61.495  46.842  50.426  0.00  0.00     0.142 A 
ATOM     20  C   UNL d   1      61.459  47.641  50.219  0.00  0.00     0.107 A 
ENDBRANCH  14  15
ENDBRANCH  12  14
ENDBRANCH  11  12
ENDBRANCH   1  11
TORSDOF 6
ENDMDL
