MODEL 1
REMARK VINA RESULT:      -6.7      0.000      0.000
REMARK  4 active torsions:
REMARK  status: ('A' for Active; 'I' for Inactive)
REMARK    1  A    between atoms: C_3  and  C_1 
REMARK       I    between atoms: N_6  and  C_3 
REMARK    2  A    between atoms: C_12  and  N_5 
REMARK    3  A    between atoms: C_8  and  N_6 
REMARK    4  A    between atoms: S_11  and  C_10 
ROOT
ATOM      1  C   UNL d   1     -48.409  13.443  22.451  0.00  0.00     0.348 C 
ATOM      2  N   UNL d   1     -48.921  13.920  22.905  0.00  0.00    -0.363 NA
ATOM      3  O   UNL d   1     -48.563  13.322  21.622  0.00  0.00    -0.249 OA
ENDROOT
BRANCH   1   4
ATOM      4  C   UNL d   1     -47.748  13.089  22.820  0.00  0.00     0.173 A 
ATOM      5  N   UNL d   1     -47.688  12.290  23.048  0.00  0.00    -0.159 NA
ATOM      6  N   UNL d   1     -46.936  12.188  23.391  0.00  0.00    -0.227 N 
ATOM      7  C   UNL d   1     -46.543  12.911  23.371  0.00  0.00     0.102 A 
ATOM      8  C   UNL d   1     -47.041  13.472  23.019  0.00  0.00     0.048 A 
BRANCH   6   9
ATOM      9  C   UNL d   1     -46.638  11.479  23.697  0.00  0.00     0.101 C 
ATOM     10  C   UNL d   1     -45.925  11.069  23.624  0.00  0.00     0.022 C 
ENDBRANCH   6   9
ENDBRANCH   1   4
BRANCH   2  11
ATOM     11  C   UNL d   1     -49.596  14.452  23.151  0.00  0.00     0.141 A 
ATOM     12  C   UNL d   1     -50.288  14.096  23.413  0.00  0.00     0.055 A 
ATOM     13  C   UNL d   1     -50.910  14.555  23.640  0.00  0.00     0.009 A 
ATOM     14  C   UNL d   1     -50.849  15.379  23.606  0.00  0.00     0.001 A 
ATOM     15  C   UNL d   1     -50.162  15.724  23.345  0.00  0.00     0.003 A 
ATOM     16  C   UNL d   1     -49.533  15.252  23.117  0.00  0.00     0.033 A 
BRANCH  12  17
ATOM     17  S   UNL d   1     -50.354  13.270  23.449  0.00  0.00    -0.110 SA
ATOM     18  C   UNL d   1     -51.061  12.904  23.698  0.00  0.00     0.074 C 
ENDBRANCH  12  17
ENDBRANCH   2  11
TORSDOF 4
ENDMDL
MODEL 2
REMARK VINA RESULT:      -6.1      1.647      2.057
REMARK  4 active torsions:
REMARK  status: ('A' for Active; 'I' for Inactive)
REMARK    1  A    between atoms: C_3  and  C_1 
REMARK       I    between atoms: N_6  and  C_3 
REMARK    2  A    between atoms: C_12  and  N_5 
REMARK    3  A    between atoms: C_8  and  N_6 
REMARK    4  A    between atoms: S_11  and  C_10 
ROOT
ATOM      1  C   UNL d   1     -48.425  13.374  21.965  0.00  0.00     0.348 C 
ATOM      2  N   UNL d   1     -48.964  13.106  22.541  0.00  0.00    -0.363 NA
ATOM      3  O   UNL d   1     -48.662  13.424  21.148  0.00  0.00    -0.249 OA
ENDROOT
BRANCH   1   4
ATOM      4  C   UNL d   1     -47.653  13.592  22.201  0.00  0.00     0.173 A 
ATOM      5  N   UNL d   1     -46.972  13.118  22.136  0.00  0.00    -0.159 NA
ATOM      6  N   UNL d   1     -46.334  13.560  22.437  0.00  0.00    -0.227 N 
ATOM      7  C   UNL d   1     -46.620  14.292  22.682  0.00  0.00     0.102 A 
ATOM      8  C   UNL d   1     -47.435  14.317  22.538  0.00  0.00     0.048 A 
BRANCH   6   9
ATOM      9  C   UNL d   1     -45.547  13.304  22.482  0.00  0.00     0.101 C 
ATOM     10  C   UNL d   1     -45.017  12.961  21.950  0.00  0.00     0.022 C 
ENDBRANCH   6   9
ENDBRANCH   1   4
BRANCH   2  11
ATOM     11  C   UNL d   1     -49.705  12.799  22.938  0.00  0.00     0.141 A 
ATOM     12  C   UNL d   1     -49.658  12.080  23.331  0.00  0.00     0.055 A 
ATOM     13  C   UNL d   1     -50.313  11.784  23.695  0.00  0.00     0.009 A 
ATOM     14  C   UNL d   1     -51.025  12.204  23.673  0.00  0.00     0.001 A 
ATOM     15  C   UNL d   1     -51.063  12.915  23.282  0.00  0.00     0.003 A 
ATOM     16  C   UNL d   1     -50.394  13.211  22.913  0.00  0.00     0.033 A 
BRANCH  12  17
ATOM     17  S   UNL d   1     -48.947  11.654  23.357  0.00  0.00    -0.110 SA
ATOM     18  C   UNL d   1     -48.912  10.893  23.695  0.00  0.00     0.074 C 
ENDBRANCH  12  17
ENDBRANCH   2  11
TORSDOF 4
ENDMDL
MODEL 3
REMARK VINA RESULT:      -5.7      9.038     10.391
REMARK  4 active torsions:
REMARK  status: ('A' for Active; 'I' for Inactive)
REMARK    1  A    between atoms: C_3  and  C_1 
REMARK       I    between atoms: N_6  and  C_3 
REMARK    2  A    between atoms: C_12  and  N_5 
REMARK    3  A    between atoms: C_8  and  N_6 
REMARK    4  A    between atoms: S_11  and  C_10 
ROOT
ATOM      1  C   UNL d   1     -40.375  14.298  18.337  0.00  0.00     0.348 C 
ATOM      2  N   UNL d   1     -40.236  14.747  19.025  0.00  0.00    -0.363 NA
ATOM      3  O   UNL d   1     -41.015  13.735  18.317  0.00  0.00    -0.249 OA
ENDROOT
BRANCH   1   4
ATOM      4  C   UNL d   1     -39.880  14.407  17.672  0.00  0.00     0.173 A 
ATOM      5  N   UNL d   1     -39.305  13.869  17.400  0.00  0.00    -0.159 NA
ATOM      6  N   UNL d   1     -38.951  14.208  16.727  0.00  0.00    -0.227 N 
ATOM      7  C   UNL d   1     -39.303  14.940  16.590  0.00  0.00     0.102 A 
ATOM      8  C   UNL d   1     -39.878  15.067  17.173  0.00  0.00     0.048 A 
BRANCH   6   9
ATOM      9  C   UNL d   1     -38.348  13.865  16.275  0.00  0.00     0.101 C 
ATOM     10  C   UNL d   1     -38.159  13.852  15.472  0.00  0.00     0.022 C 
ENDBRANCH   6   9
ENDBRANCH   1   4
BRANCH   2  11
ATOM     11  C   UNL d   1     -40.302  15.084  19.851  0.00  0.00     0.141 A 
ATOM     12  C   UNL d   1     -39.760  14.830  20.413  0.00  0.00     0.055 A 
ATOM     13  C   UNL d   1     -39.801  15.120  21.163  0.00  0.00     0.009 A 
ATOM     14  C   UNL d   1     -40.385  15.670  21.363  0.00  0.00     0.001 A 
ATOM     15  C   UNL d   1     -40.918  15.916  20.802  0.00  0.00     0.003 A 
ATOM     16  C   UNL d   1     -40.872  15.618  20.041  0.00  0.00     0.033 A 
BRANCH  12  17
ATOM     17  S   UNL d   1     -39.171  14.279  20.218  0.00  0.00    -0.110 SA
ATOM     18  C   UNL d   1     -38.612  14.028  20.782  0.00  0.00     0.074 C 
ENDBRANCH  12  17
ENDBRANCH   2  11
TORSDOF 4
ENDMDL
MODEL 4
REMARK VINA RESULT:      -5.5      9.471     11.085
REMARK  4 active torsions:
REMARK  status: ('A' for Active; 'I' for Inactive)
REMARK    1  A    between atoms: C_3  and  C_1 
REMARK       I    between atoms: N_6  and  C_3 
REMARK    2  A    between atoms: C_12  and  N_5 
REMARK    3  A    between atoms: C_8  and  N_6 
REMARK    4  A    between atoms: S_11  and  C_10 
ROOT
ATOM      1  C   UNL d   1     -40.388  14.387  18.402  0.00  0.00     0.348 C 
ATOM      2  N   UNL d   1     -39.663  14.225  18.023  0.00  0.00    -0.363 NA
ATOM      3  O   UNL d   1     -41.112  14.060  18.095  0.00  0.00    -0.249 OA
ENDROOT
BRANCH   1   4
ATOM      4  C   UNL d   1     -40.393  14.873  19.082  0.00  0.00     0.173 A 
ATOM      5  N   UNL d   1     -40.047  14.686  19.816  0.00  0.00    -0.159 NA
ATOM      6  N   UNL d   1     -40.189  15.329  20.326  0.00  0.00    -0.227 N 
ATOM      7  C   UNL d   1     -40.613  15.899  19.911  0.00  0.00     0.102 A 
ATOM      8  C   UNL d   1     -40.742  15.622  19.140  0.00  0.00     0.048 A 
BRANCH   6   9
ATOM      9  C   UNL d   1     -39.943  15.383  21.115  0.00  0.00     0.101 C 
ATOM     10  C   UNL d   1     -39.492  15.921  21.548  0.00  0.00     0.022 C 
ENDBRANCH   6   9
ENDBRANCH   1   4
BRANCH   2  11
ATOM     11  C   UNL d   1     -39.051  13.909  17.453  0.00  0.00     0.141 A 
ATOM     12  C   UNL d   1     -38.774  14.416  16.870  0.00  0.00     0.055 A 
ATOM     13  C   UNL d   1     -38.223  14.152  16.345  0.00  0.00     0.009 A 
ATOM     14  C   UNL d   1     -37.941  13.377  16.394  0.00  0.00     0.001 A 
ATOM     15  C   UNL d   1     -38.221  12.881  16.974  0.00  0.00     0.003 A 
ATOM     16  C   UNL d   1     -38.781  13.154  17.505  0.00  0.00     0.033 A 
BRANCH  12  17
ATOM     17  S   UNL d   1     -39.052  15.195  16.815  0.00  0.00    -0.110 SA
ATOM     18  C   UNL d   1     -38.737  15.727  16.256  0.00  0.00     0.074 C 
ENDBRANCH  12  17
ENDBRANCH   2  11
TORSDOF 4
ENDMDL
MODEL 5
REMARK VINA RESULT:      -5.5      8.747     10.286
REMARK  4 active torsions:
REMARK  status: ('A' for Active; 'I' for Inactive)
REMARK    1  A    between atoms: C_3  and  C_1 
REMARK       I    between atoms: N_6  and  C_3 
REMARK    2  A    between atoms: C_12  and  N_5 
REMARK    3  A    between atoms: C_8  and  N_6 
REMARK    4  A    between atoms: S_11  and  C_10 
ROOT
ATOM      1  C   UNL d   1     -40.421  14.379  18.449  0.00  0.00     0.348 C 
ATOM      2  N   UNL d   1     -40.074  14.562  19.185  0.00  0.00    -0.363 NA
ATOM      3  O   UNL d   1     -40.914  13.688  18.370  0.00  0.00    -0.249 OA
ENDROOT
BRANCH   1   4
ATOM      4  C   UNL d   1     -40.278  14.879  17.795  0.00  0.00     0.173 A 
ATOM      5  N   UNL d   1     -39.531  15.077  17.487  0.00  0.00    -0.159 NA
ATOM      6  N   UNL d   1     -39.657  15.587  16.841  0.00  0.00    -0.227 N 
ATOM      7  C   UNL d   1     -40.468  15.698  16.755  0.00  0.00     0.102 A 
ATOM      8  C   UNL d   1     -40.857  15.262  17.343  0.00  0.00     0.048 A 
BRANCH   6   9
ATOM      9  C   UNL d   1     -39.066  15.922  16.368  0.00  0.00     0.101 C 
ATOM     10  C   UNL d   1     -38.307  15.694  16.138  0.00  0.00     0.022 C 
ENDBRANCH   6   9
ENDBRANCH   1   4
BRANCH   2  11
ATOM     11  C   UNL d   1     -39.835  14.530  20.046  0.00  0.00     0.141 A 
ATOM     12  C   UNL d   1     -40.251  14.999  20.576  0.00  0.00     0.055 A 
ATOM     13  C   UNL d   1     -40.053  14.987  21.356  0.00  0.00     0.009 A 
ATOM     14  C   UNL d   1     -39.436  14.505  21.619  0.00  0.00     0.001 A 
ATOM     15  C   UNL d   1     -39.028  14.044  21.089  0.00  0.00     0.003 A 
ATOM     16  C   UNL d   1     -39.233  14.060  20.297  0.00  0.00     0.033 A 
BRANCH  12  17
ATOM     17  S   UNL d   1     -40.872  15.485  20.318  0.00  0.00    -0.110 SA
ATOM     18  C   UNL d   1     -41.331  15.922  20.859  0.00  0.00     0.074 C 
ENDBRANCH  12  17
ENDBRANCH   2  11
TORSDOF 4
ENDMDL
MODEL 6
REMARK VINA RESULT:      -5.0      9.108      9.923
REMARK  4 active torsions:
REMARK  status: ('A' for Active; 'I' for Inactive)
REMARK    1  A    between atoms: C_3  and  C_1 
REMARK       I    between atoms: N_6  and  C_3 
REMARK    2  A    between atoms: C_12  and  N_5 
REMARK    3  A    between atoms: C_8  and  N_6 
REMARK    4  A    between atoms: S_11  and  C_10 
ROOT
ATOM      1  C   UNL d   1     -40.656  14.769  20.230  0.00  0.00     0.348 C 
ATOM      2  N   UNL d   1     -40.460  14.990  19.450  0.00  0.00    -0.363 NA
ATOM      3  O   UNL d   1     -41.302  14.233  20.372  0.00  0.00    -0.249 OA
ENDROOT
BRANCH   1   4
ATOM      4  C   UNL d   1     -40.210  15.080  20.865  0.00  0.00     0.173 A 
ATOM      5  N   UNL d   1     -39.658  14.659  21.324  0.00  0.00    -0.159 NA
ATOM      6  N   UNL d   1     -39.352  15.190  21.889  0.00  0.00    -0.227 N 
ATOM      7  C   UNL d   1     -39.711  15.922  21.776  0.00  0.00     0.102 A 
ATOM      8  C   UNL d   1     -40.243  15.859  21.144  0.00  0.00     0.048 A 
BRANCH   6   9
ATOM      9  C   UNL d   1     -38.784  15.008  22.464  0.00  0.00     0.101 C 
ATOM     10  C   UNL d   1     -38.558  15.343  23.183  0.00  0.00     0.022 C 
ENDBRANCH   6   9
ENDBRANCH   1   4
BRANCH   2  11
ATOM     11  C   UNL d   1     -40.462  15.059  18.558  0.00  0.00     0.141 A 
ATOM     12  C   UNL d   1     -39.935  14.591  18.137  0.00  0.00     0.055 A 
ATOM     13  C   UNL d   1     -39.919  14.637  17.333  0.00  0.00     0.009 A 
ATOM     14  C   UNL d   1     -40.429  15.153  16.938  0.00  0.00     0.001 A 
ATOM     15  C   UNL d   1     -40.947  15.613  17.361  0.00  0.00     0.003 A 
ATOM     16  C   UNL d   1     -40.960  15.562  18.178  0.00  0.00     0.033 A 
BRANCH  12  17
ATOM     17  S   UNL d   1     -39.421  14.071  18.529  0.00  0.00    -0.110 SA
ATOM     18  C   UNL d   1     -38.869  13.610  18.106  0.00  0.00     0.074 C 
ENDBRANCH  12  17
ENDBRANCH   2  11
TORSDOF 4
ENDMDL
MODEL 7
REMARK VINA RESULT:      -4.8      9.126     10.593
REMARK  4 active torsions:
REMARK  status: ('A' for Active; 'I' for Inactive)
REMARK    1  A    between atoms: C_3  and  C_1 
REMARK       I    between atoms: N_6  and  C_3 
REMARK    2  A    between atoms: C_12  and  N_5 
REMARK    3  A    between atoms: C_8  and  N_6 
REMARK    4  A    between atoms: S_11  and  C_10 
ROOT
ATOM      1  C   UNL d   1     -39.812  14.039  17.956  0.00  0.00     0.348 C 
ATOM      2  N   UNL d   1     -39.815  14.237  18.765  0.00  0.00    -0.363 NA
ATOM      3  O   UNL d   1     -40.427  14.331  17.443  0.00  0.00    -0.249 OA
ENDROOT
BRANCH   1   4
ATOM      4  C   UNL d   1     -39.202  13.553  17.657  0.00  0.00     0.173 A 
ATOM      5  N   UNL d   1     -38.968  12.817  17.970  0.00  0.00    -0.159 NA
ATOM      6  N   UNL d   1     -38.343  12.536  17.497  0.00  0.00    -0.227 N 
ATOM      7  C   UNL d   1     -38.198  13.089  16.905  0.00  0.00     0.102 A 
ATOM      8  C   UNL d   1     -38.727  13.720  17.000  0.00  0.00     0.048 A 
BRANCH   6   9
ATOM      9  C   UNL d   1     -37.940  11.821  17.606  0.00  0.00     0.101 C 
ATOM     10  C   UNL d   1     -38.168  11.033  17.695  0.00  0.00     0.022 C 
ENDBRANCH   6   9
ENDBRANCH   1   4
BRANCH   2  11
ATOM     11  C   UNL d   1     -40.043  14.585  19.557  0.00  0.00     0.141 A 
ATOM     12  C   UNL d   1     -39.576  15.188  19.859  0.00  0.00     0.055 A 
ATOM     13  C   UNL d   1     -39.763  15.516  20.571  0.00  0.00     0.009 A 
ATOM     14  C   UNL d   1     -40.421  15.245  20.991  0.00  0.00     0.001 A 
ATOM     15  C   UNL d   1     -40.879  14.648  20.686  0.00  0.00     0.003 A 
ATOM     16  C   UNL d   1     -40.684  14.319  19.962  0.00  0.00     0.033 A 
BRANCH  12  17
ATOM     17  S   UNL d   1     -38.914  15.464  19.442  0.00  0.00    -0.110 SA
ATOM     18  C   UNL d   1     -38.327  15.922  19.818  0.00  0.00     0.074 C 
ENDBRANCH  12  17
ENDBRANCH   2  11
TORSDOF 4
ENDMDL
MODEL 8
REMARK VINA RESULT:      -3.8      9.006      9.982
REMARK  4 active torsions:
REMARK  status: ('A' for Active; 'I' for Inactive)
REMARK    1  A    between atoms: C_3  and  C_1 
REMARK       I    between atoms: N_6  and  C_3 
REMARK    2  A    between atoms: C_12  and  N_5 
REMARK    3  A    between atoms: C_8  and  N_6 
REMARK    4  A    between atoms: S_11  and  C_10 
ROOT
ATOM      1  C   UNL d   1     -40.641  15.000  20.633  0.00  0.00     0.348 C 
ATOM      2  N   UNL d   1     -39.976  15.148  21.114  0.00  0.00    -0.363 NA
ATOM      3  O   UNL d   1     -41.364  14.713  20.982  0.00  0.00    -0.249 OA
ENDROOT
BRANCH   1   4
ATOM      4  C   UNL d   1     -40.588  15.138  19.810  0.00  0.00     0.173 A 
ATOM      5  N   UNL d   1     -40.550  14.551  19.220  0.00  0.00    -0.159 NA
ATOM      6  N   UNL d   1     -40.503  14.943  18.487  0.00  0.00    -0.227 N 
ATOM      7  C   UNL d   1     -40.512  15.754  18.626  0.00  0.00     0.102 A 
ATOM      8  C   UNL d   1     -40.565  15.880  19.444  0.00  0.00     0.048 A 
BRANCH   6   9
ATOM      9  C   UNL d   1     -40.455  14.576  17.746  0.00  0.00     0.101 C 
ATOM     10  C   UNL d   1     -40.153  14.791  17.009  0.00  0.00     0.022 C 
ENDBRANCH   6   9
ENDBRANCH   1   4
BRANCH   2  11
ATOM     11  C   UNL d   1     -39.436  15.220  21.823  0.00  0.00     0.141 A 
ATOM     12  C   UNL d   1     -38.926  14.597  21.981  0.00  0.00     0.055 A 
ATOM     13  C   UNL d   1     -38.430  14.641  22.615  0.00  0.00     0.009 A 
ATOM     14  C   UNL d   1     -38.438  15.309  23.101  0.00  0.00     0.001 A 
ATOM     15  C   UNL d   1     -38.945  15.922  22.938  0.00  0.00     0.003 A 
ATOM     16  C   UNL d   1     -39.447  15.872  22.292  0.00  0.00     0.033 A 
BRANCH  12  17
ATOM     17  S   UNL d   1     -38.913  13.923  21.497  0.00  0.00    -0.110 SA
ATOM     18  C   UNL d   1     -38.337  13.330  21.598  0.00  0.00     0.074 C 
ENDBRANCH  12  17
ENDBRANCH   2  11
TORSDOF 4
ENDMDL
