MODEL 1
REMARK VINA RESULT:      40.3      0.000      0.000
REMARK  5 active torsions:
REMARK  status: ('A' for Active; 'I' for Inactive)
REMARK    1  A    between atoms: N_3  and  C_1 
REMARK       I    between atoms: C_9  and  N_3 
REMARK       I    between atoms: N_5  and  C_8 
REMARK    2  A    between atoms: C_8  and  C_16 
REMARK    3  A    between atoms: C_17  and  C_9 
REMARK    4  A    between atoms: S_13  and  C_17 
REMARK    5  A    between atoms: C_16  and  S_13 
ROOT
ATOM      1  N   UNL d   1      13.597  11.780  -3.564  0.00  0.00    -0.183 NA
ATOM      2  C   UNL d   1      13.180  12.475  -3.742  0.00  0.00     0.287 C 
ATOM      3  O   UNL d   1      12.943  12.982  -3.130  0.00  0.00    -0.265 OA
ENDROOT
BRANCH   2   4
ATOM      4  C   UNL d   1      13.000  12.665  -4.519  0.00  0.00     0.098 C 
BRANCH   4   5
ATOM      5  S   UNL d   1      12.883  13.455  -4.743  0.00  0.00    -0.076 SA
BRANCH   5   6
ATOM      6  C   UNL d   1      13.205  14.066  -4.291  0.00  0.00     0.097 C 
BRANCH   6   7
ATOM      7  C   UNL d   1      13.643  14.664  -4.649  0.00  0.00     0.271 C 
ATOM      8  N   UNL d   1      14.019  15.234  -4.188  0.00  0.00    -0.272 N 
ATOM      9  C   UNL d   1      14.456  15.829  -4.547  0.00  0.00     0.083 A 
ATOM     10  C   UNL d   1      13.958  15.208  -3.361  0.00  0.00     0.083 A 
ATOM     11  C   UNL d   1      14.831  16.397  -4.082  0.00  0.00     0.018 A 
ATOM     12  C   UNL d   1      15.270  16.995  -4.441  0.00  0.00     0.002 C 
ATOM     13  C   UNL d   1      14.765  16.365  -3.259  0.00  0.00     0.003 A 
ATOM     14  C   UNL d   1      14.325  15.766  -2.896  0.00  0.00     0.019 A 
ATOM     15  O   UNL d   1      13.704  14.689  -5.468  0.00  0.00    -0.266 OA
ENDBRANCH   6   7
ENDBRANCH   5   6
ENDBRANCH   4   5
ENDBRANCH   2   4
BRANCH   1  16
ATOM     16  C   UNL d   1      13.671  11.782  -2.740  0.00  0.00     0.182 A 
ATOM     17  N   UNL d   1      14.381  11.784  -2.314  0.00  0.00    -0.283 N 
ATOM     18  C   UNL d   1      14.198  11.785  -1.504  0.00  0.00     0.072 A 
ATOM     19  C   UNL d   1      15.131  11.785  -2.641  0.00  0.00     0.101 C 
ATOM     20  C   UNL d   1      14.665  11.788  -0.830  0.00  0.00     0.017 A 
ATOM     21  C   UNL d   1      13.374  11.784  -1.431  0.00  0.00     0.048 A 
ATOM     22  C   UNL d   1      14.325  11.788  -0.090  0.00  0.00    -0.011 A 
ATOM     23  C   UNL d   1      13.501  11.787  -0.016  0.00  0.00     0.027 A 
ATOM     24  C   UNL d   1      13.018  11.784  -0.682  0.00  0.00    -0.004 A 
ATOM     25  S   UNL d   1      13.046  11.782  -2.194  0.00  0.00    -0.048 SA
ENDBRANCH   1  16
TORSDOF 5
ENDMDL
