MODEL 1
REMARK VINA RESULT:      46.0      0.000      0.000
REMARK  7 active torsions:
REMARK  status: ('A' for Active; 'I' for Inactive)
REMARK    1  A    between atoms: C_13  and  N_1 
REMARK    2  A    between atoms: C_2  and  N_6 
REMARK    3  A    between atoms: C_9  and  C_5 
REMARK       I    between atoms: N_6  and  C_9 
REMARK    4  A    between atoms: S_14  and  C_7 
REMARK    5  A    between atoms: C_21  and  S_14 
REMARK    6  A    between atoms: C_15  and  C_21 
REMARK    7  A    between atoms: O_25  and  C_15 
ROOT
ATOM      1  N   UNL d   1      14.116  14.486  -4.771  0.00  0.00    -0.181 NA
ATOM      2  C   UNL d   1      13.436  14.180  -4.546  0.00  0.00     0.283 C 
ATOM      3  O   UNL d   1      12.769  14.467  -4.827  0.00  0.00    -0.265 OA
ENDROOT
BRANCH   2   4
ATOM      4  C   UNL d   1      13.424  13.592  -4.041  0.00  0.00     0.080 A 
ATOM      5  C   UNL d   1      13.811  13.552  -3.370  0.00  0.00     0.088 A 
ATOM      6  N   UNL d   1      13.644  12.869  -3.037  0.00  0.00    -0.273 N 
ATOM      7  C   UNL d   1      13.157  12.490  -3.500  0.00  0.00     0.265 A 
ATOM      8  C   UNL d   1      13.016  12.935  -4.127  0.00  0.00     0.067 A 
ATOM      9  O   UNL d   1      12.853  11.781  -3.367  0.00  0.00    -0.267 OA
BRANCH   6  10
ATOM     10  C   UNL d   1      13.944  12.597  -2.302  0.00  0.00     0.067 A 
ATOM     11  C   UNL d   1      14.723  12.793  -2.078  0.00  0.00     0.020 A 
ATOM     12  C   UNL d   1      15.014  12.517  -1.343  0.00  0.00     0.031 A 
ATOM     13  C   UNL d   1      14.539  12.058  -0.845  0.00  0.00     0.140 A 
ATOM     14  C   UNL d   1      13.757  11.864  -1.076  0.00  0.00     0.031 A 
ATOM     15  F   UNL d   1      14.835  11.781  -0.106  0.00  0.00    -0.204 F 
ATOM     16  C   UNL d   1      13.463  12.131  -1.797  0.00  0.00     0.020 A 
ENDBRANCH   6  10
ENDBRANCH   2   4
BRANCH   1  17
ATOM     17  C   UNL d   1      14.132  15.075  -5.276  0.00  0.00     0.219 A 
ATOM     18  S   UNL d   1      14.179  15.832  -5.099  0.00  0.00    -0.019 SA
ATOM     19  C   UNL d   1      14.180  16.233  -5.756  0.00  0.00     0.165 A 
ATOM     20  N   UNL d   1      14.133  15.736  -6.354  0.00  0.00    -0.133 NA
ATOM     21  N   UNL d   1      14.103  15.008  -6.052  0.00  0.00    -0.120 NA
BRANCH  19  22
ATOM     22  S   UNL d   1      14.277  17.939  -5.620  0.00  0.00    -0.053 SA
BRANCH  22  23
ATOM     23  C   UNL d   1      13.824  18.425  -6.125  0.00  0.00     0.106 C 
BRANCH  23  24
ATOM     24  C   UNL d   1      13.895  19.266  -6.080  0.00  0.00     0.303 C 
ATOM     25  O   UNL d   1      13.277  19.759  -6.349  0.00  0.00    -0.259 OA
BRANCH  24  26
ATOM     26  O   UNL d   1      14.603  19.595  -5.757  0.00  0.00    -0.295 OA
ATOM     27  C   UNL d   1      14.762  20.404  -5.886  0.00  0.00     0.185 C 
ENDBRANCH  24  26
ENDBRANCH  23  24
ENDBRANCH  22  23
ENDBRANCH  19  22
ENDBRANCH   1  17
TORSDOF 7
ENDMDL
