MODEL 1
REMARK VINA RESULT:      -2.8      0.000      0.000
REMARK  2 active torsions:
REMARK  status: ('A' for Active; 'I' for Inactive)
REMARK    1  A    between atoms: C_6  and  C_1 
REMARK    2  A    between atoms: C_11  and  C_6 
ROOT
ATOM      1  C   UNL d   1      30.599  16.662 -24.184  0.00  0.00     0.059 A 
ATOM      2  C   UNL d   1      30.332  17.279 -24.659  0.00  0.00     0.085 A 
ATOM      3  N   UNL d   1      29.506  17.343 -24.613  0.00  0.00    -0.245 NA
ATOM      4  C   UNL d   1      29.923  16.324 -23.825  0.00  0.00     0.022 A 
ATOM      5  C   UNL d   1      29.250  16.738 -24.085  0.00  0.00     0.082 A 
ATOM      6  C   UNL d   1      30.855  17.734 -25.096  0.00  0.00     0.021 C 
ATOM      7  C   UNL d   1      29.841  15.696 -23.298  0.00  0.00     0.002 A 
ATOM      8  C   UNL d   1      28.496  16.524 -23.818  0.00  0.00     0.019 A 
ATOM      9  C   UNL d   1      29.073  15.490 -23.036  0.00  0.00     0.000 A 
ATOM     10  C   UNL d   1      28.429  15.893 -23.291  0.00  0.00     0.002 A 
ENDROOT
BRANCH   1  11
ATOM     11  C   UNL d   1      31.389  16.428 -24.086  0.00  0.00     0.208 C 
ATOM     12  O   UNL d   1      31.715  15.836 -24.548  0.00  0.00    -0.286 OA
BRANCH  11  13
ATOM     13  C   UNL d   1      31.846  16.793 -23.523  0.00  0.00     0.110 C 
ATOM     14 CL   UNL d   1      32.596  16.526 -23.392  0.00  0.00    -0.078 Cl
ENDBRANCH  11  13
ENDBRANCH   1  11
TORSDOF 2
ENDMDL
MODEL 2
REMARK VINA RESULT:      -2.8      1.073      1.578
REMARK  2 active torsions:
REMARK  status: ('A' for Active; 'I' for Inactive)
REMARK    1  A    between atoms: C_6  and  C_1 
REMARK    2  A    between atoms: C_11  and  C_6 
ROOT
ATOM      1  C   UNL d   1      30.888  16.447 -23.897  0.00  0.00     0.059 A 
ATOM      2  C   UNL d   1      31.104  15.815 -23.416  0.00  0.00     0.085 A 
ATOM      3  N   UNL d   1      30.431  15.454 -23.092  0.00  0.00    -0.245 NA
ATOM      4  C   UNL d   1      30.053  16.490 -23.878  0.00  0.00     0.022 A 
ATOM      5  C   UNL d   1      29.767  15.884 -23.386  0.00  0.00     0.082 A 
ATOM      6  C   UNL d   1      31.891  15.614 -23.309  0.00  0.00     0.021 C 
ATOM      7  C   UNL d   1      29.524  17.004 -24.246  0.00  0.00     0.002 A 
ATOM      8  C   UNL d   1      28.954  15.791 -23.262  0.00  0.00     0.019 A 
ATOM      9  C   UNL d   1      28.704  16.899 -24.112  0.00  0.00     0.000 A 
ATOM     10  C   UNL d   1      28.436  16.313 -23.637  0.00  0.00     0.002 A 
ENDROOT
BRANCH   1  11
ATOM     11  C   UNL d   1      31.407  16.942 -24.316  0.00  0.00     0.208 C 
ATOM     12  O   UNL d   1      31.604  16.784 -25.095  0.00  0.00    -0.286 OA
BRANCH  11  13
ATOM     13  C   UNL d   1      31.723  17.592 -23.947  0.00  0.00     0.110 C 
ATOM     14 CL   UNL d   1      32.183  18.100 -24.373  0.00  0.00    -0.078 Cl
ENDBRANCH  11  13
ENDBRANCH   1  11
TORSDOF 2
ENDMDL
MODEL 3
REMARK VINA RESULT:      -2.8      1.649      2.531
REMARK  2 active torsions:
REMARK  status: ('A' for Active; 'I' for Inactive)
REMARK    1  A    between atoms: C_6  and  C_1 
REMARK    2  A    between atoms: C_11  and  C_6 
ROOT
ATOM      1  C   UNL d   1      29.665  16.737 -24.338  0.00  0.00     0.059 A 
ATOM      2  C   UNL d   1      29.700  17.456 -24.738  0.00  0.00     0.085 A 
ATOM      3  N   UNL d   1      30.469  17.767 -24.710  0.00  0.00    -0.245 NA
ATOM      4  C   UNL d   1      30.435  16.586 -24.046  0.00  0.00     0.022 A 
ATOM      5  C   UNL d   1      30.932  17.214 -24.271  0.00  0.00     0.082 A 
ATOM      6  C   UNL d   1      29.035  17.774 -25.097  0.00  0.00     0.021 C 
ATOM      7  C   UNL d   1      30.739  15.959 -23.608  0.00  0.00     0.002 A 
ATOM      8  C   UNL d   1      31.732  17.214 -24.058  0.00  0.00     0.019 A 
ATOM      9  C   UNL d   1      31.550  15.972 -23.398  0.00  0.00     0.000 A 
ATOM     10  C   UNL d   1      32.022  16.579 -23.618  0.00  0.00     0.002 A 
ENDROOT
BRANCH   1  11
ATOM     11  C   UNL d   1      28.992  16.261 -24.247  0.00  0.00     0.208 C 
ATOM     12  O   UNL d   1      28.830  15.653 -24.771  0.00  0.00    -0.286 OA
BRANCH  11  13
ATOM     13  C   UNL d   1      28.485  16.401 -23.628  0.00  0.00     0.110 C 
ATOM     14 CL   UNL d   1      27.866  15.898 -23.506  0.00  0.00    -0.078 Cl
ENDBRANCH  11  13
ENDBRANCH   1  11
TORSDOF 2
ENDMDL
MODEL 4
REMARK VINA RESULT:      -2.6      1.659      2.917
REMARK  2 active torsions:
REMARK  status: ('A' for Active; 'I' for Inactive)
REMARK    1  A    between atoms: C_6  and  C_1 
REMARK    2  A    between atoms: C_11  and  C_6 
ROOT
ATOM      1  C   UNL d   1      30.096  16.480 -23.965  0.00  0.00     0.059 A 
ATOM      2  C   UNL d   1      30.066  15.841 -23.447  0.00  0.00     0.085 A 
ATOM      3  N   UNL d   1      30.826  15.656 -23.169  0.00  0.00    -0.245 NA
ATOM      4  C   UNL d   1      30.900  16.709 -24.019  0.00  0.00     0.022 A 
ATOM      5  C   UNL d   1      31.351  16.207 -23.533  0.00  0.00     0.082 A 
ATOM      6  C   UNL d   1      29.355  15.476 -23.266  0.00  0.00     0.021 C 
ATOM      7  C   UNL d   1      31.269  17.307 -24.448  0.00  0.00     0.002 A 
ATOM      8  C   UNL d   1      32.171  16.304 -23.477  0.00  0.00     0.019 A 
ATOM      9  C   UNL d   1      32.099  17.394 -24.381  0.00  0.00     0.000 A 
ATOM     10  C   UNL d   1      32.528  16.907 -23.912  0.00  0.00     0.002 A 
ENDROOT
BRANCH   1  11
ATOM     11  C   UNL d   1      29.449  16.824 -24.354  0.00  0.00     0.208 C 
ATOM     12  O   UNL d   1      29.217  16.568 -25.097  0.00  0.00    -0.286 OA
BRANCH  11  13
ATOM     13  C   UNL d   1      29.040  17.425 -23.993  0.00  0.00     0.110 C 
ATOM     14 CL   UNL d   1      28.477  17.824 -24.411  0.00  0.00    -0.078 Cl
ENDBRANCH  11  13
ENDBRANCH   1  11
TORSDOF 2
ENDMDL
MODEL 5
REMARK VINA RESULT:      -2.4      6.203      7.160
REMARK  2 active torsions:
REMARK  status: ('A' for Active; 'I' for Inactive)
REMARK    1  A    between atoms: C_6  and  C_1 
REMARK    2  A    between atoms: C_11  and  C_6 
ROOT
ATOM      1  C   UNL d   1      32.767  21.972 -21.294  0.00  0.00     0.059 A 
ATOM      2  C   UNL d   1      33.029  21.245 -21.576  0.00  0.00     0.085 A 
ATOM      3  N   UNL d   1      33.241  21.303 -22.377  0.00  0.00    -0.245 NA
ATOM      4  C   UNL d   1      32.814  22.510 -21.934  0.00  0.00     0.022 A 
ATOM      5  C   UNL d   1      33.104  22.105 -22.599  0.00  0.00     0.082 A 
ATOM      6  C   UNL d   1      33.055  20.586 -21.090  0.00  0.00     0.021 C 
ATOM      7  C   UNL d   1      32.630  23.311 -21.988  0.00  0.00     0.002 A 
ATOM      8  C   UNL d   1      33.210  22.501 -23.319  0.00  0.00     0.019 A 
ATOM      9  C   UNL d   1      32.741  23.699 -22.721  0.00  0.00     0.000 A 
ATOM     10  C   UNL d   1      33.021  23.303 -23.358  0.00  0.00     0.002 A 
ENDROOT
BRANCH   1  11
ATOM     11  C   UNL d   1      32.508  22.132 -20.522  0.00  0.00     0.208 C 
ATOM     12  O   UNL d   1      31.711  22.130 -20.334  0.00  0.00    -0.286 OA
BRANCH  11  13
ATOM     13  C   UNL d   1      33.054  22.292 -19.943  0.00  0.00     0.110 C 
ATOM     14 CL   UNL d   1      32.798  22.507 -19.209  0.00  0.00    -0.078 Cl
ENDBRANCH  11  13
ENDBRANCH   1  11
TORSDOF 2
ENDMDL
MODEL 6
REMARK VINA RESULT:      -2.3      6.988      7.821
REMARK  2 active torsions:
REMARK  status: ('A' for Active; 'I' for Inactive)
REMARK    1  A    between atoms: C_6  and  C_1 
REMARK    2  A    between atoms: C_11  and  C_6 
ROOT
ATOM      1  C   UNL d   1      32.750  22.528 -20.999  0.00  0.00     0.059 A 
ATOM      2  C   UNL d   1      32.914  21.722 -20.970  0.00  0.00     0.085 A 
ATOM      3  N   UNL d   1      33.126  21.496 -20.200  0.00  0.00    -0.245 NA
ATOM      4  C   UNL d   1      32.861  22.825 -20.225  0.00  0.00     0.022 A 
ATOM      5  C   UNL d   1      33.091  22.197 -19.731  0.00  0.00     0.082 A 
ATOM      6  C   UNL d   1      32.859  21.254 -21.641  0.00  0.00     0.021 C 
ATOM      7  C   UNL d   1      32.781  23.583 -19.914  0.00  0.00     0.002 A 
ATOM      8  C   UNL d   1      33.241  22.327 -18.927  0.00  0.00     0.019 A 
ATOM      9  C   UNL d   1      32.935  23.701 -19.100  0.00  0.00     0.000 A 
ATOM     10  C   UNL d   1      33.156  23.092 -18.630  0.00  0.00     0.002 A 
ENDROOT
BRANCH   1  11
ATOM     11  C   UNL d   1      32.520  22.955 -21.672  0.00  0.00     0.208 C 
ATOM     12  O   UNL d   1      31.729  23.091 -21.837  0.00  0.00    -0.286 OA
BRANCH  11  13
ATOM     13  C   UNL d   1      33.088  23.243 -22.175  0.00  0.00     0.110 C 
ATOM     14 CL   UNL d   1      32.860  23.624 -22.849  0.00  0.00    -0.078 Cl
ENDBRANCH  11  13
ENDBRANCH   1  11
TORSDOF 2
ENDMDL
MODEL 7
REMARK VINA RESULT:      -1.8      2.229      2.795
REMARK  2 active torsions:
REMARK  status: ('A' for Active; 'I' for Inactive)
REMARK    1  A    between atoms: C_6  and  C_1 
REMARK    2  A    between atoms: C_11  and  C_6 
ROOT
ATOM      1  C   UNL d   1      32.273  17.687 -24.242  0.00  0.00     0.059 A 
ATOM      2  C   UNL d   1      31.497  17.630 -24.510  0.00  0.00     0.085 A 
ATOM      3  N   UNL d   1      31.177  16.889 -24.317  0.00  0.00    -0.245 NA
ATOM      4  C   UNL d   1      32.452  16.960 -23.867  0.00  0.00     0.022 A 
ATOM      5  C   UNL d   1      31.784  16.468 -23.910  0.00  0.00     0.082 A 
ATOM      6  C   UNL d   1      31.139  18.251 -24.907  0.00  0.00     0.021 C 
ATOM      7  C   UNL d   1      33.137  16.692 -23.496  0.00  0.00     0.002 A 
ATOM      8  C   UNL d   1      31.800  15.708 -23.582  0.00  0.00     0.019 A 
ATOM      9  C   UNL d   1      33.140  15.921 -23.169  0.00  0.00     0.000 A 
ATOM     10  C   UNL d   1      32.493  15.453 -23.214  0.00  0.00     0.002 A 
ENDROOT
BRANCH   1  11
ATOM     11  C   UNL d   1      32.773  18.343 -24.331  0.00  0.00     0.208 C 
ATOM     12  O   UNL d   1      33.234  18.435 -25.002  0.00  0.00    -0.286 OA
BRANCH  11  13
ATOM     13  C   UNL d   1      32.807  18.901 -23.743  0.00  0.00     0.110 C 
ATOM     14 CL   UNL d   1      33.237  19.574 -23.864  0.00  0.00    -0.078 Cl
ENDBRANCH  11  13
ENDBRANCH   1  11
TORSDOF 2
ENDMDL
