MODEL 1
REMARK VINA RESULT:      46.2      0.000      0.000
REMARK  3 active torsions:
REMARK  status: ('A' for Active; 'I' for Inactive)
REMARK    1  A    between atoms: N_5  and  C_2 
REMARK    2  A    between atoms: C_9  and  C_3 
REMARK       I    between atoms: C_7  and  N_5 
REMARK    3  A    between atoms: C_8  and  C_7 
ROOT
ATOM      1  N   UNL d   1      13.900  12.965  -2.773  0.00  0.00    -0.200 NA
ATOM      2  C   UNL d   1      13.516  12.894  -3.491  0.00  0.00     0.216 A 
ATOM      3  C   UNL d   1      13.766  12.276  -2.338  0.00  0.00     0.172 A 
ATOM      4  N   UNL d   1      13.293  11.779  -2.796  0.00  0.00    -0.187 NA
ATOM      5  S   UNL d   1      13.135  12.159  -3.516  0.00  0.00     0.054 SA
ENDROOT
BRANCH   2   6
ATOM      6  N   UNL d   1      13.507  13.457  -4.092  0.00  0.00    -0.181 NA
ATOM      7  C   UNL d   1      13.493  14.254  -3.901  0.00  0.00     0.281 C 
ATOM      8  O   UNL d   1      13.488  14.492  -3.112  0.00  0.00    -0.265 OA
BRANCH   7   9
ATOM      9  C   UNL d   1      13.484  14.818  -4.503  0.00  0.00     0.058 A 
ATOM     10  C   UNL d   1      14.182  15.193  -4.726  0.00  0.00     0.006 A 
ATOM     11  C   UNL d   1      14.173  15.757  -5.328  0.00  0.00     0.012 A 
ATOM     12  C   UNL d   1      13.466  15.946  -5.707  0.00  0.00     0.058 A 
ATOM     13  C   UNL d   1      12.769  15.569  -5.483  0.00  0.00     0.012 A 
ATOM     14 CL   UNL d   1      13.457  16.510  -6.309  0.00  0.00    -0.082 Cl
ATOM     15  C   UNL d   1      12.778  15.005  -4.881  0.00  0.00     0.006 A 
ENDBRANCH   7   9
ENDBRANCH   2   6
BRANCH   3  16
ATOM     16  C   UNL d   1      14.048  12.112  -1.587  0.00  0.00     0.036 A 
ATOM     17  C   UNL d   1      13.517  11.966  -0.973  0.00  0.00     0.003 A 
ATOM     18  C   UNL d   1      13.805  11.799  -0.209  0.00  0.00     0.000 A 
ATOM     19  C   UNL d   1      14.623  11.780  -0.067  0.00  0.00     0.000 A 
ATOM     20  C   UNL d   1      15.149  11.928  -0.690  0.00  0.00     0.000 A 
ATOM     21  C   UNL d   1      14.865  12.093  -1.445  0.00  0.00     0.003 A 
ENDBRANCH   3  16
TORSDOF 3
ENDMDL
