MODEL 1
REMARK VINA RESULT:      84.2      0.000      0.000
REMARK  4 active torsions:
REMARK  status: ('A' for Active; 'I' for Inactive)
REMARK    1  A    between atoms: C_4  and  C_1 
REMARK    2  A    between atoms: N_7  and  C_2 
REMARK       I    between atoms: N_8  and  C_4 
REMARK       I    between atoms: C_11  and  N_7 
REMARK    3  A    between atoms: C_13  and  N_8 
REMARK    4  A    between atoms: C_22  and  C_11 
ROOT
ATOM      1  C   UNL d   1      60.801  49.266  50.319  0.00  0.00     0.175 A 
ATOM      2  C   UNL d   1      60.100  49.494  50.556  0.00  0.00     0.114 A 
ATOM      3  O   UNL d   1      61.237  49.150  50.945  0.00  0.00    -0.301 OA
ATOM      4  C   UNL d   1      60.102  49.520  51.329  0.00  0.00     0.043 A 
ATOM      5  C   UNL d   1      60.807  49.307  51.571  0.00  0.00     0.102 A 
ATOM      6  C   UNL d   1      59.562  49.708  51.841  0.00  0.00     0.004 A 
ATOM      7  C   UNL d   1      60.967  49.283  52.320  0.00  0.00     0.025 A 
ATOM      8  C   UNL d   1      59.723  49.684  52.598  0.00  0.00     0.000 A 
ATOM      9  C   UNL d   1      60.424  49.471  52.835  0.00  0.00     0.002 A 
ENDROOT
BRANCH   1  10
ATOM     10  C   UNL d   1      61.023  49.171  49.594  0.00  0.00     0.303 C 
ATOM     11  N   UNL d   1      61.364  47.764  49.213  0.00  0.00    -0.206 NA
ATOM     12  O   UNL d   1      61.090  49.708  49.049  0.00  0.00    -0.263 OA
BRANCH  11  13
ATOM     13  C   UNL d   1      61.304  47.157  49.776  0.00  0.00     0.087 A 
ATOM     14  C   UNL d   1      61.250  46.366  49.530  0.00  0.00     0.046 A 
ATOM     15  C   UNL d   1      61.189  45.762  50.091  0.00  0.00     0.124 A 
ATOM     16  O   UNL d   1      61.135  44.966  49.849  0.00  0.00    -0.301 OA
ATOM     17  C   UNL d   1      61.182  45.935  50.911  0.00  0.00     0.123 A 
ATOM     18  C   UNL d   1      61.075  44.362  50.411  0.00  0.00     0.149 A 
ATOM     19  C   UNL d   1      61.068  44.540  51.220  0.00  0.00     0.149 A 
ATOM     20  O   UNL d   1      61.122  45.345  51.469  0.00  0.00    -0.301 OA
ATOM     21  C   UNL d   1      61.236  46.732  51.152  0.00  0.00     0.028 A 
ATOM     22  C   UNL d   1      61.297  47.347  50.580  0.00  0.00     0.021 A 
ENDBRANCH  11  13
ENDBRANCH   1  10
BRANCH   2  23
ATOM     23  N   UNL d   1      59.504  49.666  50.096  0.00  0.00    -0.206 NA
ATOM     24  C   UNL d   1      58.738  49.407  50.290  0.00  0.00     0.279 C 
ATOM     25  O   UNL d   1      58.611  48.960  50.985  0.00  0.00    -0.265 OA
BRANCH  24  26
ATOM     26  C   UNL d   1      58.096  49.595  49.789  0.00  0.00     0.062 C 
ATOM     27  C   UNL d   1      57.322  49.499  50.058  0.00  0.00     0.005 C 
ENDBRANCH  24  26
ENDBRANCH   2  23
TORSDOF 4
ENDMDL
MODEL 2
REMARK VINA RESULT:      86.9      1.150      4.166
REMARK  4 active torsions:
REMARK  status: ('A' for Active; 'I' for Inactive)
REMARK    1  A    between atoms: C_4  and  C_1 
REMARK    2  A    between atoms: N_7  and  C_2 
REMARK       I    between atoms: N_8  and  C_4 
REMARK       I    between atoms: C_11  and  N_7 
REMARK    3  A    between atoms: C_13  and  N_8 
REMARK    4  A    between atoms: C_22  and  C_11 
ROOT
ATOM      1  C   UNL d   1      61.071  47.894  50.630  0.00  0.00     0.175 A 
ATOM      2  C   UNL d   1      61.076  47.188  50.310  0.00  0.00     0.114 A 
ATOM      3  O   UNL d   1      60.689  47.849  51.299  0.00  0.00    -0.301 OA
ATOM      4  C   UNL d   1      60.697  46.707  50.781  0.00  0.00     0.043 A 
ATOM      5  C   UNL d   1      60.456  47.115  51.395  0.00  0.00     0.102 A 
ATOM      6  C   UNL d   1      60.539  45.957  50.735  0.00  0.00     0.004 A 
ATOM      7  C   UNL d   1      60.061  46.773  51.956  0.00  0.00     0.025 A 
ATOM      8  C   UNL d   1      60.140  45.611  51.301  0.00  0.00     0.000 A 
ATOM      9  C   UNL d   1      59.903  46.020  51.909  0.00  0.00     0.002 A 
ENDROOT
BRANCH   1  10
ATOM     10  C   UNL d   1      61.388  48.524  50.336  0.00  0.00     0.303 C 
ATOM     11  N   UNL d   1      60.472  49.704  50.224  0.00  0.00    -0.206 NA
ATOM     12  O   UNL d   1      62.112  48.618  50.097  0.00  0.00    -0.263 OA
BRANCH  11  13
ATOM     13  C   UNL d   1      59.683  49.638  50.473  0.00  0.00     0.087 A 
ATOM     14  C   UNL d   1      59.067  49.696  49.919  0.00  0.00     0.046 A 
ATOM     15  C   UNL d   1      58.282  49.631  50.167  0.00  0.00     0.124 A 
ATOM     16  O   UNL d   1      57.659  49.687  49.615  0.00  0.00    -0.301 OA
ATOM     17  C   UNL d   1      58.093  49.506  50.974  0.00  0.00     0.123 A 
ATOM     18  C   UNL d   1      56.873  49.622  49.863  0.00  0.00     0.149 A 
ATOM     19  C   UNL d   1      56.695  49.500  50.663  0.00  0.00     0.149 A 
ATOM     20  O   UNL d   1      57.322  49.441  51.225  0.00  0.00    -0.301 OA
ATOM     21  C   UNL d   1      58.717  49.450  51.525  0.00  0.00     0.028 A 
ATOM     22  C   UNL d   1      59.517  49.516  51.273  0.00  0.00     0.021 A 
ENDBRANCH  11  13
ENDBRANCH   1  10
BRANCH   2  23
ATOM     23  N   UNL d   1      61.404  47.003  49.636  0.00  0.00    -0.206 NA
ATOM     24  C   UNL d   1      61.983  46.408  49.603  0.00  0.00     0.279 C 
ATOM     25  O   UNL d   1      62.212  46.007  50.301  0.00  0.00    -0.265 OA
BRANCH  24  26
ATOM     26  C   UNL d   1      62.335  46.210  48.871  0.00  0.00     0.062 C 
ATOM     27  C   UNL d   1      62.870  45.583  48.828  0.00  0.00     0.005 C 
ENDBRANCH  24  26
ENDBRANCH   2  23
TORSDOF 4
ENDMDL
