MODEL 1
REMARK VINA RESULT:      -0.3      0.000      0.000
REMARK  4 active torsions:
REMARK  status: ('A' for Active; 'I' for Inactive)
REMARK    1  A    between atoms: C_11  and  C_4 
REMARK    2  A    between atoms: N_10  and  C_5 
REMARK    3  A    between atoms: C_13  and  N_10 
REMARK    4  A    between atoms: C_14  and  C_13 
ROOT
ATOM      1  N   UNL d   1      32.992  20.615 -22.263  0.00  0.00    -0.195 N 
ATOM      2  C   UNL d   1      32.908  20.991 -21.533  0.00  0.00     0.167 A 
ATOM      3  N   UNL d   1      32.881  21.177 -22.847  0.00  0.00    -0.163 NA
ATOM      4  C   UNL d   1      32.746  21.784 -21.668  0.00  0.00     0.055 A 
ATOM      5  C   UNL d   1      33.157  19.810 -22.295  0.00  0.00     0.167 A 
ATOM      6  C   UNL d   1      32.729  21.902 -22.479  0.00  0.00     0.104 A 
ATOM      7  N   UNL d   1      32.990  20.561 -20.837  0.00  0.00    -0.227 NA
ATOM      8  C   UNL d   1      33.241  19.373 -21.595  0.00  0.00     0.058 A 
ATOM      9  C   UNL d   1      33.157  19.749 -20.865  0.00  0.00     0.086 A 
ATOM     10  C   UNL d   1      32.585  22.619 -22.860  0.00  0.00     0.023 C 
ATOM     11  C   UNL d   1      33.239  19.321 -20.157  0.00  0.00     0.021 C 
ENDROOT
BRANCH   5  12
ATOM     12  N   UNL d   1      33.241  19.435 -23.025  0.00  0.00    -0.224 NA
BRANCH  12  13
ATOM     13  C   UNL d   1      33.134  18.621 -23.085  0.00  0.00     0.120 C 
BRANCH  13  14
ATOM     14  C   UNL d   1      32.721  18.305 -23.725  0.00  0.00     0.101 A 
ATOM     15  N   UNL d   1      32.634  18.749 -24.420  0.00  0.00    -0.242 NA
ATOM     16  C   UNL d   1      32.219  18.431 -25.063  0.00  0.00     0.099 A 
ATOM     17  C   UNL d   1      31.893  17.670 -25.007  0.00  0.00     0.021 A 
ATOM     18  C   UNL d   1      31.981  17.232 -24.316  0.00  0.00     0.003 A 
ATOM     19  C   UNL d   1      32.397  17.550 -23.673  0.00  0.00     0.021 A 
ENDBRANCH  13  14
ENDBRANCH  12  13
ENDBRANCH   5  12
BRANCH   4  20
ATOM     20  C   UNL d   1      32.611  22.420 -21.159  0.00  0.00     0.004 A 
ATOM     21  C   UNL d   1      31.857  22.533 -20.832  0.00  0.00     0.000 A 
ATOM     22  C   UNL d   1      31.722  23.169 -20.323  0.00  0.00     0.000 A 
ATOM     23  C   UNL d   1      32.333  23.692 -20.139  0.00  0.00     0.000 A 
ATOM     24  C   UNL d   1      33.088  23.576 -20.469  0.00  0.00     0.000 A 
ATOM     25  C   UNL d   1      33.222  22.943 -20.975  0.00  0.00     0.000 A 
ENDBRANCH   4  20
TORSDOF 4
ENDMDL
