MODEL 1
REMARK VINA RESULT:      59.7      0.000      0.000
REMARK  8 active torsions:
REMARK  status: ('A' for Active; 'I' for Inactive)
REMARK    1  A    between atoms: N_4  and  C_1 
REMARK    2  A    between atoms: C_2  and  O_12 
REMARK    3  A    between atoms: C_8  and  C_2 
REMARK       I    between atoms: C_10  and  N_4 
REMARK    4  A    between atoms: O_12  and  C_5 
REMARK    5  A    between atoms: S_20  and  C_6 
REMARK    6  A    between atoms: C_14  and  C_10 
REMARK    7  A    between atoms: C_16  and  C_26 
REMARK    8  A    between atoms: C_26  and  S_20 
ROOT
ATOM      1  C   UNL d   1     -50.500  25.661  33.593  0.00  0.00     0.167 A 
ATOM      2  C   UNL d   1     -49.711  25.452  33.499  0.00  0.00     0.222 A 
ATOM      3  C   UNL d   1     -49.145  26.059  33.482  0.00  0.00     0.069 A 
ATOM      4  C   UNL d   1     -50.725  26.450  33.669  0.00  0.00     0.151 A 
ATOM      5  C   UNL d   1     -49.371  26.848  33.558  0.00  0.00     0.110 A 
ATOM      6  O   UNL d   1     -50.164  27.038  33.652  0.00  0.00    -0.302 OA
ATOM      7  O   UNL d   1     -49.488  24.671  33.424  0.00  0.00    -0.284 OA
ENDROOT
BRANCH   5   8
ATOM      8  C   UNL d   1     -48.803  27.442  33.541  0.00  0.00     0.062 C 
BRANCH   8   9
ATOM      9  S   UNL d   1     -48.872  28.087  34.050  0.00  0.00    -0.057 SA
BRANCH   9  10
ATOM     10  C   UNL d   1     -48.570  28.942  34.316  0.00  0.00     0.166 A 
ATOM     11  S   UNL d   1     -48.788  29.725  34.448  0.00  0.00    -0.006 SA
ATOM     12  C   UNL d   1     -48.119  30.142  34.695  0.00  0.00     0.269 A 
ATOM     13  N   UNL d   1     -47.485  29.611  34.715  0.00  0.00    -0.107 NA
ATOM     14  N   UNL d   1     -47.763  28.870  34.481  0.00  0.00    -0.132 NA
BRANCH  12  15
ATOM     15  N   UNL d   1     -47.842  30.882  34.928  0.00  0.00    -0.337 NA
ATOM     16  C   UNL d   1     -47.564  31.623  35.162  0.00  0.00     0.330 C 
ATOM     17  O   UNL d   1     -47.298  31.290  35.869  0.00  0.00    -0.251 OA
BRANCH  16  18
ATOM     18  C   UNL d   1     -47.556  32.379  34.828  0.00  0.00     0.070 A 
ATOM     19  C   UNL d   1     -47.681  33.191  34.903  0.00  0.00     0.006 A 
ATOM     20  C   UNL d   1     -47.415  32.872  34.174  0.00  0.00     0.006 A 
ENDBRANCH  16  18
ENDBRANCH  12  15
ENDBRANCH   9  10
ENDBRANCH   8   9
ENDBRANCH   5   8
BRANCH   1  21
ATOM     21  O   UNL d   1     -51.075  25.064  33.612  0.00  0.00    -0.268 OA
BRANCH  21  22
ATOM     22  C   UNL d   1     -51.864  25.246  33.437  0.00  0.00     0.305 C 
ATOM     23  O   UNL d   1     -52.091  26.028  33.307  0.00  0.00    -0.259 OA
BRANCH  22  24
ATOM     24  C   UNL d   1     -52.432  24.634  33.393  0.00  0.00     0.118 A 
ATOM     25  C   UNL d   1     -52.197  23.838  33.353  0.00  0.00     0.147 A 
ATOM     26  F   UNL d   1     -51.383  23.650  33.357  0.00  0.00    -0.204 F 
ATOM     27  C   UNL d   1     -52.743  23.235  33.310  0.00  0.00     0.030 A 
ATOM     28  C   UNL d   1     -53.546  23.421  33.306  0.00  0.00     0.005 A 
ATOM     29  C   UNL d   1     -53.808  24.211  33.346  0.00  0.00     0.030 A 
ATOM     30  C   UNL d   1     -53.236  24.820  33.389  0.00  0.00     0.147 A 
ATOM     31  F   UNL d   1     -53.474  25.618  33.430  0.00  0.00    -0.204 F 
ENDBRANCH  22  24
ENDBRANCH  21  22
ENDBRANCH   1  21
TORSDOF 8
ENDMDL
