MODEL 1
REMARK VINA RESULT:      -5.1      0.000      0.000
REMARK  4 active torsions:
REMARK  status: ('A' for Active; 'I' for Inactive)
REMARK    1  A    between atoms: C_6  and  C_1 
REMARK    2  A    between atoms: N_7  and  C_2 
REMARK    3  A    between atoms: C_8  and  C_5 
REMARK    4  A    between atoms: O_10  and  C_6 
ROOT
ATOM      1  C   UNL d   1     -41.555-122.780 -51.909  0.00  0.00     0.186 A 
ATOM      2  C   UNL d   1     -41.279-121.982 -51.866  0.00  0.00     0.193 A 
ATOM      3  N   UNL d   1     -41.638-122.983 -52.687  0.00  0.00    -0.213 NA
ATOM      4  O   UNL d   1     -41.201-121.719 -52.668  0.00  0.00    -0.271 OA
ATOM      5  C   UNL d   1     -41.435-122.374 -53.142  0.00  0.00     0.184 A 
ENDROOT
BRANCH   5   6
ATOM      6  C   UNL d   1     -41.517-122.574 -53.858  0.00  0.00     0.041 A 
ATOM      7  C   UNL d   1     -41.828-121.811 -54.014  0.00  0.00     0.004 A 
ATOM      8  C   UNL d   1     -42.068-121.605 -54.780  0.00  0.00     0.000 A 
ATOM      9  C   UNL d   1     -41.996-122.160 -55.386  0.00  0.00     0.000 A 
ATOM     10  C   UNL d   1     -41.685-122.922 -55.231  0.00  0.00     0.000 A 
ATOM     11  C   UNL d   1     -41.454-123.108 -54.473  0.00  0.00     0.004 A 
ENDBRANCH   5   6
BRANCH   1  12
ATOM     12  C   UNL d   1     -41.641-123.060 -51.263  0.00  0.00     0.317 C 
ATOM     13  O   UNL d   1     -41.123-123.406 -50.638  0.00  0.00    -0.257 OA
BRANCH  12  14
ATOM     14  O   UNL d   1     -42.256-123.157 -50.872  0.00  0.00    -0.294 OA
ATOM     15  C   UNL d   1     -42.496-123.817 -50.379  0.00  0.00     0.185 C 
ENDBRANCH  12  14
ENDBRANCH   1  12
BRANCH   2  16
ATOM     16  N   UNL d   1     -41.199-121.783 -51.247  0.00  0.00    -0.281 N 
ATOM     17  C   UNL d   1     -41.123-121.008 -51.450  0.00  0.00     0.101 C 
ATOM     18  C   UNL d   1     -41.159-122.002 -50.484  0.00  0.00     0.101 C 
ENDBRANCH   2  16
TORSDOF 4
ENDMDL
MODEL 2
REMARK VINA RESULT:      -3.4      1.357      3.742
REMARK  4 active torsions:
REMARK  status: ('A' for Active; 'I' for Inactive)
REMARK    1  A    between atoms: C_6  and  C_1 
REMARK    2  A    between atoms: N_7  and  C_2 
REMARK    3  A    between atoms: C_8  and  C_5 
REMARK    4  A    between atoms: O_10  and  C_6 
ROOT
ATOM      1  C   UNL d   1     -41.789-122.847 -51.580  0.00  0.00     0.186 A 
ATOM      2  C   UNL d   1     -41.630-122.038 -51.389  0.00  0.00     0.193 A 
ATOM      3  N   UNL d   1     -41.970-123.242 -50.897  0.00  0.00    -0.213 NA
ATOM      4  O   UNL d   1     -41.727-121.973 -50.550  0.00  0.00    -0.271 OA
ATOM      5  C   UNL d   1     -41.938-122.745 -50.288  0.00  0.00     0.184 A 
ENDROOT
BRANCH   5   6
ATOM      6  C   UNL d   1     -42.107-123.122 -49.664  0.00  0.00     0.041 A 
ATOM      7  C   UNL d   1     -42.707-122.558 -49.512  0.00  0.00     0.004 A 
ATOM      8  C   UNL d   1     -43.182-122.624 -48.836  0.00  0.00     0.000 A 
ATOM      9  C   UNL d   1     -43.056-123.252 -48.316  0.00  0.00     0.000 A 
ATOM     10  C   UNL d   1     -42.455-123.816 -48.468  0.00  0.00     0.000 A 
ATOM     11  C   UNL d   1     -41.998-123.735 -49.137  0.00  0.00     0.004 A 
ENDBRANCH   5   6
BRANCH   1  12
ATOM     12  C   UNL d   1     -41.724-122.967 -52.276  0.00  0.00     0.317 C 
ATOM     13  O   UNL d   1     -42.119-122.691 -53.015  0.00  0.00    -0.257 OA
BRANCH  12  14
ATOM     14  O   UNL d   1     -41.256-123.406 -52.634  0.00  0.00    -0.294 OA
ATOM     15  C   UNL d   1     -41.316-123.752 -53.417  0.00  0.00     0.185 C 
ENDBRANCH  12  14
ENDBRANCH   1  12
BRANCH   2  16
ATOM     16  N   UNL d   1     -41.479-121.686 -51.921  0.00  0.00    -0.281 N 
ATOM     17  C   UNL d   1     -41.125-121.100 -51.498  0.00  0.00     0.101 C 
ATOM     18  C   UNL d   1     -41.516-121.641 -52.714  0.00  0.00     0.101 C 
ENDBRANCH   2  16
TORSDOF 4
ENDMDL
