MODEL 1
REMARK VINA RESULT:      46.6      0.000      0.000
REMARK  1 active torsions:
REMARK  status: ('A' for Active; 'I' for Inactive)
REMARK    1  A    between atoms: C_11  and  C_9 
ROOT
ATOM      1  N   UNL d   1     -54.744-101.400 -40.859  0.00  0.00    -0.253 N 
ATOM      2  C   UNL d   1     -54.762-102.066 -41.339  0.00  0.00     0.182 A 
ATOM      3  C   UNL d   1     -54.732-100.639 -41.223  0.00  0.00     0.267 A 
ATOM      4  N   UNL d   1     -54.770-102.719 -40.866  0.00  0.00    -0.221 NA
ATOM      5  S   UNL d   1     -54.768-102.010 -42.155  0.00  0.00    -0.050 SA
ATOM      6  C   UNL d   1     -54.738-100.561 -42.034  0.00  0.00     0.068 A 
ATOM      7  C   UNL d   1     -54.741-101.655 -40.091  0.00  0.00     0.086 A 
ATOM      8  C   UNL d   1     -54.757-102.474 -40.068  0.00  0.00     0.100 A 
ATOM      9  C   UNL d   1     -54.757-101.270 -42.514  0.00  0.00     0.037 A 
ATOM     10  O   UNL d   1     -54.713 -99.931 -40.746  0.00  0.00    -0.267 OA
ATOM     11  C   UNL d   1     -54.726-101.221 -39.362  0.00  0.00     0.019 A 
ATOM     12  C   UNL d   1     -54.759-102.877 -39.364  0.00  0.00     0.021 A 
ATOM     13  C   UNL d   1     -54.727-101.639 -38.659  0.00  0.00     0.002 A 
ATOM     14  C   UNL d   1     -54.743-102.443 -38.647  0.00  0.00     0.002 A 
ENDROOT
BRANCH   9  15
ATOM     15  C   UNL d   1     -54.766-101.307 -43.354  0.00  0.00     0.006 A 
ATOM     16  C   UNL d   1     -54.719-102.034 -43.739  0.00  0.00     0.001 A 
ATOM     17  C   UNL d   1     -54.727-102.074 -44.579  0.00  0.00     0.000 A 
ATOM     18  C   UNL d   1     -54.783-101.383 -45.013  0.00  0.00     0.000 A 
ATOM     19  C   UNL d   1     -54.832-100.636 -44.628  0.00  0.00     0.000 A 
ATOM     20  C   UNL d   1     -54.824-100.598 -43.803  0.00  0.00     0.001 A 
ENDBRANCH   9  15
TORSDOF 1
ENDMDL
