MODEL 1
REMARK VINA RESULT:      -4.9      0.000      0.000
REMARK  1 active torsions:
REMARK  status: ('A' for Active; 'I' for Inactive)
REMARK    1  A    between atoms: C_2  and  C_3 
ROOT
ATOM      1  C   UNL d   1     -41.643-122.619 -53.697  0.00  0.00     0.002 A 
ATOM      2  C   UNL d   1     -41.553-122.147 -53.026  0.00  0.00     0.000 A 
ATOM      3  C   UNL d   1     -41.473-123.425 -53.656  0.00  0.00     0.000 A 
ATOM      4  C   UNL d   1     -41.294-122.480 -52.316  0.00  0.00     0.000 A 
ATOM      5  C   UNL d   1     -41.213-123.759 -52.947  0.00  0.00     0.000 A 
ATOM      6  C   UNL d   1     -41.123-123.286 -52.276  0.00  0.00     0.000 A 
ENDROOT
BRANCH   1   7
ATOM      7  C   UNL d   1     -41.903-122.289 -54.409  0.00  0.00     0.021 A 
ATOM      8  C   UNL d   1     -42.591-121.850 -54.517  0.00  0.00     0.099 A 
ATOM      9  N   UNL d   1     -42.632-121.631 -55.309  0.00  0.00    -0.242 NA
ATOM     10  C   UNL d   1     -41.966-121.935 -55.693  0.00  0.00     0.099 A 
ATOM     11  C   UNL d   1     -41.515-122.342 -55.136  0.00  0.00     0.022 A 
ENDBRANCH   1   7
TORSDOF 1
ENDMDL
MODEL 2
REMARK VINA RESULT:      -4.8      1.204      2.667
REMARK  1 active torsions:
REMARK  status: ('A' for Active; 'I' for Inactive)
REMARK    1  A    between atoms: C_2  and  C_3 
ROOT
ATOM      1  C   UNL d   1     -41.755-122.465 -54.134  0.00  0.00     0.002 A 
ATOM      2  C   UNL d   1     -42.391-121.942 -54.190  0.00  0.00     0.000 A 
ATOM      3  C   UNL d   1     -41.349-122.691 -54.815  0.00  0.00     0.000 A 
ATOM      4  C   UNL d   1     -42.620-121.646 -54.926  0.00  0.00     0.000 A 
ATOM      5  C   UNL d   1     -41.578-122.395 -55.552  0.00  0.00     0.000 A 
ATOM      6  C   UNL d   1     -42.213-121.872 -55.607  0.00  0.00     0.000 A 
ENDROOT
BRANCH   1   7
ATOM      7  C   UNL d   1     -41.523-122.764 -53.398  0.00  0.00     0.021 A 
ATOM      8  C   UNL d   1     -41.458-123.560 -53.197  0.00  0.00     0.099 A 
ATOM      9  N   UNL d   1     -41.211-123.605 -52.413  0.00  0.00    -0.242 NA
ATOM     10  C   UNL d   1     -41.123-122.834 -52.128  0.00  0.00     0.099 A 
ATOM     11  C   UNL d   1     -41.315-122.313 -52.737  0.00  0.00     0.022 A 
ENDBRANCH   1   7
TORSDOF 1
ENDMDL
MODEL 3
REMARK VINA RESULT:      -4.0      1.418      2.748
REMARK  1 active torsions:
REMARK  status: ('A' for Active; 'I' for Inactive)
REMARK    1  A    between atoms: C_2  and  C_3 
ROOT
ATOM      1  C   UNL d   1     -41.688-122.341 -53.531  0.00  0.00     0.002 A 
ATOM      2  C   UNL d   1     -41.141-122.713 -54.026  0.00  0.00     0.000 A 
ATOM      3  C   UNL d   1     -42.324-121.930 -53.859  0.00  0.00     0.000 A 
ATOM      4  C   UNL d   1     -41.231-122.673 -54.846  0.00  0.00     0.000 A 
ATOM      5  C   UNL d   1     -42.413-121.890 -54.679  0.00  0.00     0.000 A 
ATOM      6  C   UNL d   1     -41.866-122.261 -55.172  0.00  0.00     0.000 A 
ENDROOT
BRANCH   1   7
ATOM      7  C   UNL d   1     -41.602-122.379 -52.709  0.00  0.00     0.021 A 
ATOM      8  C   UNL d   1     -41.972-122.917 -52.207  0.00  0.00     0.099 A 
ATOM      9  N   UNL d   1     -41.730-122.756 -51.438  0.00  0.00    -0.242 NA
ATOM     10  C   UNL d   1     -41.207-122.115 -51.463  0.00  0.00     0.099 A 
ATOM     11  C   UNL d   1     -41.127-121.882 -52.250  0.00  0.00     0.022 A 
ENDBRANCH   1   7
TORSDOF 1
ENDMDL
MODEL 4
REMARK VINA RESULT:      -3.9      2.400      3.452
REMARK  1 active torsions:
REMARK  status: ('A' for Active; 'I' for Inactive)
REMARK    1  A    between atoms: C_2  and  C_3 
ROOT
ATOM      1  C   UNL d   1     -41.767-122.742 -50.428  0.00  0.00     0.002 A 
ATOM      2  C   UNL d   1     -41.254-123.108 -49.895  0.00  0.00     0.000 A 
ATOM      3  C   UNL d   1     -42.533-122.546 -50.191  0.00  0.00     0.000 A 
ATOM      4  C   UNL d   1     -41.507-123.278 -49.127  0.00  0.00     0.000 A 
ATOM      5  C   UNL d   1     -42.786-122.716 -49.424  0.00  0.00     0.000 A 
ATOM      6  C   UNL d   1     -42.273-123.082 -48.891  0.00  0.00     0.000 A 
ENDROOT
BRANCH   1   7
ATOM      7  C   UNL d   1     -41.518-122.570 -51.198  0.00  0.00     0.021 A 
ATOM      8  C   UNL d   1     -41.393-121.819 -51.511  0.00  0.00     0.099 A 
ATOM      9  N   UNL d   1     -41.149-121.905 -52.291  0.00  0.00    -0.242 NA
ATOM     10  C   UNL d   1     -41.123-122.714 -52.463  0.00  0.00     0.099 A 
ATOM     11  C   UNL d   1     -41.351-123.126 -51.787  0.00  0.00     0.022 A 
ENDBRANCH   1   7
TORSDOF 1
ENDMDL
MODEL 5
REMARK VINA RESULT:      -3.2      3.809      4.925
REMARK  1 active torsions:
REMARK  status: ('A' for Active; 'I' for Inactive)
REMARK    1  A    between atoms: C_2  and  C_3 
ROOT
ATOM      1  C   UNL d   1     -42.196-123.188 -48.875  0.00  0.00     0.002 A 
ATOM      2  C   UNL d   1     -41.564-123.175 -48.345  0.00  0.00     0.000 A 
ATOM      3  C   UNL d   1     -42.920-123.509 -48.642  0.00  0.00     0.000 A 
ATOM      4  C   UNL d   1     -41.655-123.483 -47.584  0.00  0.00     0.000 A 
ATOM      5  C   UNL d   1     -43.011-123.816 -47.881  0.00  0.00     0.000 A 
ATOM      6  C   UNL d   1     -42.378-123.804 -47.352  0.00  0.00     0.000 A 
ENDROOT
BRANCH   1   7
ATOM      7  C   UNL d   1     -42.109-122.880 -49.638  0.00  0.00     0.021 A 
ATOM      8  C   UNL d   1     -42.686-122.481 -50.068  0.00  0.00     0.099 A 
ATOM      9  N   UNL d   1     -42.364-122.274 -50.796  0.00  0.00    -0.242 NA
ATOM     10  C   UNL d   1     -41.583-122.547 -50.817  0.00  0.00     0.099 A 
ATOM     11  C   UNL d   1     -41.425-122.922 -50.101  0.00  0.00     0.022 A 
ENDBRANCH   1   7
TORSDOF 1
ENDMDL
MODEL 6
REMARK VINA RESULT:      -2.7      4.557      6.059
REMARK  1 active torsions:
REMARK  status: ('A' for Active; 'I' for Inactive)
REMARK    1  A    between atoms: C_2  and  C_3 
ROOT
ATOM      1  C   UNL d   1     -41.954-123.100 -48.778  0.00  0.00     0.002 A 
ATOM      2  C   UNL d   1     -41.346-123.072 -49.335  0.00  0.00     0.000 A 
ATOM      3  C   UNL d   1     -42.726-122.913 -49.003  0.00  0.00     0.000 A 
ATOM      4  C   UNL d   1     -41.510-122.856 -50.116  0.00  0.00     0.000 A 
ATOM      5  C   UNL d   1     -42.889-122.697 -49.783  0.00  0.00     0.000 A 
ATOM      6  C   UNL d   1     -42.281-122.669 -50.340  0.00  0.00     0.000 A 
ENDROOT
BRANCH   1   7
ATOM      7  C   UNL d   1     -41.794-123.316 -47.996  0.00  0.00     0.021 A 
ATOM      8  C   UNL d   1     -41.127-123.719 -47.730  0.00  0.00     0.099 A 
ATOM      9  N   UNL d   1     -41.195-123.817 -46.917  0.00  0.00    -0.242 NA
ATOM     10  C   UNL d   1     -41.908-123.473 -46.676  0.00  0.00     0.099 A 
ATOM     11  C   UNL d   1     -42.279-123.163 -47.344  0.00  0.00     0.022 A 
ENDBRANCH   1   7
TORSDOF 1
ENDMDL
