MODEL 1
REMARK VINA RESULT:     -11.1      0.000      0.000
REMARK  1 active torsions:
REMARK  status: ('A' for Active; 'I' for Inactive)
REMARK    1  A    between atoms: N_13  and  C_2 
ROOT
ATOM      1  C   UNL d   1     -48.628  13.247  23.001  0.00  0.00     0.024 A 
ATOM      2  C   UNL d   1     -48.508  14.030  22.768  0.00  0.00     0.138 A 
ATOM      3  C   UNL d   1     -47.742  14.338  22.731  0.00  0.00     0.282 A 
ATOM      4  C   UNL d   1     -47.984  12.773  23.195  0.00  0.00     0.021 A 
ATOM      5  N   UNL d   1     -47.103  13.857  22.927  0.00  0.00    -0.271 N 
ATOM      6  C   UNL d   1     -47.218  13.074  23.160  0.00  0.00     0.067 A 
ATOM      7  C   UNL d   1     -49.390  12.943  23.038  0.00  0.00     0.005 A 
ATOM      8  C   UNL d   1     -48.112  11.984  23.429  0.00  0.00     0.040 A 
ATOM      9  C   UNL d   1     -48.879  11.679  23.465  0.00  0.00     0.196 A 
ATOM     10  C   UNL d   1     -49.517  12.161  23.269  0.00  0.00     0.039 A 
ATOM     11  O   UNL d   1     -47.614  15.119  22.500  0.00  0.00    -0.265 OA
ATOM     12  O   UNL d   1     -49.007  10.898  23.697  0.00  0.00    -0.287 OA
ATOM     13  C   UNL d   1     -46.336  14.169  22.888  0.00  0.00     0.102 C 
ATOM     14  C   UNL d   1     -46.578  12.604  23.352  0.00  0.00     0.018 A 
ATOM     15  C   UNL d   1     -47.465  11.509  23.623  0.00  0.00     0.003 A 
ATOM     16  C   UNL d   1     -50.033  13.424  22.842  0.00  0.00     0.000 A 
ATOM     17  C   UNL d   1     -50.288  11.861  23.304  0.00  0.00     0.003 A 
ATOM     18  C   UNL d   1     -46.695  11.808  23.589  0.00  0.00     0.002 A 
ATOM     19  C   UNL d   1     -50.799  13.125  22.877  0.00  0.00     0.000 A 
ATOM     20  C   UNL d   1     -50.927  12.343  23.108  0.00  0.00     0.000 A 
ENDROOT
BRANCH   2  21
ATOM     21  N   UNL d   1     -49.148  14.508  22.574  0.00  0.00    -0.238 NA
ATOM     22  C   UNL d   1     -49.208  15.267  22.890  0.00  0.00     0.120 C 
ENDBRANCH   2  21
TORSDOF 1
ENDMDL
MODEL 2
REMARK VINA RESULT:     -10.5      1.265      2.508
REMARK  1 active torsions:
REMARK  status: ('A' for Active; 'I' for Inactive)
REMARK    1  A    between atoms: N_13  and  C_2 
ROOT
ATOM      1  C   UNL d   1     -47.799  13.207  23.129  0.00  0.00     0.024 A 
ATOM      2  C   UNL d   1     -46.976  13.142  23.129  0.00  0.00     0.138 A 
ATOM      3  C   UNL d   1     -46.619  12.421  23.319  0.00  0.00     0.282 A 
ATOM      4  C   UNL d   1     -48.263  12.555  23.318  0.00  0.00     0.021 A 
ATOM      5  N   UNL d   1     -47.091  11.773  23.507  0.00  0.00    -0.271 N 
ATOM      6  C   UNL d   1     -47.914  11.834  23.508  0.00  0.00     0.067 A 
ATOM      7  C   UNL d   1     -48.153  13.924  22.941  0.00  0.00     0.005 A 
ATOM      8  C   UNL d   1     -49.093  12.629  23.316  0.00  0.00     0.040 A 
ATOM      9  C   UNL d   1     -49.447  13.350  23.126  0.00  0.00     0.196 A 
ATOM     10  C   UNL d   1     -48.974  13.998  22.939  0.00  0.00     0.039 A 
ATOM     11  O   UNL d   1     -45.797  12.347  23.321  0.00  0.00    -0.265 OA
ATOM     12  O   UNL d   1     -50.269  13.424  23.124  0.00  0.00    -0.287 OA
ATOM     13  C   UNL d   1     -46.729  11.051  23.697  0.00  0.00     0.102 C 
ATOM     14  C   UNL d   1     -48.373  11.185  23.696  0.00  0.00     0.018 A 
ATOM     15  C   UNL d   1     -49.558  11.973  23.506  0.00  0.00     0.003 A 
ATOM     16  C   UNL d   1     -47.680  14.576  22.752  0.00  0.00     0.000 A 
ATOM     17  C   UNL d   1     -49.324  14.723  22.748  0.00  0.00     0.003 A 
ATOM     18  C   UNL d   1     -49.209  11.248  23.697  0.00  0.00     0.002 A 
ATOM     19  C   UNL d   1     -48.029  15.298  22.562  0.00  0.00     0.000 A 
ATOM     20  C   UNL d   1     -48.851  15.371  22.560  0.00  0.00     0.000 A 
ENDROOT
BRANCH   2  21
ATOM     21  N   UNL d   1     -46.508  13.790  22.941  0.00  0.00    -0.238 NA
ATOM     22  C   UNL d   1     -45.839  13.694  22.468  0.00  0.00     0.120 C 
ENDBRANCH   2  21
TORSDOF 1
ENDMDL
MODEL 3
REMARK VINA RESULT:     -10.4      0.878      3.608
REMARK  1 active torsions:
REMARK  status: ('A' for Active; 'I' for Inactive)
REMARK    1  A    between atoms: N_13  and  C_2 
ROOT
ATOM      1  C   UNL d   1     -48.382  13.198  22.871  0.00  0.00     0.024 A 
ATOM      2  C   UNL d   1     -48.600  12.410  22.988  0.00  0.00     0.138 A 
ATOM      3  C   UNL d   1     -49.400  12.205  23.031  0.00  0.00     0.282 A 
ATOM      4  C   UNL d   1     -48.961  13.778  22.797  0.00  0.00     0.021 A 
ATOM      5  N   UNL d   1     -49.973  12.791  22.956  0.00  0.00    -0.271 N 
ATOM      6  C   UNL d   1     -49.759  13.580  22.838  0.00  0.00     0.067 A 
ATOM      7  C   UNL d   1     -47.587  13.400  22.829  0.00  0.00     0.005 A 
ATOM      8  C   UNL d   1     -48.733  14.570  22.678  0.00  0.00     0.040 A 
ATOM      9  C   UNL d   1     -47.933  14.772  22.636  0.00  0.00     0.196 A 
ATOM     10  C   UNL d   1     -47.361  14.185  22.712  0.00  0.00     0.039 A 
ATOM     11  O   UNL d   1     -49.626  11.420  23.148  0.00  0.00    -0.265 OA
ATOM     12  O   UNL d   1     -47.707  15.557  22.519  0.00  0.00    -0.287 OA
ATOM     13  C   UNL d   1     -50.774  12.582  22.999  0.00  0.00     0.102 C 
ATOM     14  C   UNL d   1     -50.335  14.155  22.765  0.00  0.00     0.018 A 
ATOM     15  C   UNL d   1     -49.315  15.151  22.604  0.00  0.00     0.003 A 
ATOM     16  C   UNL d   1     -47.011  12.812  22.904  0.00  0.00     0.000 A 
ATOM     17  C   UNL d   1     -46.559  14.382  22.670  0.00  0.00     0.003 A 
ATOM     18  C   UNL d   1     -50.117  14.955  22.646  0.00  0.00     0.002 A 
ATOM     19  C   UNL d   1     -46.212  13.009  22.863  0.00  0.00     0.000 A 
ATOM     20  C   UNL d   1     -45.986  13.794  22.746  0.00  0.00     0.000 A 
ENDROOT
BRANCH   2  21
ATOM     21  N   UNL d   1     -48.026  11.827  23.063  0.00  0.00    -0.238 NA
ATOM     22  C   UNL d   1     -48.053  11.300  23.697  0.00  0.00     0.120 C 
ENDBRANCH   2  21
TORSDOF 1
ENDMDL
MODEL 4
REMARK VINA RESULT:     -10.4      0.852      2.664
REMARK  1 active torsions:
REMARK  status: ('A' for Active; 'I' for Inactive)
REMARK    1  A    between atoms: N_13  and  C_2 
ROOT
ATOM      1  C   UNL d   1     -48.698  13.363  23.189  0.00  0.00     0.024 A 
ATOM      2  C   UNL d   1     -48.885  14.150  23.020  0.00  0.00     0.138 A 
ATOM      3  C   UNL d   1     -49.674  14.396  23.021  0.00  0.00     0.282 A 
ATOM      4  C   UNL d   1     -49.298  12.825  23.357  0.00  0.00     0.021 A 
ATOM      5  N   UNL d   1     -50.268  13.852  23.190  0.00  0.00    -0.271 N 
ATOM      6  C   UNL d   1     -50.085  13.065  23.359  0.00  0.00     0.067 A 
ATOM      7  C   UNL d   1     -47.914  13.120  23.188  0.00  0.00     0.005 A 
ATOM      8  C   UNL d   1     -49.101  12.034  23.526  0.00  0.00     0.040 A 
ATOM      9  C   UNL d   1     -48.312  11.790  23.525  0.00  0.00     0.196 A 
ATOM     10  C   UNL d   1     -47.719  12.336  23.356  0.00  0.00     0.039 A 
ATOM     11  O   UNL d   1     -49.868  15.180  22.853  0.00  0.00    -0.265 OA
ATOM     12  O   UNL d   1     -48.118  11.006  23.693  0.00  0.00    -0.287 OA
ATOM     13  C   UNL d   1     -51.058  14.103  23.189  0.00  0.00     0.102 C 
ATOM     14  C   UNL d   1     -50.682  12.532  23.526  0.00  0.00     0.018 A 
ATOM     15  C   UNL d   1     -49.704  11.495  23.695  0.00  0.00     0.003 A 
ATOM     16  C   UNL d   1     -47.316  13.665  23.018  0.00  0.00     0.000 A 
ATOM     17  C   UNL d   1     -46.927  12.097  23.353  0.00  0.00     0.003 A 
ATOM     18  C   UNL d   1     -50.496  11.733  23.698  0.00  0.00     0.002 A 
ATOM     19  C   UNL d   1     -46.528  13.426  23.016  0.00  0.00     0.000 A 
ATOM     20  C   UNL d   1     -46.333  12.642  23.184  0.00  0.00     0.000 A 
ENDROOT
BRANCH   2  21
ATOM     21  N   UNL d   1     -48.290  14.690  22.851  0.00  0.00    -0.238 NA
ATOM     22  C   UNL d   1     -48.391  15.240  22.245  0.00  0.00     0.120 C 
ENDBRANCH   2  21
TORSDOF 1
ENDMDL
MODEL 5
REMARK VINA RESULT:     -10.4      1.164      2.375
REMARK  1 active torsions:
REMARK  status: ('A' for Active; 'I' for Inactive)
REMARK    1  A    between atoms: N_13  and  C_2 
ROOT
ATOM      1  C   UNL d   1     -48.355  12.943  23.224  0.00  0.00     0.024 A 
ATOM      2  C   UNL d   1     -47.658  12.544  23.415  0.00  0.00     0.138 A 
ATOM      3  C   UNL d   1     -46.928  12.921  23.323  0.00  0.00     0.282 A 
ATOM      4  C   UNL d   1     -48.322  13.715  22.941  0.00  0.00     0.021 A 
ATOM      5  N   UNL d   1     -46.904  13.693  23.039  0.00  0.00    -0.271 N 
ATOM      6  C   UNL d   1     -47.598  14.095  22.847  0.00  0.00     0.067 A 
ATOM      7  C   UNL d   1     -49.080  12.568  23.317  0.00  0.00     0.005 A 
ATOM      8  C   UNL d   1     -49.030  14.111  22.750  0.00  0.00     0.040 A 
ATOM      9  C   UNL d   1     -49.758  13.733  22.844  0.00  0.00     0.196 A 
ATOM     10  C   UNL d   1     -49.781  12.960  23.128  0.00  0.00     0.039 A 
ATOM     11  O   UNL d   1     -46.227  12.528  23.511  0.00  0.00    -0.265 OA
ATOM     12  O   UNL d   1     -50.459  14.125  22.655  0.00  0.00    -0.287 OA
ATOM     13  C   UNL d   1     -46.169  14.067  22.947  0.00  0.00     0.102 C 
ATOM     14  C   UNL d   1     -47.564  14.862  22.566  0.00  0.00     0.018 A 
ATOM     15  C   UNL d   1     -48.996  14.886  22.467  0.00  0.00     0.003 A 
ATOM     16  C   UNL d   1     -49.106  11.792  23.601  0.00  0.00     0.000 A 
ATOM     17  C   UNL d   1     -50.507  12.577  23.223  0.00  0.00     0.003 A 
ATOM     18  C   UNL d   1     -48.270  15.270  22.371  0.00  0.00     0.002 A 
ATOM     19  C   UNL d   1     -49.830  11.411  23.696  0.00  0.00     0.000 A 
ATOM     20  C   UNL d   1     -50.530  11.803  23.507  0.00  0.00     0.000 A 
ENDROOT
BRANCH   2  21
ATOM     21  N   UNL d   1     -47.685  11.773  23.698  0.00  0.00    -0.238 NA
ATOM     22  C   UNL d   1     -47.098  11.234  23.485  0.00  0.00     0.120 C 
ENDBRANCH   2  21
TORSDOF 1
ENDMDL
