MODEL 1
REMARK VINA RESULT:      33.3      0.000      0.000
REMARK  6 active torsions:
REMARK  status: ('A' for Active; 'I' for Inactive)
REMARK       I    between atoms: N_2  and  C_1 
REMARK       I    between atoms: N_7  and  C_1 
REMARK    1  A    between atoms: C_4  and  N_2 
REMARK       I    between atoms: C_3  and  N_8 
REMARK    2  A    between atoms: C_6  and  C_3 
REMARK    3  A    between atoms: N_5  and  C_12 
REMARK    4  A    between atoms: C_12  and  C_6 
REMARK    5  A    between atoms: N_8  and  N_7 
REMARK    6  A    between atoms: O_14  and  C_10 
ROOT
ATOM      1  C   UNL d   1      13.743  12.457  -2.535  0.00  0.00     0.387 C 
ATOM      2  N   UNL d   1      13.928  11.779  -2.097  0.00  0.00    -0.188 NA
ATOM      3  N   UNL d   1      13.270  12.399  -3.193  0.00  0.00    -0.085 NA
ATOM      4  O   UNL d   1      14.044  13.191  -2.298  0.00  0.00    -0.241 OA
ENDROOT
BRANCH   3   5
ATOM      5  N   UNL d   1      13.085  13.076  -3.631  0.00  0.00    -0.101 NA
ATOM      6  C   UNL d   1      13.151  13.070  -4.454  0.00  0.00     0.298 C 
ATOM      7  O   UNL d   1      13.401  12.383  -4.837  0.00  0.00    -0.264 OA
BRANCH   6   8
ATOM      8  C   UNL d   1      12.966  13.745  -4.883  0.00  0.00     0.083 C 
BRANCH   8   9
ATOM      9  C   UNL d   1      12.966  14.476  -4.510  0.00  0.00     0.085 C 
BRANCH   9  10
ATOM     10  N   UNL d   1      13.425  15.095  -4.808  0.00  0.00    -0.299 N 
ATOM     11  C   UNL d   1      13.460  15.222  -5.614  0.00  0.00     0.107 A 
ATOM     12  C   UNL d   1      13.918  15.840  -5.911  0.00  0.00     0.142 A 
ATOM     13  O   UNL d   1      14.338  16.328  -5.391  0.00  0.00    -0.300 OA
ATOM     14  C   UNL d   1      14.301  16.198  -4.578  0.00  0.00     0.142 A 
ATOM     15  C   UNL d   1      13.844  15.582  -4.288  0.00  0.00     0.107 A 
ENDBRANCH   9  10
ENDBRANCH   8   9
ENDBRANCH   6   8
ENDBRANCH   3   5
BRANCH   2  16
ATOM     16  C   UNL d   1      14.409  11.836  -1.429  0.00  0.00     0.108 A 
ATOM     17  C   UNL d   1      14.076  11.842  -0.680  0.00  0.00     0.112 A 
ATOM     18  C   UNL d   1      14.546  11.898  -0.017  0.00  0.00     0.026 A 
ATOM     19  C   UNL d   1      15.368  11.950  -0.096  0.00  0.00     0.002 A 
ATOM     20  C   UNL d   1      15.708  11.944  -0.849  0.00  0.00     0.002 A 
ATOM     21  C   UNL d   1      15.227  11.887  -1.516  0.00  0.00     0.021 A 
BRANCH  17  22
ATOM     22  O   UNL d   1      13.258  11.791  -0.602  0.00  0.00    -0.327 OA
ATOM     23  C   UNL d   1      12.870  12.282  -0.060  0.00  0.00     0.181 C 
ENDBRANCH  17  22
ENDBRANCH   2  16
TORSDOF 6
ENDMDL
