MODEL 1
REMARK VINA RESULT:      -3.9      0.000      0.000
REMARK  3 active torsions:
REMARK  status: ('A' for Active; 'I' for Inactive)
REMARK    1  A    between atoms: C_2  and  C_1 
REMARK       I    between atoms: N_7  and  C_2 
REMARK    2  A    between atoms: C_9  and  N_7 
REMARK    3  A    between atoms: O_16  and  C_10 
ROOT
ATOM      1  C   UNL d   1     -41.416-121.364 -51.849  0.00  0.00     0.280 C 
ATOM      2  N   UNL d   1     -41.733-121.229 -51.100  0.00  0.00    -0.208 NA
ATOM      3  O   UNL d   1     -41.155-120.720 -52.304  0.00  0.00    -0.265 OA
ENDROOT
BRANCH   1   4
ATOM      4  C   UNL d   1     -41.357-122.131 -52.146  0.00  0.00     0.065 A 
ATOM      5  C   UNL d   1     -41.518-122.366 -52.917  0.00  0.00     0.011 A 
ATOM      6  C   UNL d   1     -41.384-123.176 -52.961  0.00  0.00     0.030 A 
ATOM      7  C   UNL d   1     -41.769-121.951 -53.587  0.00  0.00     0.001 A 
ATOM      8  C   UNL d   1     -41.501-123.579 -53.677  0.00  0.00     0.006 A 
ATOM      9  S   UNL d   1     -41.142-123.439 -52.222  0.00  0.00    -0.086 SA
ATOM     10  C   UNL d   1     -41.748-123.170 -54.337  0.00  0.00     0.001 A 
ATOM     11  C   UNL d   1     -41.884-122.355 -54.295  0.00  0.00     0.000 A 
ATOM     12  C   UNL d   1     -41.128-122.782 -51.722  0.00  0.00     0.040 A 
ENDBRANCH   1   4
BRANCH   2  13
ATOM     13  C   UNL d   1     -41.992-121.871 -50.647  0.00  0.00     0.085 A 
ATOM     14  C   UNL d   1     -41.461-122.266 -50.160  0.00  0.00     0.021 A 
ATOM     15  C   UNL d   1     -41.720-122.913 -49.702  0.00  0.00     0.026 A 
ATOM     16  C   UNL d   1     -42.507-123.158 -49.737  0.00  0.00     0.094 A 
ATOM     17  C   UNL d   1     -43.036-122.755 -50.230  0.00  0.00     0.026 A 
ATOM     18  C   UNL d   1     -42.780-122.116 -50.683  0.00  0.00     0.021 A 
BRANCH  16  19
ATOM     19  O   UNL d   1     -42.751-123.807 -49.273  0.00  0.00    -0.328 OA
ATOM     20  C   UNL d   1     -43.038-123.690 -48.508  0.00  0.00     0.181 C 
ENDBRANCH  16  19
ENDBRANCH   2  13
TORSDOF 3
ENDMDL
