MODEL 1
REMARK VINA RESULT:      -7.9      0.000      0.000
REMARK  3 active torsions:
REMARK  status: ('A' for Active; 'I' for Inactive)
REMARK       I    between atoms: N_3  and  C_1 
REMARK       I    between atoms: N_5  and  C_1 
REMARK    1  A    between atoms: C_2  and  O_6 
REMARK       I    between atoms: N_4  and  C_2 
REMARK    2  A    between atoms: C_10  and  N_5 
REMARK    3  A    between atoms: O_6  and  C_11 
ROOT
ATOM      1  C   UNL d   1     -47.592  13.564  23.013  0.00  0.00     0.086 A 
ATOM      2  C   UNL d   1     -46.227  12.648  23.153  0.00  0.00     0.105 A 
ATOM      3  C   UNL d   1     -47.523  12.995  23.627  0.00  0.00     0.021 A 
ATOM      4  C   UNL d   1     -46.957  13.661  22.470  0.00  0.00     0.021 A 
ATOM      5  C   UNL d   1     -46.851  12.543  23.696  0.00  0.00     0.026 A 
ATOM      6  C   UNL d   1     -46.285  13.209  22.539  0.00  0.00     0.026 A 
ENDROOT
BRANCH   1   7
ATOM      7  N   UNL d   1     -48.264  14.014  22.944  0.00  0.00    -0.192 NA
ATOM      8  C   UNL d   1     -48.915  13.745  22.527  0.00  0.00     0.354 C 
ATOM      9  N   UNL d   1     -49.598  14.203  22.457  0.00  0.00    -0.252 N 
ATOM     10  O   UNL d   1     -48.875  12.986  22.170  0.00  0.00    -0.244 OA
ATOM     11  C   UNL d   1     -50.251  13.909  22.029  0.00  0.00     0.111 A 
ATOM     12  C   UNL d   1     -49.644  14.954  22.809  0.00  0.00     0.111 A 
ATOM     13  C   UNL d   1     -50.943  14.374  21.957  0.00  0.00     0.142 A 
ATOM     14  O   UNL d   1     -50.974  15.126  22.316  0.00  0.00    -0.300 OA
ATOM     15  C   UNL d   1     -50.327  15.412  22.738  0.00  0.00     0.142 A 
ENDBRANCH   1   7
BRANCH   2  16
ATOM     16  O   UNL d   1     -45.544  12.190  23.223  0.00  0.00    -0.259 OA
BRANCH  16  17
ATOM     17  C   UNL d   1     -45.597  11.403  23.459  0.00  0.00     0.377 C 
ATOM     18  N   UNL d   1     -44.925  10.924  23.459  0.00  0.00    -0.252 N 
ATOM     19  C   UNL d   1     -44.979  10.138  23.696  0.00  0.00     0.085 A 
ATOM     20  C   UNL d   1     -44.200  11.233  23.222  0.00  0.00     0.085 A 
ATOM     21  C   UNL d   1     -44.309   9.656  23.697  0.00  0.00     0.019 A 
ATOM     22  C   UNL d   1     -43.584   9.964  23.460  0.00  0.00     0.003 A 
ATOM     23  C   UNL d   1     -43.525  10.752  23.222  0.00  0.00     0.019 A 
ATOM     24  O   UNL d   1     -46.319  11.092  23.696  0.00  0.00    -0.237 OA
ENDBRANCH  16  17
ENDBRANCH   2  16
TORSDOF 3
ENDMDL
MODEL 2
REMARK VINA RESULT:      -7.8      0.949      5.671
REMARK  3 active torsions:
REMARK  status: ('A' for Active; 'I' for Inactive)
REMARK       I    between atoms: N_3  and  C_1 
REMARK       I    between atoms: N_5  and  C_1 
REMARK    1  A    between atoms: C_2  and  O_6 
REMARK       I    between atoms: N_4  and  C_2 
REMARK    2  A    between atoms: C_10  and  N_5 
REMARK    3  A    between atoms: O_6  and  C_11 
ROOT
ATOM      1  C   UNL d   1     -46.109  12.919  22.806  0.00  0.00     0.086 A 
ATOM      2  C   UNL d   1     -47.404  13.939  22.730  0.00  0.00     0.105 A 
ATOM      3  C   UNL d   1     -46.601  12.931  22.125  0.00  0.00     0.021 A 
ATOM      4  C   UNL d   1     -46.285  13.432  23.448  0.00  0.00     0.021 A 
ATOM      5  C   UNL d   1     -47.239  13.434  22.087  0.00  0.00     0.026 A 
ATOM      6  C   UNL d   1     -46.922  13.935  23.411  0.00  0.00     0.026 A 
ENDROOT
BRANCH   1   7
ATOM      7  N   UNL d   1     -45.472  12.417  22.844  0.00  0.00    -0.192 NA
ATOM      8  C   UNL d   1     -45.522  11.695  23.226  0.00  0.00     0.354 C 
ATOM      9  N   UNL d   1     -44.875  11.185  23.264  0.00  0.00    -0.252 N 
ATOM     10  O   UNL d   1     -46.253  11.481  23.583  0.00  0.00    -0.244 OA
ATOM     11  C   UNL d   1     -44.948  10.453  23.659  0.00  0.00     0.111 A 
ATOM     12  C   UNL d   1     -44.151  11.390  22.914  0.00  0.00     0.111 A 
ATOM     13  C   UNL d   1     -44.291   9.936  23.698  0.00  0.00     0.142 A 
ATOM     14  O   UNL d   1     -43.570  10.157  23.341  0.00  0.00    -0.300 OA
ATOM     15  C   UNL d   1     -43.503  10.880  22.952  0.00  0.00     0.142 A 
ENDBRANCH   1   7
BRANCH   2  16
ATOM     16  O   UNL d   1     -48.051  14.449  22.692  0.00  0.00    -0.259 OA
BRANCH  16  17
ATOM     17  C   UNL d   1     -48.816  14.145  22.671  0.00  0.00     0.377 C 
ATOM     18  N   UNL d   1     -49.453  14.609  22.916  0.00  0.00    -0.252 N 
ATOM     19  C   UNL d   1     -50.217  14.304  22.895  0.00  0.00     0.085 A 
ATOM     20  C   UNL d   1     -49.325  15.377  23.181  0.00  0.00     0.085 A 
ATOM     21  C   UNL d   1     -50.857  14.765  23.138  0.00  0.00     0.019 A 
ATOM     22  C   UNL d   1     -50.730  15.533  23.404  0.00  0.00     0.003 A 
ATOM     23  C   UNL d   1     -49.965  15.843  23.427  0.00  0.00     0.019 A 
ATOM     24  O   UNL d   1     -48.948  13.378  22.407  0.00  0.00    -0.237 OA
ENDBRANCH  16  17
ENDBRANCH   2  16
TORSDOF 3
ENDMDL
MODEL 3
REMARK VINA RESULT:      -6.4      1.474      5.624
REMARK  3 active torsions:
REMARK  status: ('A' for Active; 'I' for Inactive)
REMARK       I    between atoms: N_3  and  C_1 
REMARK       I    between atoms: N_5  and  C_1 
REMARK    1  A    between atoms: C_2  and  O_6 
REMARK       I    between atoms: N_4  and  C_2 
REMARK    2  A    between atoms: C_10  and  N_5 
REMARK    3  A    between atoms: O_6  and  C_11 
ROOT
ATOM      1  C   UNL d   1     -46.475  12.770  23.033  0.00  0.00     0.086 A 
ATOM      2  C   UNL d   1     -48.009  13.302  23.331  0.00  0.00     0.105 A 
ATOM      3  C   UNL d   1     -47.115  12.226  23.064  0.00  0.00     0.021 A 
ATOM      4  C   UNL d   1     -46.625  13.588  23.156  0.00  0.00     0.021 A 
ATOM      5  C   UNL d   1     -47.871  12.488  23.210  0.00  0.00     0.026 A 
ATOM      6  C   UNL d   1     -47.381  13.850  23.303  0.00  0.00     0.026 A 
ENDROOT
BRANCH   1   7
ATOM      7  N   UNL d   1     -45.721  12.508  22.886  0.00  0.00    -0.192 NA
ATOM      8  C   UNL d   1     -45.276  12.817  22.271  0.00  0.00     0.354 C 
ATOM      9  N   UNL d   1     -44.510  12.551  22.122  0.00  0.00    -0.252 N 
ATOM     10  O   UNL d   1     -45.620  13.414  21.791  0.00  0.00    -0.244 OA
ATOM     11  C   UNL d   1     -44.074  12.879  21.490  0.00  0.00     0.111 A 
ATOM     12  C   UNL d   1     -44.165  11.961  22.593  0.00  0.00     0.111 A 
ATOM     13  C   UNL d   1     -43.297  12.609  21.339  0.00  0.00     0.142 A 
ATOM     14  O   UNL d   1     -42.964  12.015  21.822  0.00  0.00    -0.300 OA
ATOM     15  C   UNL d   1     -43.399  11.695  22.444  0.00  0.00     0.142 A 
ENDBRANCH   1   7
BRANCH   2  16
ATOM     16  O   UNL d   1     -48.775  13.567  23.480  0.00  0.00    -0.259 OA
BRANCH  16  17
ATOM     17  C   UNL d   1     -49.293  13.708  22.855  0.00  0.00     0.377 C 
ATOM     18  N   UNL d   1     -49.883  14.280  22.927  0.00  0.00    -0.252 N 
ATOM     19  C   UNL d   1     -50.399  14.420  22.301  0.00  0.00     0.085 A 
ATOM     20  C   UNL d   1     -49.955  14.712  23.624  0.00  0.00     0.085 A 
ATOM     21  C   UNL d   1     -50.991  14.991  22.370  0.00  0.00     0.019 A 
ATOM     22  C   UNL d   1     -51.064  15.423  23.066  0.00  0.00     0.003 A 
ATOM     23  C   UNL d   1     -50.548  15.286  23.696  0.00  0.00     0.019 A 
ATOM     24  O   UNL d   1     -49.223  13.279  22.158  0.00  0.00    -0.237 OA
ENDBRANCH  16  17
ENDBRANCH   2  16
TORSDOF 3
ENDMDL
MODEL 4
REMARK VINA RESULT:      -5.9      1.982      2.393
REMARK  3 active torsions:
REMARK  status: ('A' for Active; 'I' for Inactive)
REMARK       I    between atoms: N_3  and  C_1 
REMARK       I    between atoms: N_5  and  C_1 
REMARK    1  A    between atoms: C_2  and  O_6 
REMARK       I    between atoms: N_4  and  C_2 
REMARK    2  A    between atoms: C_10  and  N_5 
REMARK    3  A    between atoms: O_6  and  C_11 
ROOT
ATOM      1  C   UNL d   1     -47.544  13.329  22.746  0.00  0.00     0.086 A 
ATOM      2  C   UNL d   1     -45.942  13.496  22.387  0.00  0.00     0.105 A 
ATOM      3  C   UNL d   1     -46.990  13.512  23.351  0.00  0.00     0.021 A 
ATOM      4  C   UNL d   1     -47.273  13.232  21.956  0.00  0.00     0.021 A 
ATOM      5  C   UNL d   1     -46.201  13.594  23.174  0.00  0.00     0.026 A 
ATOM      6  C   UNL d   1     -46.484  13.314  21.780  0.00  0.00     0.026 A 
ENDROOT
BRANCH   1   7
ATOM      7  N   UNL d   1     -48.333  13.247  22.922  0.00  0.00    -0.192 NA
ATOM      8  C   UNL d   1     -48.649  12.521  23.129  0.00  0.00     0.354 C 
ATOM      9  N   UNL d   1     -49.450  12.438  23.308  0.00  0.00    -0.252 N 
ATOM     10  O   UNL d   1     -48.136  11.855  23.155  0.00  0.00    -0.244 OA
ATOM     11  C   UNL d   1     -49.751  11.688  23.516  0.00  0.00     0.111 A 
ATOM     12  C   UNL d   1     -49.961  13.091  23.283  0.00  0.00     0.111 A 
ATOM     13  C   UNL d   1     -50.563  11.603  23.698  0.00  0.00     0.142 A 
ATOM     14  O   UNL d   1     -51.064  12.270  23.669  0.00  0.00    -0.300 OA
ATOM     15  C   UNL d   1     -50.762  13.008  23.462  0.00  0.00     0.142 A 
ENDBRANCH   1   7
BRANCH   2  16
ATOM     16  O   UNL d   1     -45.141  13.579  22.208  0.00  0.00    -0.259 OA
BRANCH  16  17
ATOM     17  C   UNL d   1     -44.648  12.920  22.205  0.00  0.00     0.377 C 
ATOM     18  N   UNL d   1     -43.913  12.955  21.832  0.00  0.00    -0.252 N 
ATOM     19  C   UNL d   1     -43.421  12.295  21.830  0.00  0.00     0.085 A 
ATOM     20  C   UNL d   1     -43.671  13.649  21.462  0.00  0.00     0.085 A 
ATOM     21  C   UNL d   1     -42.685  12.326  21.458  0.00  0.00     0.019 A 
ATOM     22  C   UNL d   1     -42.442  13.020  21.088  0.00  0.00     0.003 A 
ATOM     23  C   UNL d   1     -42.933  13.684  21.088  0.00  0.00     0.019 A 
ATOM     24  O   UNL d   1     -44.886  12.225  22.573  0.00  0.00    -0.237 OA
ENDBRANCH  16  17
ENDBRANCH   2  16
TORSDOF 3
ENDMDL
MODEL 5
REMARK VINA RESULT:      -5.0      8.867     10.273
REMARK  3 active torsions:
REMARK  status: ('A' for Active; 'I' for Inactive)
REMARK       I    between atoms: N_3  and  C_1 
REMARK       I    between atoms: N_5  and  C_1 
REMARK    1  A    between atoms: C_2  and  O_6 
REMARK       I    between atoms: N_4  and  C_2 
REMARK    2  A    between atoms: C_10  and  N_5 
REMARK    3  A    between atoms: O_6  and  C_11 
ROOT
ATOM      1  C   UNL d   1     -39.123  15.143  19.914  0.00  0.00     0.086 A 
ATOM      2  C   UNL d   1     -39.160  14.935  18.277  0.00  0.00     0.105 A 
ATOM      3  C   UNL d   1     -38.413  15.172  19.466  0.00  0.00     0.021 A 
ATOM      4  C   UNL d   1     -39.852  15.008  19.519  0.00  0.00     0.021 A 
ATOM      5  C   UNL d   1     -38.431  15.070  18.659  0.00  0.00     0.026 A 
ATOM      6  C   UNL d   1     -39.871  14.905  18.713  0.00  0.00     0.026 A 
ENDROOT
BRANCH   1   7
ATOM      7  N   UNL d   1     -39.105  15.246  20.719  0.00  0.00    -0.192 NA
ATOM      8  C   UNL d   1     -38.873  14.641  21.219  0.00  0.00     0.354 C 
ATOM      9  N   UNL d   1     -38.854  14.745  22.038  0.00  0.00    -0.252 N 
ATOM     10  O   UNL d   1     -38.652  13.904  20.880  0.00  0.00    -0.244 OA
ATOM     11  C   UNL d   1     -38.615  14.114  22.529  0.00  0.00     0.111 A 
ATOM     12  C   UNL d   1     -39.071  15.469  22.379  0.00  0.00     0.111 A 
ATOM     13  C   UNL d   1     -38.596  14.220  23.359  0.00  0.00     0.142 A 
ATOM     14  O   UNL d   1     -38.817  14.954  23.687  0.00  0.00    -0.300 OA
ATOM     15  C   UNL d   1     -39.053  15.574  23.197  0.00  0.00     0.142 A 
ENDBRANCH   1   7
BRANCH   2  16
ATOM     16  O   UNL d   1     -39.179  14.831  17.459  0.00  0.00    -0.259 OA
BRANCH  16  17
ATOM     17  C   UNL d   1     -38.878  14.143  17.124  0.00  0.00     0.377 C 
ATOM     18  N   UNL d   1     -38.566  14.156  16.360  0.00  0.00    -0.252 N 
ATOM     19  C   UNL d   1     -38.265  13.466  16.025  0.00  0.00     0.085 A 
ATOM     20  C   UNL d   1     -38.555  14.858  15.932  0.00  0.00     0.085 A 
ATOM     21  C   UNL d   1     -37.953  13.476  15.262  0.00  0.00     0.019 A 
ATOM     22  C   UNL d   1     -37.942  14.179  14.833  0.00  0.00     0.003 A 
ATOM     23  C   UNL d   1     -38.242  14.872  15.164  0.00  0.00     0.019 A 
ATOM     24  O   UNL d   1     -38.886  13.439  17.548  0.00  0.00    -0.237 OA
ENDBRANCH  16  17
ENDBRANCH   2  16
TORSDOF 3
ENDMDL
