MODEL 1
REMARK VINA RESULT:      67.4      0.000      0.000
REMARK  5 active torsions:
REMARK  status: ('A' for Active; 'I' for Inactive)
REMARK    1  A    between atoms: C_7  and  C_1 
REMARK    2  A    between atoms: C_12  and  N_2 
REMARK    3  A    between atoms: C_8  and  C_7 
REMARK    4  A    between atoms: O_25  and  C_20 
REMARK    5  A    between atoms: C_26  and  O_25 
ROOT
ATOM      1  N   UNL d   1      14.106  15.149  -4.051  0.00  0.00    -0.242 N 
ATOM      2  C   UNL d   1      14.246  15.235  -3.232  0.00  0.00     0.267 A 
ATOM      3  C   UNL d   1      14.001  14.343  -4.205  0.00  0.00     0.267 A 
ATOM      4  C   UNL d   1      14.075  13.936  -3.493  0.00  0.00     0.062 A 
ATOM      5  C   UNL d   1      14.227  14.484  -2.890  0.00  0.00     0.066 A 
ATOM      6  O   UNL d   1      14.381  15.950  -2.840  0.00  0.00    -0.267 OA
ATOM      7  O   UNL d   1      13.849  14.010  -4.943  0.00  0.00    -0.267 OA
ENDROOT
BRANCH   4   8
ATOM      8  C   UNL d   1      14.010  13.129  -3.395  0.00  0.00     0.018 C 
BRANCH   8   9
ATOM      9  C   UNL d   1      14.079  12.871  -2.611  0.00  0.00     0.045 A 
ATOM     10  N   UNL d   1      14.661  13.076  -2.068  0.00  0.00    -0.308 N 
ATOM     11  C   UNL d   1      14.505  12.687  -1.360  0.00  0.00     0.060 A 
ATOM     12  C   UNL d   1      15.287  13.582  -2.214  0.00  0.00     0.099 C 
ATOM     13  C   UNL d   1      14.894  12.683  -0.639  0.00  0.00     0.017 A 
ATOM     14  C   UNL d   1      13.821  12.237  -1.465  0.00  0.00    -0.002 A 
ATOM     15  C   UNL d   1      14.606  12.232  -0.016  0.00  0.00     0.002 A 
ATOM     16  C   UNL d   1      13.915  11.780  -0.126  0.00  0.00    -0.000 A 
ATOM     17  C   UNL d   1      13.526  11.783  -0.848  0.00  0.00    -0.003 A 
ATOM     18  C   UNL d   1      13.558  12.351  -2.238  0.00  0.00     0.054 A 
ATOM     19  C   UNL d   1      13.116  11.842  -1.748  0.00  0.00     0.010 C 
ATOM     20  C   UNL d   1      12.874  11.977  -2.535  0.00  0.00     0.010 C 
ENDBRANCH   8   9
ENDBRANCH   4   8
BRANCH   1  21
ATOM     21  C   UNL d   1      14.078  15.757  -4.599  0.00  0.00     0.070 A 
ATOM     22  C   UNL d   1      14.357  16.507  -4.403  0.00  0.00     0.020 A 
ATOM     23  C   UNL d   1      14.328  17.123  -4.961  0.00  0.00     0.026 A 
ATOM     24  C   UNL d   1      14.019  16.985  -5.714  0.00  0.00     0.100 A 
ATOM     25  C   UNL d   1      13.738  16.230  -5.913  0.00  0.00     0.026 A 
ATOM     26  C   UNL d   1      13.766  15.618  -5.359  0.00  0.00     0.020 A 
BRANCH  24  27
ATOM     27  O   UNL d   1      13.988  17.592  -6.271  0.00  0.00    -0.305 OA
BRANCH  27  28
ATOM     28  C   UNL d   1      13.663  18.320  -6.075  0.00  0.00     0.123 C 
ATOM     29  C   UNL d   1      14.006  19.017  -6.348  0.00  0.00     0.029 C 
ENDBRANCH  27  28
ENDBRANCH  24  27
ENDBRANCH   1  21
TORSDOF 5
ENDMDL
MODEL 2
REMARK VINA RESULT:      67.8      1.324      2.259
REMARK  5 active torsions:
REMARK  status: ('A' for Active; 'I' for Inactive)
REMARK    1  A    between atoms: C_7  and  C_1 
REMARK    2  A    between atoms: C_12  and  N_2 
REMARK    3  A    between atoms: C_8  and  C_7 
REMARK    4  A    between atoms: O_25  and  C_20 
REMARK    5  A    between atoms: C_26  and  O_25 
ROOT
ATOM      1  N   UNL d   1      14.040  16.363  -5.301  0.00  0.00    -0.242 N 
ATOM      2  C   UNL d   1      14.593  15.960  -4.822  0.00  0.00     0.267 A 
ATOM      3  C   UNL d   1      13.432  15.833  -5.483  0.00  0.00     0.267 A 
ATOM      4  C   UNL d   1      13.604  15.113  -5.123  0.00  0.00     0.062 A 
ATOM      5  C   UNL d   1      14.321  15.188  -4.714  0.00  0.00     0.066 A 
ATOM      6  O   UNL d   1      15.288  16.283  -4.514  0.00  0.00    -0.267 OA
ATOM      7  O   UNL d   1      12.770  16.001  -5.945  0.00  0.00    -0.267 OA
ENDROOT
BRANCH   4   8
ATOM      8  C   UNL d   1      13.148  14.439  -5.162  0.00  0.00     0.018 C 
BRANCH   8   9
ATOM      9  C   UNL d   1      13.288  13.893  -4.555  0.00  0.00     0.045 A 
ATOM     10  N   UNL d   1      13.536  14.054  -3.787  0.00  0.00    -0.308 N 
ATOM     11  C   UNL d   1      13.602  13.343  -3.380  0.00  0.00     0.060 A 
ATOM     12  C   UNL d   1      13.689  14.799  -3.486  0.00  0.00     0.099 C 
ATOM     13  C   UNL d   1      13.822  13.169  -2.611  0.00  0.00     0.017 A 
ATOM     14  C   UNL d   1      13.394  12.735  -3.899  0.00  0.00    -0.002 A 
ATOM     15  C   UNL d   1      13.838  12.391  -2.350  0.00  0.00     0.002 A 
ATOM     16  C   UNL d   1      13.627  11.781  -2.877  0.00  0.00    -0.000 A 
ATOM     17  C   UNL d   1      13.406  11.954  -3.647  0.00  0.00    -0.003 A 
ATOM     18  C   UNL d   1      13.200  13.076  -4.624  0.00  0.00     0.054 A 
ATOM     19  C   UNL d   1      13.152  12.246  -4.559  0.00  0.00     0.010 C 
ATOM     20  C   UNL d   1      12.962  12.620  -5.281  0.00  0.00     0.010 C 
ENDBRANCH   8   9
ENDBRANCH   4   8
BRANCH   1  21
ATOM     21  C   UNL d   1      14.096  17.143  -5.543  0.00  0.00     0.070 A 
ATOM     22  C   UNL d   1      13.608  17.430  -6.141  0.00  0.00     0.020 A 
ATOM     23  C   UNL d   1      13.666  18.223  -6.386  0.00  0.00     0.026 A 
ATOM     24  C   UNL d   1      14.215  18.726  -6.029  0.00  0.00     0.100 A 
ATOM     25  C   UNL d   1      14.707  18.439  -5.426  0.00  0.00     0.026 A 
ATOM     26  C   UNL d   1      14.650  17.652  -5.183  0.00  0.00     0.020 A 
BRANCH  24  27
ATOM     27  O   UNL d   1      14.277  19.512  -6.267  0.00  0.00    -0.305 OA
BRANCH  27  28
ATOM     28  C   UNL d   1      14.618  20.071  -5.772  0.00  0.00     0.123 C 
ATOM     29  C   UNL d   1      14.631  20.866  -5.987  0.00  0.00     0.029 C 
ENDBRANCH  27  28
ENDBRANCH  24  27
ENDBRANCH   1  21
TORSDOF 5
ENDMDL
MODEL 3
REMARK VINA RESULT:      69.9      1.207      5.938
REMARK  5 active torsions:
REMARK  status: ('A' for Active; 'I' for Inactive)
REMARK    1  A    between atoms: C_7  and  C_1 
REMARK    2  A    between atoms: C_12  and  N_2 
REMARK    3  A    between atoms: C_8  and  C_7 
REMARK    4  A    between atoms: O_25  and  C_20 
REMARK    5  A    between atoms: C_26  and  O_25 
ROOT
ATOM      1  N   UNL d   1      13.978  15.423  -4.447  0.00  0.00    -0.242 N 
ATOM      2  C   UNL d   1      14.197  16.118  -4.037  0.00  0.00     0.267 A 
ATOM      3  C   UNL d   1      13.909  15.616  -5.248  0.00  0.00     0.267 A 
ATOM      4  C   UNL d   1      14.083  16.416  -5.334  0.00  0.00     0.062 A 
ATOM      5  C   UNL d   1      14.261  16.728  -4.588  0.00  0.00     0.066 A 
ATOM      6  O   UNL d   1      14.325  16.175  -3.223  0.00  0.00    -0.267 OA
ATOM      7  O   UNL d   1      13.703  15.094  -5.853  0.00  0.00    -0.267 OA
ENDROOT
BRANCH   4   8
ATOM      8  C   UNL d   1      14.080  16.832  -6.035  0.00  0.00     0.018 C 
BRANCH   8   9
ATOM      9  C   UNL d   1      14.145  17.653  -5.947  0.00  0.00     0.045 A 
ATOM     10  N   UNL d   1      14.801  18.077  -5.688  0.00  0.00    -0.308 N 
ATOM     11  C   UNL d   1      14.611  18.877  -5.690  0.00  0.00     0.060 A 
ATOM     12  C   UNL d   1      15.518  17.750  -5.468  0.00  0.00     0.099 C 
ATOM     13  C   UNL d   1      15.042  19.544  -5.488  0.00  0.00     0.017 A 
ATOM     14  C   UNL d   1      13.832  18.951  -5.951  0.00  0.00    -0.002 A 
ATOM     15  C   UNL d   1      14.703  20.289  -5.545  0.00  0.00     0.002 A 
ATOM     16  C   UNL d   1      13.916  20.360  -5.810  0.00  0.00    -0.000 A 
ATOM     17  C   UNL d   1      13.484  19.693  -6.012  0.00  0.00    -0.003 A 
ATOM     18  C   UNL d   1      13.544  18.195  -6.110  0.00  0.00     0.054 A 
ATOM     19  C   UNL d   1      13.031  18.841  -6.235  0.00  0.00     0.010 C 
ATOM     20  C   UNL d   1      12.769  18.063  -6.387  0.00  0.00     0.010 C 
ENDBRANCH   8   9
ENDBRANCH   4   8
BRANCH   1  21
ATOM     21  C   UNL d   1      13.855  14.687  -4.110  0.00  0.00     0.070 A 
ATOM     22  C   UNL d   1      13.368  14.136  -4.480  0.00  0.00     0.020 A 
ATOM     23  C   UNL d   1      13.244  13.389  -4.136  0.00  0.00     0.026 A 
ATOM     24  C   UNL d   1      13.610  13.197  -3.422  0.00  0.00     0.100 A 
ATOM     25  C   UNL d   1      14.101  13.752  -3.047  0.00  0.00     0.026 A 
ATOM     26  C   UNL d   1      14.224  14.493  -3.388  0.00  0.00     0.020 A 
BRANCH  24  27
ATOM     27  O   UNL d   1      13.491  12.458  -3.076  0.00  0.00    -0.305 OA
BRANCH  27  28
ATOM     28  C   UNL d   1      13.923  12.233  -2.416  0.00  0.00     0.123 C 
ATOM     29  C   UNL d   1      13.574  11.779  -1.824  0.00  0.00     0.029 C 
ENDBRANCH  27  28
ENDBRANCH  24  27
ENDBRANCH   1  21
TORSDOF 5
ENDMDL
MODEL 4
REMARK VINA RESULT:      70.2      2.110      6.193
REMARK  5 active torsions:
REMARK  status: ('A' for Active; 'I' for Inactive)
REMARK    1  A    between atoms: C_7  and  C_1 
REMARK    2  A    between atoms: C_12  and  N_2 
REMARK    3  A    between atoms: C_8  and  C_7 
REMARK    4  A    between atoms: O_25  and  C_20 
REMARK    5  A    between atoms: C_26  and  O_25 
ROOT
ATOM      1  N   UNL d   1      14.042  16.032  -4.918  0.00  0.00    -0.242 N 
ATOM      2  C   UNL d   1      14.323  16.667  -4.454  0.00  0.00     0.267 A 
ATOM      3  C   UNL d   1      13.928  16.313  -5.687  0.00  0.00     0.267 A 
ATOM      4  C   UNL d   1      14.135  17.110  -5.701  0.00  0.00     0.062 A 
ATOM      5  C   UNL d   1      14.380  17.331  -4.940  0.00  0.00     0.066 A 
ATOM      6  O   UNL d   1      14.510  16.629  -3.650  0.00  0.00    -0.267 OA
ATOM      7  O   UNL d   1      13.654  15.870  -6.326  0.00  0.00    -0.267 OA
ENDROOT
BRANCH   4   8
ATOM      8  C   UNL d   1      14.106  17.600  -6.351  0.00  0.00     0.018 C 
BRANCH   8   9
ATOM      9  C   UNL d   1      14.188  18.406  -6.178  0.00  0.00     0.045 A 
ATOM     10  N   UNL d   1      14.875  18.802  -5.959  0.00  0.00    -0.308 N 
ATOM     11  C   UNL d   1      14.693  19.595  -5.843  0.00  0.00     0.060 A 
ATOM     12  C   UNL d   1      15.612  18.457  -5.872  0.00  0.00     0.099 C 
ATOM     13  C   UNL d   1      15.153  20.237  -5.624  0.00  0.00     0.017 A 
ATOM     14  C   UNL d   1      13.888  19.694  -5.991  0.00  0.00    -0.002 A 
ATOM     15  C   UNL d   1      14.815  20.982  -5.550  0.00  0.00     0.002 A 
ATOM     16  C   UNL d   1      14.001  21.077  -5.701  0.00  0.00    -0.000 A 
ATOM     17  C   UNL d   1      13.541  20.435  -5.920  0.00  0.00    -0.003 A 
ATOM     18  C   UNL d   1      13.576  18.958  -6.198  0.00  0.00     0.054 A 
ATOM     19  C   UNL d   1      13.056  19.611  -6.180  0.00  0.00     0.010 C 
ATOM     20  C   UNL d   1      12.770  18.854  -6.386  0.00  0.00     0.010 C 
ENDBRANCH   8   9
ENDBRANCH   4   8
BRANCH   1  21
ATOM     21  C   UNL d   1      13.905  15.269  -4.653  0.00  0.00     0.070 A 
ATOM     22  C   UNL d   1      14.084  15.059  -3.878  0.00  0.00     0.020 A 
ATOM     23  C   UNL d   1      13.944  14.283  -3.611  0.00  0.00     0.026 A 
ATOM     24  C   UNL d   1      13.624  13.721  -4.124  0.00  0.00     0.100 A 
ATOM     25  C   UNL d   1      13.443  13.931  -4.906  0.00  0.00     0.026 A 
ATOM     26  C   UNL d   1      13.582  14.701  -5.171  0.00  0.00     0.020 A 
BRANCH  24  27
ATOM     27  O   UNL d   1      13.484  12.952  -3.865  0.00  0.00    -0.305 OA
BRANCH  27  28
ATOM     28  C   UNL d   1      13.383  12.342  -4.406  0.00  0.00     0.123 C 
ATOM     29  C   UNL d   1      12.771  11.799  -4.312  0.00  0.00     0.029 C 
ENDBRANCH  27  28
ENDBRANCH  24  27
ENDBRANCH   1  21
TORSDOF 5
ENDMDL
