MODEL 1
REMARK VINA RESULT:       6.9      0.000      0.000
REMARK  0 active torsions:
REMARK  status: ('A' for Active; 'I' for Inactive)
ROOT
ATOM      1  C   UNL d   1      23.739  12.555  -1.652  0.00  0.00     0.062 A 
ATOM      2  C   UNL d   1      24.280  12.056  -1.275  0.00  0.00     0.116 A 
ATOM      3  C   UNL d   1      23.147  12.943  -1.194  0.00  0.00     0.192 A 
ATOM      4  N   UNL d   1      23.125  12.810  -0.369  0.00  0.00    -0.171 N 
ATOM      5  N   UNL d   1      24.241  11.939  -0.458  0.00  0.00    -0.217 NA
ATOM      6  S   UNL d   1      24.768  11.780  -1.886  0.00  0.00    -0.068 SA
ATOM      7  C   UNL d   1      23.885  12.585  -2.448  0.00  0.00     0.011 A 
ATOM      8  N   UNL d   1      22.150  13.639  -0.666  0.00  0.00    -0.022 NA
ATOM      9  N   UNL d   1      22.489  13.255  -0.036  0.00  0.00    -0.037 NA
ATOM     10  N   UNL d   1      22.550  13.452  -1.380  0.00  0.00    -0.108 NA
ATOM     11  C   UNL d   1      24.539  12.089  -2.585  0.00  0.00     0.031 A 
ATOM     12  C   UNL d   1      23.675  12.308  -0.015  0.00  0.00     0.204 A 
ATOM     13  C   UNL d   1      23.690  12.876  -3.196  0.00  0.00     0.001 A 
ATOM     14  C   UNL d   1      24.726  12.084  -3.372  0.00  0.00     0.006 A 
ATOM     15  C   UNL d   1      24.204  12.568  -3.745  0.00  0.00     0.001 A 
ENDROOT
TORSDOF 0
ENDMDL
