MODEL 1
REMARK VINA RESULT:      -7.7      0.000      0.000
REMARK  5 active torsions:
REMARK  status: ('A' for Active; 'I' for Inactive)
REMARK    1  A    between atoms: C_3  and  C_1 
REMARK    2  A    between atoms: C_5  and  C_3 
REMARK    3  A    between atoms: N_8  and  C_5 
REMARK    4  A    between atoms: C_19  and  N_11 
REMARK    5  A    between atoms: C_18  and  C_19 
ROOT
ATOM      1  C   UNL d   1      51.116  34.056  52.679  0.00  0.00     0.110 C 
ATOM      2  C   UNL d   1      51.237  34.232  51.883  0.00  0.00     0.105 C 
ATOM      3  N   UNL d   1      51.369  34.407  51.097  0.00  0.00    -0.191 NA
ENDROOT
BRANCH   1   4
ATOM      4  C   UNL d   1      51.759  33.993  53.192  0.00  0.00     0.122 A 
ATOM      5  N   UNL d   1      52.136  34.617  53.578  0.00  0.00    -0.238 NA
ATOM      6  C   UNL d   1      52.752  34.305  54.036  0.00  0.00     0.088 A 
ATOM      7  C   UNL d   1      53.305  34.660  54.530  0.00  0.00     0.020 A 
ATOM      8  C   UNL d   1      52.754  33.486  53.933  0.00  0.00     0.049 A 
ATOM      9  C   UNL d   1      53.862  34.188  54.921  0.00  0.00     0.002 A 
ATOM     10  C   UNL d   1      53.865  33.370  54.818  0.00  0.00     0.001 A 
ATOM     11  C   UNL d   1      53.310  33.015  54.323  0.00  0.00     0.008 A 
ATOM     12  S   UNL d   1      52.140  33.290  53.411  0.00  0.00    -0.066 SA
ENDBRANCH   1   4
BRANCH   1  13
ATOM     13  C   UNL d   1      50.350  33.942  52.960  0.00  0.00     0.093 C 
BRANCH  13  14
ATOM     14  N   UNL d   1      49.758  34.488  52.781  0.00  0.00    -0.299 N 
ATOM     15  C   UNL d   1      49.368  34.443  52.059  0.00  0.00     0.100 A 
ATOM     16  C   UNL d   1      48.773  34.991  51.879  0.00  0.00     0.100 A 
ATOM     17  N   UNL d   1      48.575  35.582  52.428  0.00  0.00    -0.300 N 
ATOM     18  C   UNL d   1      48.972  35.620  53.151  0.00  0.00     0.100 A 
ATOM     19  C   UNL d   1      49.561  35.077  53.329  0.00  0.00     0.100 A 
BRANCH  17  20
ATOM     20  C   UNL d   1      47.983  36.129  52.252  0.00  0.00     0.080 C 
BRANCH  20  21
ATOM     21  C   UNL d   1      47.201  35.964  52.440  0.00  0.00     0.020 A 
ATOM     22  C   UNL d   1      46.712  35.622  51.882  0.00  0.00     0.028 A 
ATOM     23  C   UNL d   1      45.928  35.456  52.067  0.00  0.00     0.119 A 
ATOM     24  O   UNL d   1      45.319  35.116  51.618  0.00  0.00    -0.300 OA
ATOM     25  C   UNL d   1      45.636  35.634  52.816  0.00  0.00     0.119 A 
ATOM     26  C   UNL d   1      44.644  35.087  52.099  0.00  0.00     0.304 A 
ATOM     27  O   UNL d   1      44.840  35.405  52.835  0.00  0.00    -0.300 OA
ATOM     28  C   UNL d   1      46.129  35.979  53.380  0.00  0.00     0.026 A 
ATOM     29  C   UNL d   1      46.918  36.146  53.192  0.00  0.00     0.004 A 
ENDBRANCH  20  21
ENDBRANCH  17  20
ENDBRANCH  13  14
ENDBRANCH   1  13
TORSDOF 5
ENDMDL
MODEL 2
REMARK VINA RESULT:      -7.5      2.925      6.342
REMARK  5 active torsions:
REMARK  status: ('A' for Active; 'I' for Inactive)
REMARK    1  A    between atoms: C_3  and  C_1 
REMARK    2  A    between atoms: C_5  and  C_3 
REMARK    3  A    between atoms: N_8  and  C_5 
REMARK    4  A    between atoms: C_19  and  N_11 
REMARK    5  A    between atoms: C_18  and  C_19 
ROOT
ATOM      1  C   UNL d   1      49.437  34.810  52.453  0.00  0.00     0.110 C 
ATOM      2  C   UNL d   1      49.677  34.499  51.729  0.00  0.00     0.105 C 
ATOM      3  N   UNL d   1      49.907  34.194  51.007  0.00  0.00    -0.191 NA
ENDROOT
BRANCH   1   4
ATOM      4  C   UNL d   1      48.729  35.229  52.509  0.00  0.00     0.122 A 
ATOM      5  N   UNL d   1      48.463  35.652  53.166  0.00  0.00    -0.238 NA
ATOM      6  C   UNL d   1      47.728  35.985  52.980  0.00  0.00     0.088 A 
ATOM      7  C   UNL d   1      47.211  36.456  53.415  0.00  0.00     0.020 A 
ATOM      8  C   UNL d   1      47.540  35.769  52.207  0.00  0.00     0.049 A 
ATOM      9  C   UNL d   1      46.503  36.708  53.068  0.00  0.00     0.002 A 
ATOM     10  C   UNL d   1      46.314  36.491  52.295  0.00  0.00     0.001 A 
ATOM     11  C   UNL d   1      46.832  36.021  51.861  0.00  0.00     0.008 A 
ATOM     12  S   UNL d   1      48.157  35.301  51.912  0.00  0.00    -0.066 SA
ENDBRANCH   1   4
BRANCH   1  13
ATOM     13  C   UNL d   1      49.905  34.701  53.121  0.00  0.00     0.093 C 
BRANCH  13  14
ATOM     14  N   UNL d   1      50.626  34.303  53.061  0.00  0.00    -0.299 N 
ATOM     15  C   UNL d   1      50.661  33.497  53.215  0.00  0.00     0.100 A 
ATOM     16  C   UNL d   1      51.385  33.098  53.155  0.00  0.00     0.100 A 
ATOM     17  N   UNL d   1      52.070  33.515  52.939  0.00  0.00    -0.300 N 
ATOM     18  C   UNL d   1      52.027  34.325  52.785  0.00  0.00     0.100 A 
ATOM     19  C   UNL d   1      51.310  34.720  52.845  0.00  0.00     0.100 A 
BRANCH  17  20
ATOM     20  C   UNL d   1      52.792  33.121  52.877  0.00  0.00     0.080 C 
BRANCH  20  21
ATOM     21  C   UNL d   1      53.275  33.041  53.537  0.00  0.00     0.020 A 
ATOM     22  C   UNL d   1      53.703  33.683  53.807  0.00  0.00     0.028 A 
ATOM     23  C   UNL d   1      54.188  33.607  54.467  0.00  0.00     0.119 A 
ATOM     24  O   UNL d   1      54.675  34.154  54.856  0.00  0.00    -0.300 OA
ATOM     25  C   UNL d   1      54.240  32.883  54.857  0.00  0.00     0.119 A 
ATOM     26  C   UNL d   1      55.032  33.759  55.492  0.00  0.00     0.304 A 
ATOM     27  O   UNL d   1      54.763  32.978  55.492  0.00  0.00    -0.300 OA
ATOM     28  C   UNL d   1      53.808  32.236  54.585  0.00  0.00     0.026 A 
ATOM     29  C   UNL d   1      53.321  32.314  53.921  0.00  0.00     0.004 A 
ENDBRANCH  20  21
ENDBRANCH  17  20
ENDBRANCH  13  14
ENDBRANCH   1  13
TORSDOF 5
ENDMDL
MODEL 3
REMARK VINA RESULT:      -7.1      3.491      6.621
REMARK  5 active torsions:
REMARK  status: ('A' for Active; 'I' for Inactive)
REMARK    1  A    between atoms: C_3  and  C_1 
REMARK    2  A    between atoms: C_5  and  C_3 
REMARK    3  A    between atoms: N_8  and  C_5 
REMARK    4  A    between atoms: C_19  and  N_11 
REMARK    5  A    between atoms: C_18  and  C_19 
ROOT
ATOM      1  C   UNL d   1      51.201  34.280  52.951  0.00  0.00     0.110 C 
ATOM      2  C   UNL d   1      51.874  34.724  52.781  0.00  0.00     0.105 C 
ATOM      3  N   UNL d   1      52.536  35.169  52.606  0.00  0.00    -0.191 NA
ENDROOT
BRANCH   1   4
ATOM      4  C   UNL d   1      50.486  34.453  52.576  0.00  0.00     0.122 A 
ATOM      5  N   UNL d   1      50.294  34.282  51.792  0.00  0.00    -0.238 NA
ATOM      6  C   UNL d   1      49.524  34.551  51.648  0.00  0.00     0.088 A 
ATOM      7  C   UNL d   1      49.050  34.532  50.976  0.00  0.00     0.020 A 
ATOM      8  C   UNL d   1      49.240  34.889  52.345  0.00  0.00     0.049 A 
ATOM      9  C   UNL d   1      48.288  34.853  51.007  0.00  0.00     0.002 A 
ATOM     10  C   UNL d   1      48.004  35.191  51.704  0.00  0.00     0.001 A 
ATOM     11  C   UNL d   1      48.479  35.210  52.377  0.00  0.00     0.008 A 
ATOM     12  S   UNL d   1      49.833  34.829  52.921  0.00  0.00    -0.066 SA
ENDBRANCH   1   4
BRANCH   1  13
ATOM     13  C   UNL d   1      51.243  33.664  53.495  0.00  0.00     0.093 C 
BRANCH  13  14
ATOM     14  N   UNL d   1      51.834  33.093  53.429  0.00  0.00    -0.299 N 
ATOM     15  C   UNL d   1      52.497  33.134  53.912  0.00  0.00     0.100 A 
ATOM     16  C   UNL d   1      53.091  32.560  53.846  0.00  0.00     0.100 A 
ATOM     17  N   UNL d   1      53.013  31.946  53.290  0.00  0.00    -0.300 N 
ATOM     18  C   UNL d   1      52.344  31.912  52.809  0.00  0.00     0.100 A 
ATOM     19  C   UNL d   1      51.755  32.481  52.875  0.00  0.00     0.100 A 
BRANCH  17  20
ATOM     20  C   UNL d   1      53.602  31.373  53.221  0.00  0.00     0.080 C 
BRANCH  20  21
ATOM     21  C   UNL d   1      53.471  30.612  53.502  0.00  0.00     0.020 A 
ATOM     22  C   UNL d   1      53.600  30.443  54.290  0.00  0.00     0.028 A 
ATOM     23  C   UNL d   1      53.470  29.682  54.575  0.00  0.00     0.119 A 
ATOM     24  O   UNL d   1      53.553  29.358  55.333  0.00  0.00    -0.300 OA
ATOM     25  C   UNL d   1      53.209  29.091  54.063  0.00  0.00     0.119 A 
ATOM     26  C   UNL d   1      53.341  28.558  55.286  0.00  0.00     0.304 A 
ATOM     27  O   UNL d   1      53.129  28.395  54.504  0.00  0.00    -0.300 OA
ATOM     28  C   UNL d   1      53.079  29.263  53.267  0.00  0.00     0.026 A 
ATOM     29  C   UNL d   1      53.210  30.028  52.982  0.00  0.00     0.004 A 
ENDBRANCH  20  21
ENDBRANCH  17  20
ENDBRANCH  13  14
ENDBRANCH   1  13
TORSDOF 5
ENDMDL
MODEL 4
REMARK VINA RESULT:      -6.9      1.325      2.215
REMARK  5 active torsions:
REMARK  status: ('A' for Active; 'I' for Inactive)
REMARK    1  A    between atoms: C_3  and  C_1 
REMARK    2  A    between atoms: C_5  and  C_3 
REMARK    3  A    between atoms: N_8  and  C_5 
REMARK    4  A    between atoms: C_19  and  N_11 
REMARK    5  A    between atoms: C_18  and  C_19 
ROOT
ATOM      1  C   UNL d   1      52.537  32.790  53.579  0.00  0.00     0.110 C 
ATOM      2  C   UNL d   1      52.521  32.188  53.016  0.00  0.00     0.105 C 
ATOM      3  N   UNL d   1      52.515  31.591  52.459  0.00  0.00    -0.191 NA
ENDROOT
BRANCH   1   4
ATOM      4  C   UNL d   1      53.254  33.026  53.911  0.00  0.00     0.122 A 
ATOM      5  N   UNL d   1      53.962  33.146  53.506  0.00  0.00    -0.238 NA
ATOM      6  C   UNL d   1      54.538  33.379  54.053  0.00  0.00     0.088 A 
ATOM      7  C   UNL d   1      55.334  33.571  53.967  0.00  0.00     0.020 A 
ATOM      8  C   UNL d   1      54.185  33.403  54.798  0.00  0.00     0.049 A 
ATOM      9  C   UNL d   1      55.774  33.788  54.634  0.00  0.00     0.002 A 
ATOM     10  C   UNL d   1      55.421  33.812  55.379  0.00  0.00     0.001 A 
ATOM     11  C   UNL d   1      54.624  33.620  55.464  0.00  0.00     0.008 A 
ATOM     12  S   UNL d   1      53.390  33.185  54.714  0.00  0.00    -0.066 SA
ENDBRANCH   1   4
BRANCH   1  13
ATOM     13  C   UNL d   1      51.835  33.154  53.809  0.00  0.00     0.093 C 
BRANCH  13  14
ATOM     14  N   UNL d   1      51.336  33.486  53.242  0.00  0.00    -0.299 N 
ATOM     15  C   UNL d   1      51.552  34.186  52.869  0.00  0.00     0.100 A 
ATOM     16  C   UNL d   1      51.051  34.520  52.300  0.00  0.00     0.100 A 
ATOM     17  N   UNL d   1      50.334  34.146  52.110  0.00  0.00    -0.300 N 
ATOM     18  C   UNL d   1      50.124  33.443  52.489  0.00  0.00     0.100 A 
ATOM     19  C   UNL d   1      50.620  33.112  53.053  0.00  0.00     0.100 A 
BRANCH  17  20
ATOM     20  C   UNL d   1      49.832  34.475  51.543  0.00  0.00     0.080 C 
BRANCH  20  21
ATOM     21  C   UNL d   1      49.143  34.856  51.776  0.00  0.00     0.020 A 
ATOM     22  C   UNL d   1      48.467  34.786  51.323  0.00  0.00     0.028 A 
ATOM     23  C   UNL d   1      47.775  35.166  51.552  0.00  0.00     0.119 A 
ATOM     24  O   UNL d   1      47.022  35.191  51.206  0.00  0.00    -0.300 OA
ATOM     25  C   UNL d   1      47.764  35.618  52.241  0.00  0.00     0.119 A 
ATOM     26  C   UNL d   1      46.543  35.666  51.689  0.00  0.00     0.304 A 
ATOM     27  O   UNL d   1      47.000  35.928  52.325  0.00  0.00    -0.300 OA
ATOM     28  C   UNL d   1      48.446  35.690  52.699  0.00  0.00     0.026 A 
ATOM     29  C   UNL d   1      49.142  35.306  52.466  0.00  0.00     0.004 A 
ENDBRANCH  20  21
ENDBRANCH  17  20
ENDBRANCH  13  14
ENDBRANCH   1  13
TORSDOF 5
ENDMDL
MODEL 5
REMARK VINA RESULT:      -6.6      2.161      3.405
REMARK  5 active torsions:
REMARK  status: ('A' for Active; 'I' for Inactive)
REMARK    1  A    between atoms: C_3  and  C_1 
REMARK    2  A    between atoms: C_5  and  C_3 
REMARK    3  A    between atoms: N_8  and  C_5 
REMARK    4  A    between atoms: C_19  and  N_11 
REMARK    5  A    between atoms: C_18  and  C_19 
ROOT
ATOM      1  C   UNL d   1      53.200  32.224  53.333  0.00  0.00     0.110 C 
ATOM      2  C   UNL d   1      53.680  32.794  53.685  0.00  0.00     0.105 C 
ATOM      3  N   UNL d   1      54.160  33.351  54.039  0.00  0.00    -0.191 NA
ENDROOT
BRANCH   1   4
ATOM      4  C   UNL d   1      53.227  31.442  53.596  0.00  0.00     0.122 A 
ATOM      5  N   UNL d   1      53.264  31.193  54.381  0.00  0.00    -0.238 NA
ATOM      6  C   UNL d   1      53.281  30.365  54.391  0.00  0.00     0.088 A 
ATOM      7  C   UNL d   1      53.318  29.822  55.008  0.00  0.00     0.020 A 
ATOM      8  C   UNL d   1      53.254  30.102  53.609  0.00  0.00     0.049 A 
ATOM      9  C   UNL d   1      53.327  29.012  54.836  0.00  0.00     0.002 A 
ATOM     10  C   UNL d   1      53.300  28.749  54.055  0.00  0.00     0.001 A 
ATOM     11  C   UNL d   1      53.263  29.294  53.438  0.00  0.00     0.008 A 
ATOM     12  S   UNL d   1      53.220  30.767  53.115  0.00  0.00    -0.066 SA
ENDBRANCH   1   4
BRANCH   1  13
ATOM     13  C   UNL d   1      52.694  32.437  52.720  0.00  0.00     0.093 C 
BRANCH  13  14
ATOM     14  N   UNL d   1      52.112  33.009  52.843  0.00  0.00    -0.299 N 
ATOM     15  C   UNL d   1      52.239  33.780  52.590  0.00  0.00     0.100 A 
ATOM     16  C   UNL d   1      51.655  34.355  52.714  0.00  0.00     0.100 A 
ATOM     17  N   UNL d   1      50.945  34.148  53.093  0.00  0.00    -0.300 N 
ATOM     18  C   UNL d   1      50.825  33.371  53.344  0.00  0.00     0.100 A 
ATOM     19  C   UNL d   1      51.404  32.802  53.222  0.00  0.00     0.100 A 
BRANCH  17  20
ATOM     20  C   UNL d   1      50.361  34.717  53.218  0.00  0.00     0.080 C 
BRANCH  20  21
ATOM     21  C   UNL d   1      49.750  34.806  52.676  0.00  0.00     0.020 A 
ATOM     22  C   UNL d   1      49.084  35.232  52.882  0.00  0.00     0.028 A 
ATOM     23  C   UNL d   1      48.470  35.322  52.342  0.00  0.00     0.119 A 
ATOM     24  O   UNL d   1      47.743  35.718  52.400  0.00  0.00    -0.300 OA
ATOM     25  C   UNL d   1      48.527  34.982  51.594  0.00  0.00     0.119 A 
ATOM     26  C   UNL d   1      47.350  35.619  51.676  0.00  0.00     0.304 A 
ATOM     27  O   UNL d   1      47.832  35.166  51.182  0.00  0.00    -0.300 OA
ATOM     28  C   UNL d   1      49.199  34.552  51.387  0.00  0.00     0.026 A 
ATOM     29  C   UNL d   1      49.816  34.462  51.931  0.00  0.00     0.004 A 
ENDBRANCH  20  21
ENDBRANCH  17  20
ENDBRANCH  13  14
ENDBRANCH   1  13
TORSDOF 5
ENDMDL
MODEL 6
REMARK VINA RESULT:      -6.3      2.638      6.298
REMARK  5 active torsions:
REMARK  status: ('A' for Active; 'I' for Inactive)
REMARK    1  A    between atoms: C_3  and  C_1 
REMARK    2  A    between atoms: C_5  and  C_3 
REMARK    3  A    between atoms: N_8  and  C_5 
REMARK    4  A    between atoms: C_19  and  N_11 
REMARK    5  A    between atoms: C_18  and  C_19 
ROOT
ATOM      1  C   UNL d   1      47.523  36.157  52.873  0.00  0.00     0.110 C 
ATOM      2  C   UNL d   1      47.567  36.326  53.678  0.00  0.00     0.105 C 
ATOM      3  N   UNL d   1      47.601  36.491  54.477  0.00  0.00    -0.191 NA
ENDROOT
BRANCH   1   4
ATOM      4  C   UNL d   1      46.794  35.989  52.525  0.00  0.00     0.122 A 
ATOM      5  N   UNL d   1      46.209  35.496  52.835  0.00  0.00    -0.238 NA
ATOM      6  C   UNL d   1      45.572  35.485  52.306  0.00  0.00     0.088 A 
ATOM      7  C   UNL d   1      44.846  35.096  52.325  0.00  0.00     0.020 A 
ATOM      8  C   UNL d   1      45.763  35.972  51.668  0.00  0.00     0.049 A 
ATOM      9  C   UNL d   1      44.314  35.199  51.700  0.00  0.00     0.002 A 
ATOM     10  C   UNL d   1      44.506  35.686  51.062  0.00  0.00     0.001 A 
ATOM     11  C   UNL d   1      45.232  36.075  51.044  0.00  0.00     0.008 A 
ATOM     12  S   UNL d   1      46.519  36.285  51.801  0.00  0.00    -0.066 SA
ENDBRANCH   1   4
BRANCH   1  13
ATOM     13  C   UNL d   1      48.208  36.157  52.416  0.00  0.00     0.093 C 
BRANCH  13  14
ATOM     14  N   UNL d   1      48.767  35.557  52.508  0.00  0.00    -0.299 N 
ATOM     15  C   UNL d   1      49.115  35.433  53.242  0.00  0.00     0.100 A 
ATOM     16  C   UNL d   1      49.676  34.830  53.334  0.00  0.00     0.100 A 
ATOM     17  N   UNL d   1      49.884  34.356  52.684  0.00  0.00    -0.300 N 
ATOM     18  C   UNL d   1      49.529  34.487  51.951  0.00  0.00     0.100 A 
ATOM     19  C   UNL d   1      48.973  35.084  51.859  0.00  0.00     0.100 A 
BRANCH  17  20
ATOM     20  C   UNL d   1      50.442  33.755  52.773  0.00  0.00     0.080 C 
BRANCH  20  21
ATOM     21  C   UNL d   1      51.222  33.941  52.953  0.00  0.00     0.020 A 
ATOM     22  C   UNL d   1      51.525  33.750  53.686  0.00  0.00     0.028 A 
ATOM     23  C   UNL d   1      52.306  33.935  53.870  0.00  0.00     0.119 A 
ATOM     24  O   UNL d   1      52.751  33.809  54.558  0.00  0.00    -0.300 OA
ATOM     25  C   UNL d   1      52.780  34.312  53.314  0.00  0.00     0.119 A 
ATOM     26  C   UNL d   1      53.510  34.114  54.420  0.00  0.00     0.304 A 
ATOM     27  O   UNL d   1      53.527  34.423  53.655  0.00  0.00    -0.300 OA
ATOM     28  C   UNL d   1      52.474  34.505  52.572  0.00  0.00     0.026 A 
ATOM     29  C   UNL d   1      51.689  34.319  52.389  0.00  0.00     0.004 A 
ENDBRANCH  20  21
ENDBRANCH  17  20
ENDBRANCH  13  14
ENDBRANCH   1  13
TORSDOF 5
ENDMDL
