MODEL 1
REMARK VINA RESULT:      -7.5      0.000      0.000
REMARK  5 active torsions:
REMARK  status: ('A' for Active; 'I' for Inactive)
REMARK    1  A    between atoms: C_12  and  N_3 
REMARK    2  A    between atoms: C_10  and  N_7 
REMARK    3  A    between atoms: C_11  and  C_10 
REMARK    4  A    between atoms: C_15  and  C_11 
REMARK    5  A    between atoms: C_16  and  C_12 
ROOT
ATOM      1  C   UNL d   1     -47.799  13.352  23.127  0.00  0.00     0.191 A 
ATOM      2  C   UNL d   1     -47.111  13.757  22.886  0.00  0.00     0.196 A 
ATOM      3  N   UNL d   1     -48.424  13.900  23.118  0.00  0.00    -0.191 N 
ATOM      4  N   UNL d   1     -47.757  12.558  23.315  0.00  0.00    -0.204 NA
ATOM      5  N   UNL d   1     -47.326  14.545  22.734  0.00  0.00    -0.122 NA
ATOM      6  N   UNL d   1     -48.121  14.620  22.877  0.00  0.00    -0.058 NA
ATOM      7  N   UNL d   1     -46.354  12.553  23.031  0.00  0.00    -0.251 N 
ATOM      8  C   UNL d   1     -46.400  13.355  22.841  0.00  0.00     0.289 A 
ATOM      9  C   UNL d   1     -47.042  12.149  23.271  0.00  0.00     0.187 A 
ATOM     10  O   UNL d   1     -45.712  13.759  22.600  0.00  0.00    -0.265 OA
ENDROOT
BRANCH   7  11
ATOM     11  C   UNL d   1     -45.634  12.138  22.987  0.00  0.00     0.127 C 
BRANCH  11  12
ATOM     12  C   UNL d   1     -45.564  11.379  23.322  0.00  0.00     0.213 C 
ATOM     13  O   UNL d   1     -46.228  11.010  23.647  0.00  0.00    -0.285 OA
BRANCH  12  14
ATOM     14  C   UNL d   1     -44.833  11.004  23.325  0.00  0.00     0.041 A 
ATOM     15  C   UNL d   1     -44.184  11.359  22.957  0.00  0.00     0.003 A 
ATOM     16  C   UNL d   1     -43.457  10.991  22.958  0.00  0.00     0.000 A 
ATOM     17  C   UNL d   1     -43.371  10.256  23.330  0.00  0.00     0.000 A 
ATOM     18  C   UNL d   1     -44.020   9.902  23.698  0.00  0.00     0.000 A 
ATOM     19  C   UNL d   1     -44.746  10.270  23.697  0.00  0.00     0.003 A 
ENDBRANCH  12  14
ENDBRANCH  11  12
ENDBRANCH   7  11
BRANCH   3  20
ATOM     20  C   UNL d   1     -49.222  13.745  23.319  0.00  0.00     0.104 C 
BRANCH  20  21
ATOM     21  C   UNL d   1     -49.836  14.060  22.852  0.00  0.00     0.019 A 
ATOM     22  C   UNL d   1     -50.200  13.599  22.273  0.00  0.00     0.002 A 
ATOM     23  C   UNL d   1     -50.796  13.924  21.828  0.00  0.00     0.000 A 
ATOM     24  C   UNL d   1     -51.044  14.692  21.937  0.00  0.00     0.000 A 
ATOM     25  C   UNL d   1     -50.669  15.165  22.533  0.00  0.00     0.000 A 
ATOM     26  C   UNL d   1     -50.067  14.839  22.983  0.00  0.00     0.002 A 
ENDBRANCH  20  21
ENDBRANCH   3  20
TORSDOF 5
ENDMDL
MODEL 2
REMARK VINA RESULT:      -6.4      0.965      5.530
REMARK  5 active torsions:
REMARK  status: ('A' for Active; 'I' for Inactive)
REMARK    1  A    between atoms: C_12  and  N_3 
REMARK    2  A    between atoms: C_10  and  N_7 
REMARK    3  A    between atoms: C_11  and  C_10 
REMARK    4  A    between atoms: C_15  and  C_11 
REMARK    5  A    between atoms: C_16  and  C_12 
ROOT
ATOM      1  C   UNL d   1     -46.552  12.101  23.349  0.00  0.00     0.191 A 
ATOM      2  C   UNL d   1     -46.439  12.819  22.941  0.00  0.00     0.196 A 
ATOM      3  N   UNL d   1     -45.825  11.699  23.350  0.00  0.00    -0.191 N 
ATOM      4  N   UNL d   1     -47.289  11.921  23.656  0.00  0.00    -0.204 NA
ATOM      5  N   UNL d   1     -45.645  12.844  22.699  0.00  0.00    -0.122 NA
ATOM      6  N   UNL d   1     -45.284  12.164  22.951  0.00  0.00    -0.058 NA
ATOM      7  N   UNL d   1     -47.810  13.159  23.158  0.00  0.00    -0.251 N 
ATOM      8  C   UNL d   1     -47.066  13.337  22.850  0.00  0.00     0.289 A 
ATOM      9  C   UNL d   1     -47.923  12.441  23.567  0.00  0.00     0.187 A 
ATOM     10  O   UNL d   1     -46.952  14.055  22.442  0.00  0.00    -0.265 OA
ENDROOT
BRANCH   7  11
ATOM     11  C   UNL d   1     -48.452  13.680  23.070  0.00  0.00     0.127 C 
BRANCH  11  12
ATOM     12  C   UNL d   1     -49.234  13.405  23.150  0.00  0.00     0.213 C 
ATOM     13  O   UNL d   1     -49.400  12.783  23.668  0.00  0.00    -0.285 OA
BRANCH  12  14
ATOM     14  C   UNL d   1     -49.833  13.757  22.713  0.00  0.00     0.041 A 
ATOM     15  C   UNL d   1     -50.298  13.300  22.205  0.00  0.00     0.003 A 
ATOM     16  C   UNL d   1     -50.894  13.644  21.769  0.00  0.00     0.000 A 
ATOM     17  C   UNL d   1     -51.033  14.458  21.836  0.00  0.00     0.000 A 
ATOM     18  C   UNL d   1     -50.567  14.915  22.344  0.00  0.00     0.000 A 
ATOM     19  C   UNL d   1     -49.972  14.570  22.779  0.00  0.00     0.003 A 
ENDBRANCH  12  14
ENDBRANCH  11  12
ENDBRANCH   7  11
BRANCH   3  20
ATOM     20  C   UNL d   1     -45.672  10.952  23.697  0.00  0.00     0.104 C 
BRANCH  20  21
ATOM     21  C   UNL d   1     -44.926  10.596  23.598  0.00  0.00     0.019 A 
ATOM     22  C   UNL d   1     -44.265  11.052  23.411  0.00  0.00     0.002 A 
ATOM     23  C   UNL d   1     -43.546  10.686  23.319  0.00  0.00     0.000 A 
ATOM     24  C   UNL d   1     -43.460   9.881  23.406  0.00  0.00     0.000 A 
ATOM     25  C   UNL d   1     -44.140   9.412  23.599  0.00  0.00     0.000 A 
ATOM     26  C   UNL d   1     -44.866   9.780  23.692  0.00  0.00     0.002 A 
ENDBRANCH  20  21
ENDBRANCH   3  20
TORSDOF 5
ENDMDL
MODEL 3
REMARK VINA RESULT:      -6.2      1.297      1.946
REMARK  5 active torsions:
REMARK  status: ('A' for Active; 'I' for Inactive)
REMARK    1  A    between atoms: C_12  and  N_3 
REMARK    2  A    between atoms: C_10  and  N_7 
REMARK    3  A    between atoms: C_11  and  C_10 
REMARK    4  A    between atoms: C_15  and  C_11 
REMARK    5  A    between atoms: C_16  and  C_12 
ROOT
ATOM      1  C   UNL d   1     -47.506  14.054  22.797  0.00  0.00     0.191 A 
ATOM      2  C   UNL d   1     -47.405  13.293  23.123  0.00  0.00     0.196 A 
ATOM      3  N   UNL d   1     -48.286  14.291  22.958  0.00  0.00    -0.191 N 
ATOM      4  N   UNL d   1     -46.883  14.413  22.409  0.00  0.00    -0.204 NA
ATOM      5  N   UNL d   1     -48.125  13.077  23.477  0.00  0.00    -0.122 NA
ATOM      6  N   UNL d   1     -48.650  13.687  23.371  0.00  0.00    -0.058 NA
ATOM      7  N   UNL d   1     -46.054  13.273  22.660  0.00  0.00    -0.251 N 
ATOM      8  C   UNL d   1     -46.685  12.913  23.051  0.00  0.00     0.289 A 
ATOM      9  C   UNL d   1     -46.154  14.034  22.334  0.00  0.00     0.187 A 
ATOM     10  O   UNL d   1     -46.584  12.152  23.377  0.00  0.00    -0.265 OA
ENDROOT
BRANCH   7  11
ATOM     11  C   UNL d   1     -45.318  12.893  22.583  0.00  0.00     0.127 C 
BRANCH  11  12
ATOM     12  C   UNL d   1     -44.969  12.795  21.833  0.00  0.00     0.213 C 
ATOM     13  O   UNL d   1     -45.444  12.798  21.156  0.00  0.00    -0.285 OA
BRANCH  12  14
ATOM     14  C   UNL d   1     -44.157  12.697  21.774  0.00  0.00     0.041 A 
ATOM     15  C   UNL d   1     -43.701  13.249  21.362  0.00  0.00     0.003 A 
ATOM     16  C   UNL d   1     -42.894  13.155  21.301  0.00  0.00     0.000 A 
ATOM     17  C   UNL d   1     -42.530  12.501  21.656  0.00  0.00     0.000 A 
ATOM     18  C   UNL d   1     -42.985  11.949  22.068  0.00  0.00     0.000 A 
ATOM     19  C   UNL d   1     -43.792  12.043  22.128  0.00  0.00     0.003 A 
ENDBRANCH  12  14
ENDBRANCH  11  12
ENDBRANCH   7  11
BRANCH   3  20
ATOM     20  C   UNL d   1     -48.638  15.018  22.736  0.00  0.00     0.104 C 
BRANCH  20  21
ATOM     21  C   UNL d   1     -49.444  15.154  22.900  0.00  0.00     0.019 A 
ATOM     22  C   UNL d   1     -49.668  15.605  23.553  0.00  0.00     0.002 A 
ATOM     23  C   UNL d   1     -50.458  15.726  23.695  0.00  0.00     0.000 A 
ATOM     24  C   UNL d   1     -51.034  15.415  23.211  0.00  0.00     0.000 A 
ATOM     25  C   UNL d   1     -50.803  14.951  22.540  0.00  0.00     0.000 A 
ATOM     26  C   UNL d   1     -50.006  14.828  22.395  0.00  0.00     0.002 A 
ENDBRANCH  20  21
ENDBRANCH   3  20
TORSDOF 5
ENDMDL
MODEL 4
REMARK VINA RESULT:      -5.8      1.860      5.281
REMARK  5 active torsions:
REMARK  status: ('A' for Active; 'I' for Inactive)
REMARK    1  A    between atoms: C_12  and  N_3 
REMARK    2  A    between atoms: C_10  and  N_7 
REMARK    3  A    between atoms: C_11  and  C_10 
REMARK    4  A    between atoms: C_15  and  C_11 
REMARK    5  A    between atoms: C_16  and  C_12 
ROOT
ATOM      1  C   UNL d   1     -46.081  13.070  22.060  0.00  0.00     0.191 A 
ATOM      2  C   UNL d   1     -46.320  13.658  22.601  0.00  0.00     0.196 A 
ATOM      3  N   UNL d   1     -45.253  13.111  21.999  0.00  0.00    -0.191 N 
ATOM      4  N   UNL d   1     -46.642  12.590  21.709  0.00  0.00    -0.204 NA
ATOM      5  N   UNL d   1     -45.634  14.049  22.861  0.00  0.00    -0.122 NA
ATOM      6  N   UNL d   1     -44.997  13.711  22.492  0.00  0.00    -0.058 NA
ATOM      7  N   UNL d   1     -47.683  13.269  22.422  0.00  0.00    -0.251 N 
ATOM      8  C   UNL d   1     -47.113  13.750  22.774  0.00  0.00     0.289 A 
ATOM      9  C   UNL d   1     -47.444  12.680  21.881  0.00  0.00     0.187 A 
ATOM     10  O   UNL d   1     -47.352  14.339  23.315  0.00  0.00    -0.265 OA
ENDROOT
BRANCH   7  11
ATOM     11  C   UNL d   1     -48.492  13.357  22.593  0.00  0.00     0.127 C 
BRANCH  11  12
ATOM     12  C   UNL d   1     -49.047  12.806  22.305  0.00  0.00     0.213 C 
ATOM     13  O   UNL d   1     -48.917  12.433  21.580  0.00  0.00    -0.285 OA
BRANCH  12  14
ATOM     14  C   UNL d   1     -49.720  12.642  22.746  0.00  0.00     0.041 A 
ATOM     15  C   UNL d   1     -49.769  11.941  23.181  0.00  0.00     0.003 A 
ATOM     16  C   UNL d   1     -50.434  11.773  23.620  0.00  0.00     0.000 A 
ATOM     17  C   UNL d   1     -51.064  12.310  23.630  0.00  0.00     0.000 A 
ATOM     18  C   UNL d   1     -51.015  13.011  23.195  0.00  0.00     0.000 A 
ATOM     19  C   UNL d   1     -50.350  13.178  22.756  0.00  0.00     0.003 A 
ENDBRANCH  12  14
ENDBRANCH  11  12
ENDBRANCH   7  11
BRANCH   3  20
ATOM     20  C   UNL d   1     -44.767  12.626  21.520  0.00  0.00     0.104 C 
BRANCH  20  21
ATOM     21  C   UNL d   1     -43.943  12.748  21.509  0.00  0.00     0.019 A 
ATOM     22  C   UNL d   1     -43.437  12.231  21.905  0.00  0.00     0.002 A 
ATOM     23  C   UNL d   1     -42.638  12.366  21.883  0.00  0.00     0.000 A 
ATOM     24  C   UNL d   1     -42.320  13.000  21.480  0.00  0.00     0.000 A 
ATOM     25  C   UNL d   1     -42.841  13.532  21.073  0.00  0.00     0.000 A 
ATOM     26  C   UNL d   1     -43.649  13.396  21.095  0.00  0.00     0.002 A 
ENDBRANCH  20  21
ENDBRANCH   3  20
TORSDOF 5
ENDMDL
MODEL 5
REMARK VINA RESULT:      -5.4      2.718      5.743
REMARK  5 active torsions:
REMARK  status: ('A' for Active; 'I' for Inactive)
REMARK    1  A    between atoms: C_12  and  N_3 
REMARK    2  A    between atoms: C_10  and  N_7 
REMARK    3  A    between atoms: C_11  and  C_10 
REMARK    4  A    between atoms: C_15  and  C_11 
REMARK    5  A    between atoms: C_16  and  C_12 
ROOT
ATOM      1  C   UNL d   1     -43.898  12.911  21.802  0.00  0.00     0.191 A 
ATOM      2  C   UNL d   1     -43.867  12.198  22.234  0.00  0.00     0.196 A 
ATOM      3  N   UNL d   1     -43.151  13.023  21.455  0.00  0.00    -0.191 N 
ATOM      4  N   UNL d   1     -44.589  13.346  21.789  0.00  0.00    -0.204 NA
ATOM      5  N   UNL d   1     -43.102  11.886  22.144  0.00  0.00    -0.122 NA
ATOM      6  N   UNL d   1     -42.679  12.392  21.672  0.00  0.00    -0.058 NA
ATOM      7  N   UNL d   1     -45.229  12.378  22.629  0.00  0.00    -0.251 N 
ATOM      8  C   UNL d   1     -44.529  11.941  22.640  0.00  0.00     0.289 A 
ATOM      9  C   UNL d   1     -45.260  13.091  22.197  0.00  0.00     0.187 A 
ATOM     10  O   UNL d   1     -44.498  11.228  23.072  0.00  0.00    -0.265 OA
ENDROOT
BRANCH   7  11
ATOM     11  C   UNL d   1     -45.905  12.123  23.039  0.00  0.00     0.127 C 
BRANCH  11  12
ATOM     12  C   UNL d   1     -46.459  12.676  23.326  0.00  0.00     0.213 C 
ATOM     13  O   UNL d   1     -46.202  13.416  23.588  0.00  0.00    -0.285 OA
BRANCH  12  14
ATOM     14  C   UNL d   1     -47.256  12.478  23.344  0.00  0.00     0.041 A 
ATOM     15  C   UNL d   1     -47.818  12.994  23.028  0.00  0.00     0.003 A 
ATOM     16  C   UNL d   1     -48.609  12.802  23.044  0.00  0.00     0.000 A 
ATOM     17  C   UNL d   1     -48.850  12.085  23.380  0.00  0.00     0.000 A 
ATOM     18  C   UNL d   1     -48.288  11.569  23.696  0.00  0.00     0.000 A 
ATOM     19  C   UNL d   1     -47.497  11.761  23.680  0.00  0.00     0.003 A 
ENDBRANCH  12  14
ENDBRANCH  11  12
ENDBRANCH   7  11
BRANCH   3  20
ATOM     20  C   UNL d   1     -42.922  13.666  20.970  0.00  0.00     0.104 C 
BRANCH  20  21
ATOM     21  C   UNL d   1     -42.113  13.835  20.863  0.00  0.00     0.019 A 
ATOM     22  C   UNL d   1     -41.691  14.244  21.442  0.00  0.00     0.002 A 
ATOM     23  C   UNL d   1     -40.904  14.400  21.319  0.00  0.00     0.000 A 
ATOM     24  C   UNL d   1     -40.520  14.164  20.640  0.00  0.00     0.000 A 
ATOM     25  C   UNL d   1     -40.955  13.744  20.045  0.00  0.00     0.000 A 
ATOM     26  C   UNL d   1     -41.750  13.586  20.168  0.00  0.00     0.002 A 
ENDBRANCH  20  21
ENDBRANCH   3  20
TORSDOF 5
ENDMDL
