MODEL 1
REMARK VINA RESULT:      -8.1      0.000      0.000
REMARK  5 active torsions:
REMARK  status: ('A' for Active; 'I' for Inactive)
REMARK    1  A    between atoms: C_5  and  N_1 
REMARK    2  A    between atoms: C_7  and  C_5 
REMARK    3  A    between atoms: O_14  and  C_10 
REMARK    4  A    between atoms: C_18  and  O_14 
REMARK    5  A    between atoms: C_19  and  C_18 
ROOT
ATOM      1  N   UNL d   1      53.690  32.390  53.210  0.00  0.00    -0.251 N 
ATOM      2  C   UNL d   1      54.509  32.338  53.331  0.00  0.00     0.378 A 
ATOM      3  C   UNL d   1      53.367  31.634  53.298  0.00  0.00     0.092 A 
ATOM      4  O   UNL d   1      54.690  31.546  53.495  0.00  0.00    -0.258 OA
ATOM      5  C   UNL d   1      53.985  31.112  53.474  0.00  0.00     0.121 A 
ATOM      6  O   UNL d   1      55.048  32.959  53.297  0.00  0.00    -0.237 OA
ATOM      7  C   UNL d   1      52.594  31.362  53.240  0.00  0.00     0.020 A 
ATOM      8  C   UNL d   1      53.816  30.309  53.592  0.00  0.00     0.026 A 
ATOM      9  C   UNL d   1      52.430  30.565  53.357  0.00  0.00     0.002 A 
ATOM     10  C   UNL d   1      53.043  30.038  53.533  0.00  0.00     0.002 A 
ATOM     11  C   UNL d   1      51.654  30.291  53.299  0.00  0.00     0.000 C 
ENDROOT
BRANCH   1  12
ATOM     12  C   UNL d   1      53.239  33.058  53.032  0.00  0.00     0.087 C 
BRANCH  12  13
ATOM     13  C   UNL d   1      53.135  33.656  53.597  0.00  0.00     0.041 A 
ATOM     14  C   UNL d   1      52.543  34.205  53.506  0.00  0.00     0.102 A 
ATOM     15  C   UNL d   1      52.442  34.795  54.065  0.00  0.00     0.025 A 
ATOM     16  C   UNL d   1      52.939  34.833  54.720  0.00  0.00     0.002 A 
ATOM     17  C   UNL d   1      53.541  34.274  54.810  0.00  0.00     0.000 A 
ATOM     18  C   UNL d   1      53.638  33.682  54.243  0.00  0.00     0.004 A 
BRANCH  14  19
ATOM     19  O   UNL d   1      52.039  34.171  52.849  0.00  0.00    -0.305 OA
BRANCH  19  20
ATOM     20  C   UNL d   1      51.268  34.460  52.903  0.00  0.00     0.123 C 
BRANCH  20  21
ATOM     21  C   UNL d   1      50.752  34.378  52.272  0.00  0.00     0.027 C 
ATOM     22  C   UNL d   1      49.938  34.459  52.388  0.00  0.00     0.002 C 
ENDBRANCH  20  21
ENDBRANCH  19  20
ENDBRANCH  14  19
ENDBRANCH  12  13
ENDBRANCH   1  12
TORSDOF 5
ENDMDL
MODEL 2
REMARK VINA RESULT:      -7.8      1.143      3.385
REMARK  5 active torsions:
REMARK  status: ('A' for Active; 'I' for Inactive)
REMARK    1  A    between atoms: C_5  and  N_1 
REMARK    2  A    between atoms: C_7  and  C_5 
REMARK    3  A    between atoms: O_14  and  C_10 
REMARK    4  A    between atoms: C_18  and  O_14 
REMARK    5  A    between atoms: C_19  and  C_18 
ROOT
ATOM      1  N   UNL d   1      52.833  34.087  53.308  0.00  0.00    -0.251 N 
ATOM      2  C   UNL d   1      52.989  34.900  53.341  0.00  0.00     0.378 A 
ATOM      3  C   UNL d   1      52.017  33.984  53.218  0.00  0.00     0.092 A 
ATOM      4  O   UNL d   1      52.266  35.300  53.271  0.00  0.00    -0.258 OA
ATOM      5  C   UNL d   1      51.667  34.733  53.195  0.00  0.00     0.121 A 
ATOM      6  O   UNL d   1      53.728  35.252  53.427  0.00  0.00    -0.237 OA
ATOM      7  C   UNL d   1      51.558  33.305  53.155  0.00  0.00     0.020 A 
ATOM      8  C   UNL d   1      50.845  34.793  53.108  0.00  0.00     0.026 A 
ATOM      9  C   UNL d   1      50.743  33.369  53.068  0.00  0.00     0.002 A 
ATOM     10  C   UNL d   1      50.386  34.115  53.045  0.00  0.00     0.002 A 
ATOM     11  C   UNL d   1      50.281  32.689  53.005  0.00  0.00     0.000 C 
ENDROOT
BRANCH   1  12
ATOM     12  C   UNL d   1      53.367  33.459  53.352  0.00  0.00     0.087 C 
BRANCH  12  13
ATOM     13  C   UNL d   1      53.704  33.248  54.080  0.00  0.00     0.041 A 
ATOM     14  C   UNL d   1      53.884  32.471  54.236  0.00  0.00     0.102 A 
ATOM     15  C   UNL d   1      54.216  32.263  54.955  0.00  0.00     0.025 A 
ATOM     16  C   UNL d   1      54.368  32.841  55.521  0.00  0.00     0.002 A 
ATOM     17  C   UNL d   1      54.185  33.630  55.361  0.00  0.00     0.000 A 
ATOM     18  C   UNL d   1      53.850  33.833  54.634  0.00  0.00     0.004 A 
BRANCH  14  19
ATOM     19  O   UNL d   1      53.732  31.885  53.669  0.00  0.00    -0.305 OA
BRANCH  19  20
ATOM     20  C   UNL d   1      53.745  31.088  53.883  0.00  0.00     0.123 C 
BRANCH  20  21
ATOM     21  C   UNL d   1      53.546  30.511  53.337  0.00  0.00     0.027 C 
ATOM     22  C   UNL d   1      53.262  29.778  53.592  0.00  0.00     0.002 C 
ENDBRANCH  20  21
ENDBRANCH  19  20
ENDBRANCH  14  19
ENDBRANCH  12  13
ENDBRANCH   1  12
TORSDOF 5
ENDMDL
MODEL 3
REMARK VINA RESULT:      -7.7      1.650      2.204
REMARK  5 active torsions:
REMARK  status: ('A' for Active; 'I' for Inactive)
REMARK    1  A    between atoms: C_5  and  N_1 
REMARK    2  A    between atoms: C_7  and  C_5 
REMARK    3  A    between atoms: O_14  and  C_10 
REMARK    4  A    between atoms: C_18  and  O_14 
REMARK    5  A    between atoms: C_19  and  C_18 
ROOT
ATOM      1  N   UNL d   1      53.024  31.785  53.471  0.00  0.00    -0.251 N 
ATOM      2  C   UNL d   1      52.761  31.934  52.699  0.00  0.00     0.378 A 
ATOM      3  C   UNL d   1      53.033  30.965  53.587  0.00  0.00     0.092 A 
ATOM      4  O   UNL d   1      52.608  31.204  52.338  0.00  0.00    -0.258 OA
ATOM      5  C   UNL d   1      52.776  30.607  52.887  0.00  0.00     0.121 A 
ATOM      6  O   UNL d   1      52.667  32.674  52.350  0.00  0.00    -0.237 OA
ATOM      7  C   UNL d   1      53.242  30.510  54.238  0.00  0.00     0.020 A 
ATOM      8  C   UNL d   1      52.731  29.780  52.848  0.00  0.00     0.026 A 
ATOM      9  C   UNL d   1      53.197  29.691  54.196  0.00  0.00     0.002 A 
ATOM     10  C   UNL d   1      52.941  29.325  53.499  0.00  0.00     0.002 A 
ATOM     11  C   UNL d   1      53.407  29.232  54.849  0.00  0.00     0.000 C 
ENDROOT
BRANCH   1  12
ATOM     12  C   UNL d   1      53.246  32.328  54.052  0.00  0.00     0.087 C 
BRANCH  12  13
ATOM     13  C   UNL d   1      53.974  32.721  53.999  0.00  0.00     0.041 A 
ATOM     14  C   UNL d   1      54.070  33.449  54.348  0.00  0.00     0.102 A 
ATOM     15  C   UNL d   1      54.789  33.837  54.295  0.00  0.00     0.025 A 
ATOM     16  C   UNL d   1      55.416  33.491  53.888  0.00  0.00     0.002 A 
ATOM     17  C   UNL d   1      55.316  32.752  53.534  0.00  0.00     0.000 A 
ATOM     18  C   UNL d   1      54.589  32.365  53.591  0.00  0.00     0.004 A 
BRANCH  14  19
ATOM     19  O   UNL d   1      53.442  33.802  54.759  0.00  0.00    -0.305 OA
BRANCH  19  20
ATOM     20  C   UNL d   1      53.444  34.615  54.899  0.00  0.00     0.123 C 
BRANCH  20  21
ATOM     21  C   UNL d   1      52.750  35.000  55.101  0.00  0.00     0.027 C 
ATOM     22  C   UNL d   1      52.607  35.768  54.832  0.00  0.00     0.002 C 
ENDBRANCH  20  21
ENDBRANCH  19  20
ENDBRANCH  14  19
ENDBRANCH  12  13
ENDBRANCH   1  12
TORSDOF 5
ENDMDL
MODEL 4
REMARK VINA RESULT:      -7.1      1.792      2.800
REMARK  5 active torsions:
REMARK  status: ('A' for Active; 'I' for Inactive)
REMARK    1  A    between atoms: C_5  and  N_1 
REMARK    2  A    between atoms: C_7  and  C_5 
REMARK    3  A    between atoms: O_14  and  C_10 
REMARK    4  A    between atoms: C_18  and  O_14 
REMARK    5  A    between atoms: C_19  and  C_18 
ROOT
ATOM      1  N   UNL d   1      52.671  34.466  54.256  0.00  0.00    -0.251 N 
ATOM      2  C   UNL d   1      53.018  35.204  54.401  0.00  0.00     0.378 A 
ATOM      3  C   UNL d   1      53.204  33.879  54.493  0.00  0.00     0.092 A 
ATOM      4  O   UNL d   1      53.767  35.072  54.729  0.00  0.00    -0.258 OA
ATOM      5  C   UNL d   1      53.881  34.253  54.786  0.00  0.00     0.121 A 
ATOM      6  O   UNL d   1      52.682  35.940  54.248  0.00  0.00    -0.237 OA
ATOM      7  C   UNL d   1      53.153  33.059  54.478  0.00  0.00     0.020 A 
ATOM      8  C   UNL d   1      54.511  33.792  55.064  0.00  0.00     0.026 A 
ATOM      9  C   UNL d   1      53.780  32.605  54.755  0.00  0.00     0.002 A 
ATOM     10  C   UNL d   1      54.460  32.972  55.049  0.00  0.00     0.002 A 
ATOM     11  C   UNL d   1      53.730  31.781  54.740  0.00  0.00     0.000 C 
ENDROOT
BRANCH   1  12
ATOM     12  C   UNL d   1      51.929  34.301  53.934  0.00  0.00     0.087 C 
BRANCH  12  13
ATOM     13  C   UNL d   1      51.816  34.322  53.113  0.00  0.00     0.041 A 
ATOM     14  C   UNL d   1      51.070  34.421  52.806  0.00  0.00     0.102 A 
ATOM     15  C   UNL d   1      50.960  34.441  51.994  0.00  0.00     0.025 A 
ATOM     16  C   UNL d   1      51.604  34.362  51.488  0.00  0.00     0.002 A 
ATOM     17  C   UNL d   1      52.361  34.261  51.802  0.00  0.00     0.000 A 
ATOM     18  C   UNL d   1      52.467  34.241  52.621  0.00  0.00     0.004 A 
BRANCH  14  19
ATOM     19  O   UNL d   1      50.418  34.502  53.311  0.00  0.00    -0.305 OA
BRANCH  19  20
ATOM     20  C   UNL d   1      49.710  34.817  53.026  0.00  0.00     0.123 C 
BRANCH  20  21
ATOM     21  C   UNL d   1      49.198  35.203  53.535  0.00  0.00     0.027 C 
ATOM     22  C   UNL d   1      48.523  35.578  53.240  0.00  0.00     0.002 C 
ENDBRANCH  20  21
ENDBRANCH  19  20
ENDBRANCH  14  19
ENDBRANCH  12  13
ENDBRANCH   1  12
TORSDOF 5
ENDMDL
MODEL 5
REMARK VINA RESULT:      -6.9      1.252      3.551
REMARK  5 active torsions:
REMARK  status: ('A' for Active; 'I' for Inactive)
REMARK    1  A    between atoms: C_5  and  N_1 
REMARK    2  A    between atoms: C_7  and  C_5 
REMARK    3  A    between atoms: O_14  and  C_10 
REMARK    4  A    between atoms: C_18  and  O_14 
REMARK    5  A    between atoms: C_19  and  C_18 
ROOT
ATOM      1  N   UNL d   1      53.110  34.040  53.441  0.00  0.00    -0.251 N 
ATOM      2  C   UNL d   1      52.936  34.828  53.250  0.00  0.00     0.378 A 
ATOM      3  C   UNL d   1      53.546  34.035  54.144  0.00  0.00     0.092 A 
ATOM      4  O   UNL d   1      53.266  35.310  53.838  0.00  0.00    -0.258 OA
ATOM      5  C   UNL d   1      53.642  34.819  54.390  0.00  0.00     0.121 A 
ATOM      6  O   UNL d   1      52.513  35.089  52.594  0.00  0.00    -0.237 OA
ATOM      7  C   UNL d   1      53.862  33.417  54.584  0.00  0.00     0.020 A 
ATOM      8  C   UNL d   1      54.062  34.977  55.087  0.00  0.00     0.026 A 
ATOM      9  C   UNL d   1      54.277  33.577  55.275  0.00  0.00     0.002 A 
ATOM     10  C   UNL d   1      54.377  34.358  55.526  0.00  0.00     0.002 A 
ATOM     11  C   UNL d   1      54.595  32.958  55.718  0.00  0.00     0.000 C 
ENDROOT
BRANCH   1  12
ATOM     12  C   UNL d   1      52.905  33.355  53.029  0.00  0.00     0.087 C 
BRANCH  12  13
ATOM     13  C   UNL d   1      52.131  33.060  53.068  0.00  0.00     0.041 A 
ATOM     14  C   UNL d   1      51.990  32.267  52.962  0.00  0.00     0.102 A 
ATOM     15  C   UNL d   1      51.225  31.977  53.001  0.00  0.00     0.025 A 
ATOM     16  C   UNL d   1      50.597  32.489  53.147  0.00  0.00     0.002 A 
ATOM     17  C   UNL d   1      50.742  33.295  53.255  0.00  0.00     0.000 A 
ATOM     18  C   UNL d   1      51.515  33.581  53.215  0.00  0.00     0.004 A 
BRANCH  14  19
ATOM     19  O   UNL d   1      52.619  31.747  52.815  0.00  0.00    -0.305 OA
BRANCH  19  20
ATOM     20  C   UNL d   1      52.529  30.938  52.953  0.00  0.00     0.123 C 
BRANCH  20  21
ATOM     21  C   UNL d   1      53.167  30.433  52.867  0.00  0.00     0.027 C 
ATOM     22  C   UNL d   1      53.248  29.777  53.364  0.00  0.00     0.002 C 
ENDBRANCH  20  21
ENDBRANCH  19  20
ENDBRANCH  14  19
ENDBRANCH  12  13
ENDBRANCH   1  12
TORSDOF 5
ENDMDL
MODEL 6
REMARK VINA RESULT:      -6.8      1.483      4.206
REMARK  5 active torsions:
REMARK  status: ('A' for Active; 'I' for Inactive)
REMARK    1  A    between atoms: C_5  and  N_1 
REMARK    2  A    between atoms: C_7  and  C_5 
REMARK    3  A    between atoms: O_14  and  C_10 
REMARK    4  A    between atoms: C_18  and  O_14 
REMARK    5  A    between atoms: C_19  and  C_18 
ROOT
ATOM      1  N   UNL d   1      52.782  32.670  54.154  0.00  0.00    -0.251 N 
ATOM      2  C   UNL d   1      52.142  33.091  53.837  0.00  0.00     0.378 A 
ATOM      3  C   UNL d   1      53.354  33.216  54.398  0.00  0.00     0.092 A 
ATOM      4  O   UNL d   1      52.321  33.898  53.886  0.00  0.00    -0.258 OA
ATOM      5  C   UNL d   1      53.069  33.974  54.233  0.00  0.00     0.121 A 
ATOM      6  O   UNL d   1      51.451  32.768  53.527  0.00  0.00    -0.237 OA
ATOM      7  C   UNL d   1      54.091  33.112  54.747  0.00  0.00     0.020 A 
ATOM      8  C   UNL d   1      53.536  34.632  54.423  0.00  0.00     0.026 A 
ATOM      9  C   UNL d   1      54.551  33.767  54.934  0.00  0.00     0.002 A 
ATOM     10  C   UNL d   1      54.272  34.528  54.772  0.00  0.00     0.002 A 
ATOM     11  C   UNL d   1      55.291  33.664  55.285  0.00  0.00     0.000 C 
ENDROOT
BRANCH   1  12
ATOM     12  C   UNL d   1      52.872  31.853  54.230  0.00  0.00     0.087 C 
BRANCH  12  13
ATOM     13  C   UNL d   1      52.965  31.378  53.558  0.00  0.00     0.041 A 
ATOM     14  C   UNL d   1      53.120  30.584  53.637  0.00  0.00     0.102 A 
ATOM     15  C   UNL d   1      53.211  30.116  52.971  0.00  0.00     0.025 A 
ATOM     16  C   UNL d   1      53.147  30.448  52.221  0.00  0.00     0.002 A 
ATOM     17  C   UNL d   1      52.990  31.255  52.142  0.00  0.00     0.000 A 
ATOM     18  C   UNL d   1      52.899  31.722  52.817  0.00  0.00     0.004 A 
BRANCH  14  19
ATOM     19  O   UNL d   1      53.185  30.244  54.390  0.00  0.00    -0.305 OA
BRANCH  19  20
ATOM     20  C   UNL d   1      53.290  29.429  54.469  0.00  0.00     0.123 C 
BRANCH  20  21
ATOM     21  C   UNL d   1      53.344  29.092  55.213  0.00  0.00     0.027 C 
ATOM     22  C   UNL d   1      53.479  28.280  55.292  0.00  0.00     0.002 C 
ENDBRANCH  20  21
ENDBRANCH  19  20
ENDBRANCH  14  19
ENDBRANCH  12  13
ENDBRANCH   1  12
TORSDOF 5
ENDMDL
MODEL 7
REMARK VINA RESULT:      -6.6      0.871      2.825
REMARK  5 active torsions:
REMARK  status: ('A' for Active; 'I' for Inactive)
REMARK    1  A    between atoms: C_5  and  N_1 
REMARK    2  A    between atoms: C_7  and  C_5 
REMARK    3  A    between atoms: O_14  and  C_10 
REMARK    4  A    between atoms: C_18  and  O_14 
REMARK    5  A    between atoms: C_19  and  C_18 
ROOT
ATOM      1  N   UNL d   1      54.153  33.119  53.553  0.00  0.00    -0.251 N 
ATOM      2  C   UNL d   1      54.880  32.727  53.482  0.00  0.00     0.378 A 
ATOM      3  C   UNL d   1      54.175  33.583  54.238  0.00  0.00     0.092 A 
ATOM      4  O   UNL d   1      55.352  32.951  54.126  0.00  0.00    -0.258 OA
ATOM      5  C   UNL d   1      54.916  33.479  54.591  0.00  0.00     0.121 A 
ATOM      6  O   UNL d   1      55.099  32.208  52.882  0.00  0.00    -0.237 OA
ATOM      7  C   UNL d   1      53.616  34.081  54.575  0.00  0.00     0.020 A 
ATOM      8  C   UNL d   1      55.089  33.884  55.293  0.00  0.00     0.026 A 
ATOM      9  C   UNL d   1      53.792  34.481  55.272  0.00  0.00     0.002 A 
ATOM     10  C   UNL d   1      54.530  34.382  55.631  0.00  0.00     0.002 A 
ATOM     11  C   UNL d   1      53.231  34.981  55.612  0.00  0.00     0.000 C 
ENDROOT
BRANCH   1  12
ATOM     12  C   UNL d   1      53.498  33.080  53.052  0.00  0.00     0.087 C 
BRANCH  12  13
ATOM     13  C   UNL d   1      52.998  32.419  53.068  0.00  0.00     0.041 A 
ATOM     14  C   UNL d   1      52.211  32.499  52.884  0.00  0.00     0.102 A 
ATOM     15  C   UNL d   1      51.718  31.845  52.900  0.00  0.00     0.025 A 
ATOM     16  C   UNL d   1      52.018  31.106  53.103  0.00  0.00     0.002 A 
ATOM     17  C   UNL d   1      52.819  31.027  53.290  0.00  0.00     0.000 A 
ATOM     18  C   UNL d   1      53.311  31.690  53.272  0.00  0.00     0.004 A 
BRANCH  14  19
ATOM     19  O   UNL d   1      51.903  33.241  52.679  0.00  0.00    -0.305 OA
BRANCH  19  20
ATOM     20  C   UNL d   1      51.086  33.363  52.672  0.00  0.00     0.123 C 
BRANCH  20  21
ATOM     21  C   UNL d   1      50.778  34.068  52.392  0.00  0.00     0.027 C 
ATOM     22  C   UNL d   1      50.118  34.406  52.757  0.00  0.00     0.002 C 
ENDBRANCH  20  21
ENDBRANCH  19  20
ENDBRANCH  14  19
ENDBRANCH  12  13
ENDBRANCH   1  12
TORSDOF 5
ENDMDL
MODEL 8
REMARK VINA RESULT:      -6.3      1.993      3.745
REMARK  5 active torsions:
REMARK  status: ('A' for Active; 'I' for Inactive)
REMARK    1  A    between atoms: C_5  and  N_1 
REMARK    2  A    between atoms: C_7  and  C_5 
REMARK    3  A    between atoms: O_14  and  C_10 
REMARK    4  A    between atoms: C_18  and  O_14 
REMARK    5  A    between atoms: C_19  and  C_18 
ROOT
ATOM      1  N   UNL d   1      51.194  33.769  53.441  0.00  0.00    -0.251 N 
ATOM      2  C   UNL d   1      51.241  32.946  53.355  0.00  0.00     0.378 A 
ATOM      3  C   UNL d   1      51.950  34.053  53.622  0.00  0.00     0.092 A 
ATOM      4  O   UNL d   1      52.028  32.722  53.484  0.00  0.00    -0.258 OA
ATOM      5  C   UNL d   1      52.465  33.407  53.649  0.00  0.00     0.121 A 
ATOM      6  O   UNL d   1      50.619  32.438  53.175  0.00  0.00    -0.237 OA
ATOM      7  C   UNL d   1      52.225  34.815  53.764  0.00  0.00     0.020 A 
ATOM      8  C   UNL d   1      53.266  33.534  53.821  0.00  0.00     0.026 A 
ATOM      9  C   UNL d   1      53.020  34.937  53.934  0.00  0.00     0.002 A 
ATOM     10  C   UNL d   1      53.541  34.295  53.962  0.00  0.00     0.002 A 
ATOM     11  C   UNL d   1      53.298  35.700  54.076  0.00  0.00     0.000 C 
ENDROOT
BRANCH   1  12
ATOM     12  C   UNL d   1      50.532  34.257  53.367  0.00  0.00     0.087 C 
BRANCH  12  13
ATOM     13  C   UNL d   1      50.178  34.371  52.626  0.00  0.00     0.041 A 
ATOM     14  C   UNL d   1      49.495  34.807  52.563  0.00  0.00     0.102 A 
ATOM     15  C   UNL d   1      49.147  34.920  51.831  0.00  0.00     0.025 A 
ATOM     16  C   UNL d   1      49.487  34.591  51.157  0.00  0.00     0.002 A 
ATOM     17  C   UNL d   1      50.180  34.148  51.223  0.00  0.00     0.000 A 
ATOM     18  C   UNL d   1      50.527  34.038  51.964  0.00  0.00     0.004 A 
BRANCH  14  19
ATOM     19  O   UNL d   1      49.149  35.141  53.238  0.00  0.00    -0.305 OA
BRANCH  19  20
ATOM     20  C   UNL d   1      48.523  35.674  53.163  0.00  0.00     0.123 C 
BRANCH  20  21
ATOM     21  C   UNL d   1      48.202  36.029  53.827  0.00  0.00     0.027 C 
ATOM     22  C   UNL d   1      47.639  36.629  53.747  0.00  0.00     0.002 C 
ENDBRANCH  20  21
ENDBRANCH  19  20
ENDBRANCH  14  19
ENDBRANCH  12  13
ENDBRANCH   1  12
TORSDOF 5
ENDMDL
