MODEL 1
REMARK VINA RESULT:      36.3      0.000      0.000
REMARK  4 active torsions:
REMARK  status: ('A' for Active; 'I' for Inactive)
REMARK    1  A    between atoms: C_2  and  S_1 
REMARK    2  A    between atoms: N_11  and  S_1 
REMARK    3  A    between atoms: C_7  and  C_19 
REMARK    4  A    between atoms: C_19  and  N_11 
ROOT
ATOM      1  C   UNL d   1      45.339 -17.707  39.797  0.00  0.00     0.133 C 
ENDROOT
BRANCH   1   2
ATOM      2  C   UNL d   1      45.204 -17.234  39.128  0.00  0.00     0.120 A 
ATOM      3  N   UNL d   1      44.505 -17.194  38.723  0.00  0.00    -0.225 NA
ATOM      4  C   UNL d   1      44.606 -16.656  38.089  0.00  0.00     0.148 A 
ATOM      5  C   UNL d   1      44.094 -16.395  37.497  0.00  0.00     0.037 A 
ATOM      6  N   UNL d   1      45.379 -16.374  38.120  0.00  0.00    -0.288 N 
ATOM      7  C   UNL d   1      44.355 -15.851  36.937  0.00  0.00     0.004 A 
ATOM      8  C   UNL d   1      43.837 -15.595  36.348  0.00  0.00     0.000 C 
ATOM      9  C   UNL d   1      45.127 -15.569  36.968  0.00  0.00     0.019 A 
ATOM     10  C   UNL d   1      45.639 -15.830  37.560  0.00  0.00     0.082 A 
ATOM     11  C   UNL d   1      45.756 -16.732  38.768  0.00  0.00     0.102 A 
ENDBRANCH   1   2
BRANCH   1  12
ATOM     12  N   UNL d   1      46.081 -17.709  40.156  0.00  0.00    -0.155 NA
BRANCH  12  13
ATOM     13  S   UNL d   1      46.225 -18.215  40.796  0.00  0.00     0.291 S 
ATOM     14  O   UNL d   1      46.641 -18.732  40.291  0.00  0.00    -0.198 OA
ATOM     15  O   UNL d   1      45.808 -17.694  41.297  0.00  0.00    -0.198 OA
BRANCH  13  16
ATOM     16  C   UNL d   1      46.368 -18.717  41.435  0.00  0.00     0.135 A 
ATOM     17  S   UNL d   1      46.391 -18.503  42.222  0.00  0.00    -0.062 SA
ATOM     18  C   UNL d   1      46.549 -19.173  42.675  0.00  0.00     0.088 A 
ATOM     19 CL   UNL d   1      46.618 -19.200  43.494  0.00  0.00    -0.075 Cl
ATOM     20  C   UNL d   1      46.625 -19.817  42.151  0.00  0.00     0.019 A 
ATOM     21  C   UNL d   1      46.513 -19.534  41.386  0.00  0.00     0.021 A 
ENDBRANCH  13  16
ENDBRANCH  12  13
ENDBRANCH   1  12
TORSDOF 4
ENDMDL
MODEL 2
REMARK VINA RESULT:      36.8      2.385      5.140
REMARK  4 active torsions:
REMARK  status: ('A' for Active; 'I' for Inactive)
REMARK    1  A    between atoms: C_2  and  S_1 
REMARK    2  A    between atoms: N_11  and  S_1 
REMARK    3  A    between atoms: C_7  and  C_19 
REMARK    4  A    between atoms: C_19  and  N_11 
ROOT
ATOM      1  C   UNL d   1      46.035 -17.561  39.668  0.00  0.00     0.133 C 
ENDROOT
BRANCH   1   2
ATOM      2  C   UNL d   1      46.159 -18.036  40.337  0.00  0.00     0.120 A 
ATOM      3  N   UNL d   1      46.086 -17.787  41.102  0.00  0.00    -0.225 NA
ATOM      4  C   UNL d   1      46.259 -18.436  41.603  0.00  0.00     0.148 A 
ATOM      5  C   UNL d   1      46.274 -18.514  42.424  0.00  0.00     0.037 A 
ATOM      6  N   UNL d   1      46.437 -19.081  41.123  0.00  0.00    -0.288 N 
ATOM      7  C   UNL d   1      46.468 -19.238  42.765  0.00  0.00     0.004 A 
ATOM      8  C   UNL d   1      46.481 -19.308  43.587  0.00  0.00     0.000 C 
ATOM      9  C   UNL d   1      46.646 -19.883  42.286  0.00  0.00     0.019 A 
ATOM     10  C   UNL d   1      46.631 -19.804  41.465  0.00  0.00     0.082 A 
ATOM     11  C   UNL d   1      46.376 -18.836  40.332  0.00  0.00     0.102 A 
ENDBRANCH   1   2
BRANCH   1  12
ATOM     12  N   UNL d   1      45.273 -17.469  39.365  0.00  0.00    -0.155 NA
BRANCH  12  13
ATOM     13  S   UNL d   1      45.152 -16.988  38.701  0.00  0.00     0.291 S 
ATOM     14  O   UNL d   1      45.933 -16.706  38.764  0.00  0.00    -0.198 OA
ATOM     15  O   UNL d   1      44.369 -17.274  38.643  0.00  0.00    -0.198 OA
BRANCH  13  16
ATOM     16  C   UNL d   1      45.028 -16.511  38.040  0.00  0.00     0.135 A 
ATOM     17  S   UNL d   1      44.347 -16.475  37.590  0.00  0.00    -0.062 SA
ATOM     18  C   UNL d   1      44.458 -15.928  36.984  0.00  0.00     0.088 A 
ATOM     19 CL   UNL d   1      43.909 -15.725  36.407  0.00  0.00    -0.075 Cl
ATOM     20  C   UNL d   1      45.229 -15.619  37.065  0.00  0.00     0.019 A 
ATOM     21  C   UNL d   1      45.579 -15.979  37.716  0.00  0.00     0.021 A 
ENDBRANCH  13  16
ENDBRANCH  12  13
ENDBRANCH   1  12
TORSDOF 4
ENDMDL
