MODEL 1
REMARK VINA RESULT:      30.1      0.000      0.000
REMARK  8 active torsions:
REMARK  status: ('A' for Active; 'I' for Inactive)
REMARK    1  A    between atoms: N_5  and  S_1 
REMARK    2  A    between atoms: C_8  and  S_1 
REMARK    3  A    between atoms: C_2  and  N_10 
REMARK    4  A    between atoms: C_9  and  N_5 
REMARK    5  A    between atoms: C_13  and  C_9 
REMARK    6  A    between atoms: N_10  and  O_14 
REMARK    7  A    between atoms: C_17  and  C_13 
REMARK    8  A    between atoms: O_14  and  C_17 
ROOT
ATOM      1  C   UNL d   1      45.688 -17.322  39.025  0.00  0.00     0.193 C 
ENDROOT
BRANCH   1   2
ATOM      2  O   UNL d   1      45.040 -17.048  38.592  0.00  0.00    -0.206 OA
BRANCH   2   3
ATOM      3  N   UNL d   1      45.086 -17.001  37.763  0.00  0.00    -0.126 NA
BRANCH   3   4
ATOM      4  C   UNL d   1      44.914 -16.289  37.379  0.00  0.00     0.108 A 
ATOM      5  C   UNL d   1      44.177 -16.064  37.069  0.00  0.00     0.020 A 
ATOM      6  C   UNL d   1      44.265 -15.314  36.740  0.00  0.00     0.002 A 
ATOM      7  C   UNL d   1      43.456 -16.449  37.053  0.00  0.00     0.002 A 
ATOM      8  C   UNL d   1      43.610 -14.946  36.385  0.00  0.00     0.000 A 
ATOM      9  C   UNL d   1      45.039 -15.070  36.838  0.00  0.00     0.002 A 
ATOM     10  C   UNL d   1      42.885 -15.332  36.368  0.00  0.00     0.000 A 
ATOM     11  C   UNL d   1      42.803 -16.088  36.702  0.00  0.00     0.000 A 
ATOM     12  C   UNL d   1      45.448 -15.670  37.234  0.00  0.00     0.020 A 
ATOM     13  C   UNL d   1      45.434 -14.384  36.622  0.00  0.00     0.000 A 
ATOM     14  C   UNL d   1      46.246 -15.585  37.414  0.00  0.00     0.002 A 
ATOM     15  C   UNL d   1      46.643 -14.890  37.194  0.00  0.00     0.000 A 
ATOM     16  C   UNL d   1      46.232 -14.292  36.798  0.00  0.00     0.000 A 
ENDBRANCH   3   4
ENDBRANCH   2   3
ENDBRANCH   1   2
BRANCH   1  17
ATOM     17  C   UNL d   1      45.593 -17.940  39.558  0.00  0.00     0.240 C 
ATOM     18  O   UNL d   1      44.836 -18.183  39.779  0.00  0.00    -0.283 OA
BRANCH  17  19
ATOM     19  C   UNL d   1      45.856 -18.538  40.069  0.00  0.00     0.136 C 
BRANCH  19  20
ATOM     20  N   UNL d   1      46.262 -18.327  40.761  0.00  0.00    -0.225 N 
ATOM     21  C   UNL d   1      46.644 -17.636  40.984  0.00  0.00     0.111 C 
BRANCH  20  22
ATOM     22  S   UNL d   1      46.332 -18.870  41.381  0.00  0.00     0.272 S 
ATOM     23  O   UNL d   1      46.642 -19.300  40.739  0.00  0.00    -0.200 OA
ATOM     24  O   UNL d   1      46.071 -18.624  42.122  0.00  0.00    -0.200 OA
BRANCH  22  25
ATOM     25  C   UNL d   1      46.296 -19.213  42.130  0.00  0.00     0.104 A 
ATOM     26  C   UNL d   1      45.922 -19.942  42.231  0.00  0.00     0.013 A 
ATOM     27  C   UNL d   1      45.885 -20.284  42.976  0.00  0.00     0.007 A 
ATOM     28  C   UNL d   1      46.225 -19.897  43.629  0.00  0.00     0.035 A 
ATOM     29  C   UNL d   1      46.591 -19.165  43.474  0.00  0.00     0.007 A 
ATOM     30 BR   UNL d   1      46.201 -20.220  44.385  0.00  0.00    -0.049 Br
ATOM     31  C   UNL d   1      46.646 -18.791  42.742  0.00  0.00     0.013 A 
ENDBRANCH  22  25
ENDBRANCH  20  22
ENDBRANCH  19  20
ENDBRANCH  17  19
ENDBRANCH   1  17
TORSDOF 8
ENDMDL
MODEL 2
REMARK VINA RESULT:      32.0      0.550      1.803
REMARK  8 active torsions:
REMARK  status: ('A' for Active; 'I' for Inactive)
REMARK    1  A    between atoms: N_5  and  S_1 
REMARK    2  A    between atoms: C_8  and  S_1 
REMARK    3  A    between atoms: C_2  and  N_10 
REMARK    4  A    between atoms: C_9  and  N_5 
REMARK    5  A    between atoms: C_13  and  C_9 
REMARK    6  A    between atoms: N_10  and  O_14 
REMARK    7  A    between atoms: C_17  and  C_13 
REMARK    8  A    between atoms: O_14  and  C_17 
ROOT
ATOM      1  C   UNL d   1      45.246 -17.537  39.341  0.00  0.00     0.193 C 
ENDROOT
BRANCH   1   2
ATOM      2  O   UNL d   1      45.373 -17.045  38.690  0.00  0.00    -0.206 OA
BRANCH   2   3
ATOM      3  N   UNL d   1      44.817 -17.022  38.072  0.00  0.00    -0.126 NA
BRANCH   3   4
ATOM      4  C   UNL d   1      44.755 -16.349  37.597  0.00  0.00     0.108 A 
ATOM      5  C   UNL d   1      45.367 -15.815  37.419  0.00  0.00     0.020 A 
ATOM      6  C   UNL d   1      45.053 -15.233  36.929  0.00  0.00     0.002 A 
ATOM      7  C   UNL d   1      46.153 -15.799  37.644  0.00  0.00     0.002 A 
ATOM      8  C   UNL d   1      45.544 -14.619  36.660  0.00  0.00     0.000 A 
ATOM      9  C   UNL d   1      44.262 -15.393  36.799  0.00  0.00     0.002 A 
ATOM     10  C   UNL d   1      46.334 -14.600  36.886  0.00  0.00     0.000 A 
ATOM     11  C   UNL d   1      46.645 -15.191  37.380  0.00  0.00     0.000 A 
ATOM     12  C   UNL d   1      44.071 -16.084  37.210  0.00  0.00     0.020 A 
ATOM     13  C   UNL d   1      43.684 -15.006  36.363  0.00  0.00     0.000 A 
ATOM     14  C   UNL d   1      43.306 -16.388  37.186  0.00  0.00     0.002 A 
ATOM     15  C   UNL d   1      42.724 -15.995  36.744  0.00  0.00     0.000 A 
ATOM     16  C   UNL d   1      42.918 -15.304  36.334  0.00  0.00     0.000 A 
ENDBRANCH   3   4
ENDBRANCH   2   3
ENDBRANCH   1   2
BRANCH   1  17
ATOM     17  C   UNL d   1      45.865 -17.711  39.852  0.00  0.00     0.240 C 
ATOM     18  O   UNL d   1      46.640 -17.515  39.644  0.00  0.00    -0.283 OA
BRANCH  17  19
ATOM     19  C   UNL d   1      46.204 -18.010  40.548  0.00  0.00     0.136 C 
BRANCH  19  20
ATOM     20  N   UNL d   1      46.149 -18.822  40.706  0.00  0.00    -0.225 N 
ATOM     21  C   UNL d   1      45.951 -19.462  40.231  0.00  0.00     0.111 C 
BRANCH  20  22
ATOM     22  S   UNL d   1      46.312 -19.108  41.464  0.00  0.00     0.272 S 
ATOM     23  O   UNL d   1      46.602 -19.721  40.983  0.00  0.00    -0.200 OA
ATOM     24  O   UNL d   1      46.094 -18.628  42.098  0.00  0.00    -0.200 OA
BRANCH  22  25
ATOM     25  C   UNL d   1      46.365 -19.165  42.285  0.00  0.00     0.104 A 
ATOM     26  C   UNL d   1      46.258 -19.897  42.653  0.00  0.00     0.013 A 
ATOM     27  C   UNL d   1      46.310 -19.956  43.471  0.00  0.00     0.007 A 
ATOM     28  C   UNL d   1      46.470 -19.279  43.927  0.00  0.00     0.035 A 
ATOM     29  C   UNL d   1      46.569 -18.566  43.508  0.00  0.00     0.007 A 
ATOM     30 BR   UNL d   1      46.527 -19.313  44.747  0.00  0.00    -0.049 Br
ATOM     31  C   UNL d   1      46.524 -18.469  42.691  0.00  0.00     0.013 A 
ENDBRANCH  22  25
ENDBRANCH  20  22
ENDBRANCH  19  20
ENDBRANCH  17  19
ENDBRANCH   1  17
TORSDOF 8
ENDMDL
