MODEL 1
REMARK VINA RESULT:      35.0      0.000      0.000
REMARK  3 active torsions:
REMARK  status: ('A' for Active; 'I' for Inactive)
REMARK    1  A    between atoms: S_7  and  C_3 
REMARK       I    between atoms: N_4  and  C_5 
REMARK    2  A    between atoms: C_5  and  C_10 
REMARK    3  A    between atoms: C_10  and  S_7 
ROOT
ATOM      1  N   UNL d   1      14.570  14.607  -1.273  0.00  0.00    -0.236 NA
ATOM      2  N   UNL d   1      15.671  14.482  -0.044  0.00  0.00    -0.242 NA
ATOM      3  C   UNL d   1      14.749  13.863  -0.962  0.00  0.00     0.129 A 
ATOM      4  C   UNL d   1      15.304  13.800  -0.342  0.00  0.00     0.105 A 
ATOM      5  C   UNL d   1      14.930  15.281  -0.980  0.00  0.00     0.100 A 
ATOM      6  C   UNL d   1      15.486  15.217  -0.360  0.00  0.00     0.099 A 
ATOM      7  C   UNL d   1      15.491  13.073  -0.026  0.00  0.00     0.023 C 
ATOM      8  C   UNL d   1      15.852  15.894  -0.062  0.00  0.00     0.021 A 
ATOM      9  C   UNL d   1      14.750  16.019  -1.291  0.00  0.00     0.021 A 
ATOM     10  C   UNL d   1      15.659  16.640  -0.387  0.00  0.00     0.002 A 
ATOM     11  C   UNL d   1      15.112  16.702  -0.998  0.00  0.00     0.002 A 
ENDROOT
BRANCH   3  12
ATOM     12  S   UNL d   1      14.381  13.199  -1.263  0.00  0.00    -0.061 SA
BRANCH  12  13
ATOM     13  C   UNL d   1      14.099  13.194  -2.028  0.00  0.00     0.098 C 
BRANCH  13  14
ATOM     14  C   UNL d   1      13.810  12.487  -2.362  0.00  0.00     0.271 C 
ATOM     15  N   UNL d   1      13.564  12.488  -3.154  0.00  0.00    -0.272 N 
ATOM     16  C   UNL d   1      13.274  11.779  -3.492  0.00  0.00     0.083 A 
ATOM     17  C   UNL d   1      13.603  13.169  -3.600  0.00  0.00     0.083 A 
ATOM     18  C   UNL d   1      13.031  11.784  -4.278  0.00  0.00     0.019 A 
ATOM     19  C   UNL d   1      13.070  12.465  -4.723  0.00  0.00     0.003 A 
ATOM     20  C   UNL d   1      13.353  13.158  -4.394  0.00  0.00     0.019 A 
ATOM     21  C   UNL d   1      12.811  12.446  -5.540  0.00  0.00     0.000 C 
ATOM     22  O   UNL d   1      13.771  11.803  -1.915  0.00  0.00    -0.266 OA
ENDBRANCH  13  14
ENDBRANCH  12  13
ENDBRANCH   3  12
TORSDOF 3
ENDMDL
