MODEL 1
REMARK VINA RESULT:      -2.0      0.000      0.000
REMARK  9 active torsions:
REMARK  status: ('A' for Active; 'I' for Inactive)
REMARK    1  A    between atoms: C_12  and  N_1 
REMARK    2  A    between atoms: S_7  and  C_2 
REMARK    3  A    between atoms: C_15  and  S_7 
REMARK    4  A    between atoms: C_9  and  C_15 
REMARK    5  A    between atoms: O_14  and  C_9 
REMARK       I    between atoms: C_10  and  N_16 
REMARK    6  A    between atoms: C_19  and  C_12 
REMARK    7  A    between atoms: C_18  and  O_14 
REMARK    8  A    between atoms: N_16  and  C_19 
REMARK    9  A    between atoms: C_20  and  C_18 
ROOT
ATOM      1  N   UNL d   1      59.836  -1.486  29.173  0.00  0.00    -0.251 N 
ATOM      2  C   UNL d   1      59.012  -1.492  29.219  0.00  0.00     0.182 A 
ATOM      3  C   UNL d   1      60.251  -2.181  28.983  0.00  0.00     0.268 A 
ATOM      4  N   UNL d   1      58.592  -2.193  29.076  0.00  0.00    -0.222 NA
ATOM      5  C   UNL d   1      59.828  -2.882  28.840  0.00  0.00     0.074 A 
ATOM      6  C   UNL d   1      59.004  -2.888  28.886  0.00  0.00     0.088 A 
ATOM      7  O   UNL d   1      61.084  -2.175  28.936  0.00  0.00    -0.267 OA
ATOM      8  C   UNL d   1      60.243  -3.579  28.649  0.00  0.00     0.006 A 
ATOM      9  C   UNL d   1      58.583  -3.591  28.742  0.00  0.00     0.019 A 
ATOM     10  C   UNL d   1      59.819  -4.280  28.506  0.00  0.00     0.000 A 
ATOM     11  C   UNL d   1      58.995  -4.286  28.552  0.00  0.00     0.002 A 
ENDROOT
BRANCH   2  12
ATOM     12  S   UNL d   1      58.590  -0.790  29.411  0.00  0.00    -0.044 SA
BRANCH  12  13
ATOM     13  C   UNL d   1      57.953  -0.812  29.958  0.00  0.00     0.107 C 
BRANCH  13  14
ATOM     14  C   UNL d   1      57.534  -0.122  30.130  0.00  0.00     0.307 C 
ATOM     15  O   UNL d   1      57.290   0.376  29.521  0.00  0.00    -0.258 OA
BRANCH  14  16
ATOM     16  O   UNL d   1      57.361   0.066  30.922  0.00  0.00    -0.271 OA
BRANCH  16  17
ATOM     17  C   UNL d   1      56.821  -0.397  31.339  0.00  0.00     0.126 C 
BRANCH  17  18
ATOM     18  C   UNL d   1      56.663  -0.226  32.128  0.00  0.00     0.025 A 
ATOM     19  C   UNL d   1      57.028   0.416  32.493  0.00  0.00     0.002 A 
ATOM     20  C   UNL d   1      56.872   0.587  33.279  0.00  0.00     0.000 A 
ATOM     21  C   UNL d   1      56.348   0.116  33.710  0.00  0.00     0.000 A 
ATOM     22  C   UNL d   1      55.980  -0.533  33.342  0.00  0.00     0.000 A 
ATOM     23  C   UNL d   1      56.141  -0.700  32.550  0.00  0.00     0.002 A 
ENDBRANCH  17  18
ENDBRANCH  16  17
ENDBRANCH  14  16
ENDBRANCH  13  14
ENDBRANCH  12  13
ENDBRANCH   2  12
BRANCH   1  24
ATOM     24  C   UNL d   1      60.260  -0.778  29.318  0.00  0.00     0.106 C 
BRANCH  24  25
ATOM     25  C   UNL d   1      60.794  -0.723  29.943  0.00  0.00     0.121 C 
BRANCH  25  26
ATOM     26  N   UNL d   1      60.895  -0.014  30.366  0.00  0.00    -0.205 NA
ATOM     27  C   UNL d   1      61.028  -0.028  31.185  0.00  0.00     0.280 C 
ATOM     28  O   UNL d   1      61.060  -0.749  31.585  0.00  0.00    -0.265 OA
ATOM     29  C   UNL d   1      61.127   0.678  31.598  0.00  0.00     0.068 C 
ENDBRANCH  25  26
ENDBRANCH  24  25
ENDBRANCH   1  24
TORSDOF 9
ENDMDL
