MODEL 1
REMARK VINA RESULT:     126.6      0.000      0.000
REMARK  3 active torsions:
REMARK  status: ('A' for Active; 'I' for Inactive)
REMARK    1  A    between atoms: N_10  and  C_3 
REMARK    2  A    between atoms: C_11  and  C_5 
REMARK    3  A    between atoms: C_12  and  N_10 
ROOT
ATOM      1  N   UNL d   1      61.252  46.061  51.018  0.00  0.00    -0.184 N 
ATOM      2  C   UNL d   1      61.223  46.845  50.719  0.00  0.00     0.168 A 
ATOM      3  C   UNL d   1      61.692  45.487  50.616  0.00  0.00     0.217 A 
ATOM      4  N   UNL d   1      60.413  46.440  52.097  0.00  0.00    -0.162 NA
ATOM      5  C   UNL d   1      60.794  47.406  51.110  0.00  0.00     0.055 A 
ATOM      6  N   UNL d   1      61.634  47.026  50.030  0.00  0.00    -0.227 NA
ATOM      7  C   UNL d   1      62.092  45.681  49.937  0.00  0.00     0.066 A 
ATOM      8  C   UNL d   1      60.384  47.212  51.803  0.00  0.00     0.104 A 
ATOM      9  C   UNL d   1      62.068  46.463  49.632  0.00  0.00     0.087 A 
ATOM     10  C   UNL d   1      62.559  45.249  49.433  0.00  0.00     0.006 A 
ATOM     11  C   UNL d   1      59.952  47.786  52.194  0.00  0.00     0.023 C 
ATOM     12  C   UNL d   1      62.519  46.492  48.949  0.00  0.00     0.019 A 
ATOM     13  C   UNL d   1      62.825  45.729  48.828  0.00  0.00     0.002 A 
ENDROOT
BRANCH   3  14
ATOM     14  N   UNL d   1      61.724  44.695  50.914  0.00  0.00    -0.383 NA
BRANCH  14  15
ATOM     15  C   UNL d   1      61.760  43.906  51.213  0.00  0.00     0.134 A 
ATOM     16  C   UNL d   1      61.293  43.685  51.889  0.00  0.00     0.034 A 
ATOM     17  C   UNL d   1      61.332  42.896  52.185  0.00  0.00     0.032 A 
ATOM     18  C   UNL d   1      61.830  42.329  51.816  0.00  0.00     0.140 A 
ATOM     19  C   UNL d   1      62.295  42.555  51.142  0.00  0.00     0.032 A 
ATOM     20  F   UNL d   1      61.870  41.536  52.114  0.00  0.00    -0.204 F 
ATOM     21  C   UNL d   1      62.264  43.337  50.839  0.00  0.00     0.034 A 
ENDBRANCH  14  15
ENDBRANCH   3  14
BRANCH   5  22
ATOM     22  C   UNL d   1      60.765  48.172  50.818  0.00  0.00     0.004 A 
ATOM     23  C   UNL d   1      60.220  48.373  50.237  0.00  0.00     0.000 A 
ATOM     24  C   UNL d   1      60.188  49.136  49.944  0.00  0.00     0.000 A 
ATOM     25  C   UNL d   1      60.707  49.708  50.234  0.00  0.00     0.000 A 
ATOM     26  C   UNL d   1      61.248  49.518  50.807  0.00  0.00     0.000 A 
ATOM     27  C   UNL d   1      61.277  48.742  51.102  0.00  0.00     0.000 A 
ENDBRANCH   5  22
TORSDOF 3
ENDMDL
MODEL 2
REMARK VINA RESULT:     127.8      2.501      4.869
REMARK  3 active torsions:
REMARK  status: ('A' for Active; 'I' for Inactive)
REMARK    1  A    between atoms: N_10  and  C_3 
REMARK    2  A    between atoms: C_11  and  C_5 
REMARK    3  A    between atoms: C_12  and  N_10 
ROOT
ATOM      1  N   UNL d   1      60.062  47.365  50.582  0.00  0.00    -0.184 N 
ATOM      2  C   UNL d   1      60.792  47.062  50.303  0.00  0.00     0.168 A 
ATOM      3  C   UNL d   1      59.922  48.180  50.562  0.00  0.00     0.217 A 
ATOM      4  N   UNL d   1      59.634  46.048  50.892  0.00  0.00    -0.162 NA
ATOM      5  C   UNL d   1      60.929  46.267  50.323  0.00  0.00     0.055 A 
ATOM      6  N   UNL d   1      61.357  47.585  50.012  0.00  0.00    -0.227 NA
ATOM      7  C   UNL d   1      60.490  48.683  50.272  0.00  0.00     0.066 A 
ATOM      8  C   UNL d   1      60.353  45.750  50.617  0.00  0.00     0.104 A 
ATOM      9  C   UNL d   1      61.223  48.388  49.991  0.00  0.00     0.087 A 
ATOM     10  C   UNL d   1      60.514  49.489  50.183  0.00  0.00     0.006 A 
ATOM     11  C   UNL d   1      60.500  44.945  50.634  0.00  0.00     0.023 C 
ATOM     12  C   UNL d   1      61.679  49.019  49.736  0.00  0.00     0.019 A 
ATOM     13  C   UNL d   1      61.231  49.708  49.858  0.00  0.00     0.002 A 
ENDROOT
BRANCH   3  14
ATOM     14  N   UNL d   1      59.186  48.490  50.843  0.00  0.00    -0.383 NA
BRANCH  14  15
ATOM     15  C   UNL d   1      58.450  48.794  51.123  0.00  0.00     0.134 A 
ATOM     16  C   UNL d   1      57.725  48.586  50.729  0.00  0.00     0.034 A 
ATOM     17  C   UNL d   1      56.992  48.891  51.012  0.00  0.00     0.032 A 
ATOM     18  C   UNL d   1      56.974  49.400  51.680  0.00  0.00     0.140 A 
ATOM     19  C   UNL d   1      57.700  49.605  52.069  0.00  0.00     0.032 A 
ATOM     20  F   UNL d   1      56.237  49.708  51.965  0.00  0.00    -0.204 F 
ATOM     21  C   UNL d   1      58.436  49.307  51.797  0.00  0.00     0.034 A 
ENDBRANCH  14  15
ENDBRANCH   3  14
BRANCH   5  22
ATOM     22  C   UNL d   1      61.644  45.970  50.049  0.00  0.00     0.004 A 
ATOM     23  C   UNL d   1      62.353  46.255  50.352  0.00  0.00     0.000 A 
ATOM     24  C   UNL d   1      63.067  45.962  50.081  0.00  0.00     0.000 A 
ATOM     25  C   UNL d   1      63.076  45.376  49.501  0.00  0.00     0.000 A 
ATOM     26  C   UNL d   1      62.381  45.089  49.197  0.00  0.00     0.000 A 
ATOM     27  C   UNL d   1      61.658  45.390  49.474  0.00  0.00     0.000 A 
ENDBRANCH   5  22
TORSDOF 3
ENDMDL
