MODEL 1
REMARK VINA RESULT:      -7.6      0.000      0.000
REMARK  5 active torsions:
REMARK  status: ('A' for Active; 'I' for Inactive)
REMARK    1  A    between atoms: N_2  and  C_1 
REMARK       I    between atoms: C_7  and  N_2 
REMARK    2  A    between atoms: C_17  and  N_3 
REMARK    3  A    between atoms: C_14  and  C_7 
REMARK       I    between atoms: C_10  and  N_11 
REMARK    4  A    between atoms: N_11  and  C_12 
REMARK    5  A    between atoms: C_16  and  C_17 
ROOT
ATOM      1  C   UNL d   1     -47.860  13.430  22.896  0.00  0.00     0.182 A 
ATOM      2  N   UNL d   1     -47.584  12.732  23.232  0.00  0.00    -0.285 N 
ATOM      3  S   UNL d   1     -47.237  13.776  22.482  0.00  0.00    -0.048 SA
ATOM      4  C   UNL d   1     -46.571  13.288  22.563  0.00  0.00     0.050 A 
ATOM      5  C   UNL d   1     -46.787  12.641  23.028  0.00  0.00     0.072 A 
ATOM      6  C   UNL d   1     -45.802  13.351  22.274  0.00  0.00     0.027 A 
ATOM      7  C   UNL d   1     -46.234  12.055  23.205  0.00  0.00     0.020 A 
ATOM      8  C   UNL d   1     -45.248  12.766  22.450  0.00  0.00     0.085 A 
ATOM      9  C   UNL d   1     -45.464  12.119  22.915  0.00  0.00     0.021 A 
ENDROOT
BRANCH   1  10
ATOM     10  N   UNL d   1     -48.628  13.725  22.966  0.00  0.00    -0.184 NA
ATOM     11  C   UNL d   1     -48.757  14.537  22.909  0.00  0.00     0.281 C 
ATOM     12  O   UNL d   1     -48.121  15.046  22.783  0.00  0.00    -0.265 OA
BRANCH  11  13
ATOM     13  C   UNL d   1     -49.522  14.841  22.979  0.00  0.00     0.058 A 
ATOM     14  C   UNL d   1     -50.102  14.668  22.404  0.00  0.00     0.005 A 
ATOM     15  C   UNL d   1     -50.868  14.971  22.473  0.00  0.00     0.000 A 
ATOM     16  C   UNL d   1     -51.064  15.452  23.118  0.00  0.00     0.000 A 
ATOM     17  C   UNL d   1     -50.491  15.623  23.685  0.00  0.00     0.000 A 
ATOM     18  C   UNL d   1     -49.726  15.320  23.616  0.00  0.00     0.005 A 
ENDBRANCH  11  13
ENDBRANCH   1  10
BRANCH   2  19
ATOM     19  C   UNL d   1     -48.022  12.206  23.696  0.00  0.00     0.082 C 
BRANCH  19  20
ATOM     20  C   UNL d   1     -48.331  11.516  23.367  0.00  0.00     0.019 C 
ATOM     21  C   UNL d   1     -48.998  11.164  23.698  0.00  0.00     0.002 C 
ENDBRANCH  19  20
ENDBRANCH   2  19
BRANCH   8  22
ATOM     22  N   UNL d   1     -44.466  12.828  22.158  0.00  0.00    -0.208 NA
ATOM     23  C   UNL d   1     -43.952  12.197  22.237  0.00  0.00     0.279 C 
ATOM     24  O   UNL d   1     -43.183  12.260  21.948  0.00  0.00    -0.265 OA
ATOM     25  C   UNL d   1     -44.194  11.497  22.602  0.00  0.00     0.068 C 
ENDBRANCH   8  22
TORSDOF 5
ENDMDL
MODEL 2
REMARK VINA RESULT:      -6.8      1.715      2.290
REMARK  5 active torsions:
REMARK  status: ('A' for Active; 'I' for Inactive)
REMARK    1  A    between atoms: N_2  and  C_1 
REMARK       I    between atoms: C_7  and  N_2 
REMARK    2  A    between atoms: C_17  and  N_3 
REMARK    3  A    between atoms: C_14  and  C_7 
REMARK       I    between atoms: C_10  and  N_11 
REMARK    4  A    between atoms: N_11  and  C_12 
REMARK    5  A    between atoms: C_16  and  C_17 
ROOT
ATOM      1  C   UNL d   1     -47.471  12.502  23.038  0.00  0.00     0.182 A 
ATOM      2  N   UNL d   1     -46.744  12.830  22.843  0.00  0.00    -0.285 N 
ATOM      3  S   UNL d   1     -47.337  11.744  23.333  0.00  0.00    -0.048 SA
ATOM      4  C   UNL d   1     -46.520  11.604  23.321  0.00  0.00     0.050 A 
ATOM      5  C   UNL d   1     -46.152  12.278  23.017  0.00  0.00     0.072 A 
ATOM      6  C   UNL d   1     -46.068  10.953  23.547  0.00  0.00     0.027 A 
ATOM      7  C   UNL d   1     -45.331  12.302  22.938  0.00  0.00     0.020 A 
ATOM      8  C   UNL d   1     -45.247  10.976  23.468  0.00  0.00     0.085 A 
ATOM      9  C   UNL d   1     -44.879  11.650  23.164  0.00  0.00     0.021 A 
ENDROOT
BRANCH   1  10
ATOM     10  N   UNL d   1     -48.204  12.873  22.949  0.00  0.00    -0.184 NA
ATOM     11  C   UNL d   1     -48.809  12.483  22.547  0.00  0.00     0.281 C 
ATOM     12  O   UNL d   1     -48.679  11.730  22.238  0.00  0.00    -0.265 OA
BRANCH  11  13
ATOM     13  C   UNL d   1     -49.545  12.847  22.454  0.00  0.00     0.058 A 
ATOM     14  C   UNL d   1     -49.706  13.316  21.783  0.00  0.00     0.005 A 
ATOM     15  C   UNL d   1     -50.442  13.680  21.690  0.00  0.00     0.000 A 
ATOM     16  C   UNL d   1     -51.028  13.580  22.266  0.00  0.00     0.000 A 
ATOM     17  C   UNL d   1     -50.869  13.116  22.929  0.00  0.00     0.000 A 
ATOM     18  C   UNL d   1     -50.133  12.752  23.022  0.00  0.00     0.005 A 
ENDBRANCH  11  13
ENDBRANCH   1  10
BRANCH   2  19
ATOM     19  C   UNL d   1     -46.616  13.584  22.528  0.00  0.00     0.082 C 
BRANCH  19  20
ATOM     20  C   UNL d   1     -46.443  14.221  23.021  0.00  0.00     0.019 C 
ATOM     21  C   UNL d   1     -46.532  14.992  22.747  0.00  0.00     0.002 C 
ENDBRANCH  19  20
ENDBRANCH   2  19
BRANCH   8  22
ATOM     22  N   UNL d   1     -44.785  10.316  23.697  0.00  0.00    -0.208 NA
ATOM     23  C   UNL d   1     -44.014  10.251  23.436  0.00  0.00     0.279 C 
ATOM     24  O   UNL d   1     -43.561   9.600  23.662  0.00  0.00    -0.265 OA
ATOM     25  C   UNL d   1     -43.680  10.828  22.948  0.00  0.00     0.068 C 
ENDBRANCH   8  22
TORSDOF 5
ENDMDL
MODEL 3
REMARK VINA RESULT:      -6.7      1.152      4.871
REMARK  5 active torsions:
REMARK  status: ('A' for Active; 'I' for Inactive)
REMARK    1  A    between atoms: N_2  and  C_1 
REMARK       I    between atoms: C_7  and  N_2 
REMARK    2  A    between atoms: C_17  and  N_3 
REMARK    3  A    between atoms: C_14  and  C_7 
REMARK       I    between atoms: C_10  and  N_11 
REMARK    4  A    between atoms: N_11  and  C_12 
REMARK    5  A    between atoms: C_16  and  C_17 
ROOT
ATOM      1  C   UNL d   1     -46.978  13.218  22.585  0.00  0.00     0.182 A 
ATOM      2  N   UNL d   1     -47.528  12.915  23.116  0.00  0.00    -0.285 N 
ATOM      3  S   UNL d   1     -47.268  13.934  22.300  0.00  0.00    -0.048 SA
ATOM      4  C   UNL d   1     -48.003  14.075  22.657  0.00  0.00     0.050 A 
ATOM      5  C   UNL d   1     -48.164  13.443  23.163  0.00  0.00     0.072 A 
ATOM      6  C   UNL d   1     -48.541  14.695  22.586  0.00  0.00     0.027 A 
ATOM      7  C   UNL d   1     -48.864  13.429  23.599  0.00  0.00     0.020 A 
ATOM      8  C   UNL d   1     -49.242  14.683  23.021  0.00  0.00     0.085 A 
ATOM      9  C   UNL d   1     -49.403  14.050  23.527  0.00  0.00     0.021 A 
ENDROOT
BRANCH   1  10
ATOM     10  N   UNL d   1     -46.262  12.859  22.380  0.00  0.00    -0.184 NA
ATOM     11  C   UNL d   1     -45.573  13.312  22.360  0.00  0.00     0.281 C 
ATOM     12  O   UNL d   1     -45.605  14.115  22.544  0.00  0.00    -0.265 OA
BRANCH  11  13
ATOM     13  C   UNL d   1     -44.854  12.962  22.156  0.00  0.00     0.058 A 
ATOM     14  C   UNL d   1     -44.597  12.265  22.536  0.00  0.00     0.005 A 
ATOM     15  C   UNL d   1     -43.877  11.914  22.332  0.00  0.00     0.000 A 
ATOM     16  C   UNL d   1     -43.403  12.256  21.745  0.00  0.00     0.000 A 
ATOM     17  C   UNL d   1     -43.658  12.945  21.370  0.00  0.00     0.000 A 
ATOM     18  C   UNL d   1     -44.377  13.295  21.574  0.00  0.00     0.005 A 
ENDBRANCH  11  13
ENDBRANCH   1  10
BRANCH   2  19
ATOM     19  C   UNL d   1     -47.464  12.205  23.535  0.00  0.00     0.082 C 
BRANCH  19  20
ATOM     20  C   UNL d   1     -47.899  11.543  23.306  0.00  0.00     0.019 C 
ATOM     21  C   UNL d   1     -47.797  10.826  23.697  0.00  0.00     0.002 C 
ENDBRANCH  19  20
ENDBRANCH   2  19
BRANCH   8  22
ATOM     22  N   UNL d   1     -49.791  15.311  22.951  0.00  0.00    -0.208 NA
ATOM     23  C   UNL d   1     -50.526  15.172  22.621  0.00  0.00     0.279 C 
ATOM     24  O   UNL d   1     -51.064  15.792  22.553  0.00  0.00    -0.265 OA
ATOM     25  C   UNL d   1     -50.736  14.419  22.356  0.00  0.00     0.068 C 
ENDBRANCH   8  22
TORSDOF 5
ENDMDL
MODEL 4
REMARK VINA RESULT:      -6.3      7.703      9.724
REMARK  5 active torsions:
REMARK  status: ('A' for Active; 'I' for Inactive)
REMARK    1  A    between atoms: N_2  and  C_1 
REMARK       I    between atoms: C_7  and  N_2 
REMARK    2  A    between atoms: C_17  and  N_3 
REMARK    3  A    between atoms: C_14  and  C_7 
REMARK       I    between atoms: C_10  and  N_11 
REMARK    4  A    between atoms: N_11  and  C_12 
REMARK    5  A    between atoms: C_16  and  C_17 
ROOT
ATOM      1  C   UNL d   1     -39.237  14.916  20.129  0.00  0.00     0.182 A 
ATOM      2  N   UNL d   1     -39.922  15.086  19.708  0.00  0.00    -0.285 N 
ATOM      3  S   UNL d   1     -38.609  14.899  19.596  0.00  0.00    -0.048 SA
ATOM      4  C   UNL d   1     -38.908  15.059  18.840  0.00  0.00     0.050 A 
ATOM      5  C   UNL d   1     -39.723  15.175  18.910  0.00  0.00     0.072 A 
ATOM      6  C   UNL d   1     -38.545  15.114  18.103  0.00  0.00     0.027 A 
ATOM      7  C   UNL d   1     -40.176  15.345  18.242  0.00  0.00     0.020 A 
ATOM      8  C   UNL d   1     -38.996  15.284  17.434  0.00  0.00     0.085 A 
ATOM      9  C   UNL d   1     -39.811  15.400  17.503  0.00  0.00     0.021 A 
ENDROOT
BRANCH   1  10
ATOM     10  N   UNL d   1     -39.195  14.788  20.944  0.00  0.00    -0.184 NA
ATOM     11  C   UNL d   1     -38.621  14.277  21.245  0.00  0.00     0.281 C 
ATOM     12  O   UNL d   1     -38.096  13.902  20.732  0.00  0.00    -0.265 OA
BRANCH  11  13
ATOM     13  C   UNL d   1     -38.572  14.143  22.058  0.00  0.00     0.058 A 
ATOM     14  C   UNL d   1     -38.761  13.395  22.378  0.00  0.00     0.005 A 
ATOM     15  C   UNL d   1     -38.712  13.261  23.192  0.00  0.00     0.000 A 
ATOM     16  C   UNL d   1     -38.473  13.872  23.698  0.00  0.00     0.000 A 
ATOM     17  C   UNL d   1     -38.287  14.610  23.381  0.00  0.00     0.000 A 
ATOM     18  C   UNL d   1     -38.336  14.744  22.568  0.00  0.00     0.005 A 
ENDBRANCH  11  13
ENDBRANCH   1  10
BRANCH   2  19
ATOM     19  C   UNL d   1     -40.684  15.157  20.021  0.00  0.00     0.082 C 
BRANCH  19  20
ATOM     20  C   UNL d   1     -40.943  15.874  20.335  0.00  0.00     0.019 C 
ATOM     21  C   UNL d   1     -41.676  15.921  20.707  0.00  0.00     0.002 C 
ENDBRANCH  19  20
ENDBRANCH   2  19
BRANCH   8  22
ATOM     22  N   UNL d   1     -38.630  15.340  16.683  0.00  0.00    -0.208 NA
ATOM     23  C   UNL d   1     -38.554  14.673  16.218  0.00  0.00     0.279 C 
ATOM     24  O   UNL d   1     -38.193  14.731  15.479  0.00  0.00    -0.265 OA
ATOM     25  C   UNL d   1     -38.835  13.941  16.477  0.00  0.00     0.068 C 
ENDBRANCH   8  22
TORSDOF 5
ENDMDL
MODEL 5
REMARK VINA RESULT:      -6.0      1.631      2.401
REMARK  5 active torsions:
REMARK  status: ('A' for Active; 'I' for Inactive)
REMARK    1  A    between atoms: N_2  and  C_1 
REMARK       I    between atoms: C_7  and  N_2 
REMARK    2  A    between atoms: C_17  and  N_3 
REMARK    3  A    between atoms: C_14  and  C_7 
REMARK       I    between atoms: C_10  and  N_11 
REMARK    4  A    between atoms: N_11  and  C_12 
REMARK    5  A    between atoms: C_16  and  C_17 
ROOT
ATOM      1  C   UNL d   1     -47.367  12.830  22.849  0.00  0.00     0.182 A 
ATOM      2  N   UNL d   1     -46.974  13.447  22.474  0.00  0.00    -0.285 N 
ATOM      3  S   UNL d   1     -46.817  12.237  23.007  0.00  0.00    -0.048 SA
ATOM      4  C   UNL d   1     -46.078  12.489  22.728  0.00  0.00     0.050 A 
ATOM      5  C   UNL d   1     -46.175  13.240  22.398  0.00  0.00     0.072 A 
ATOM      6  C   UNL d   1     -45.335  12.134  22.734  0.00  0.00     0.027 A 
ATOM      7  C   UNL d   1     -45.530  13.636  22.072  0.00  0.00     0.020 A 
ATOM      8  C   UNL d   1     -44.688  12.529  22.409  0.00  0.00     0.085 A 
ATOM      9  C   UNL d   1     -44.785  13.279  22.078  0.00  0.00     0.021 A 
ENDROOT
BRANCH   1  10
ATOM     10  N   UNL d   1     -48.173  12.815  23.030  0.00  0.00    -0.184 NA
ATOM     11  C   UNL d   1     -48.632  12.176  22.784  0.00  0.00     0.281 C 
ATOM     12  O   UNL d   1     -48.285  11.559  22.362  0.00  0.00    -0.265 OA
BRANCH  11  13
ATOM     13  C   UNL d   1     -49.438  12.153  22.962  0.00  0.00     0.058 A 
ATOM     14  C   UNL d   1     -49.737  11.609  23.520  0.00  0.00     0.005 A 
ATOM     15  C   UNL d   1     -50.543  11.586  23.697  0.00  0.00     0.000 A 
ATOM     16  C   UNL d   1     -51.064  12.108  23.319  0.00  0.00     0.000 A 
ATOM     17  C   UNL d   1     -50.769  12.646  22.768  0.00  0.00     0.000 A 
ATOM     18  C   UNL d   1     -49.962  12.668  22.591  0.00  0.00     0.005 A 
ENDBRANCH  11  13
ENDBRANCH   1  10
BRANCH   2  19
ATOM     19  C   UNL d   1     -47.310  14.156  22.215  0.00  0.00     0.082 C 
BRANCH  19  20
ATOM     20  C   UNL d   1     -47.288  14.828  22.691  0.00  0.00     0.019 C 
ATOM     21  C   UNL d   1     -47.325  15.577  22.351  0.00  0.00     0.002 C 
ENDBRANCH  19  20
ENDBRANCH   2  19
BRANCH   8  22
ATOM     22  N   UNL d   1     -43.932  12.170  22.413  0.00  0.00    -0.208 NA
ATOM     23  C   UNL d   1     -43.402  12.332  21.811  0.00  0.00     0.279 C 
ATOM     24  O   UNL d   1     -42.659  11.977  21.818  0.00  0.00    -0.265 OA
ATOM     25  C   UNL d   1     -43.603  12.846  21.197  0.00  0.00     0.068 C 
ENDBRANCH   8  22
TORSDOF 5
ENDMDL
MODEL 6
REMARK VINA RESULT:      -5.5      1.786      5.326
REMARK  5 active torsions:
REMARK  status: ('A' for Active; 'I' for Inactive)
REMARK    1  A    between atoms: N_2  and  C_1 
REMARK       I    between atoms: C_7  and  N_2 
REMARK    2  A    between atoms: C_17  and  N_3 
REMARK    3  A    between atoms: C_14  and  C_7 
REMARK       I    between atoms: C_10  and  N_11 
REMARK    4  A    between atoms: N_11  and  C_12 
REMARK    5  A    between atoms: C_16  and  C_17 
ROOT
ATOM      1  C   UNL d   1     -46.355  12.353  23.198  0.00  0.00     0.182 A 
ATOM      2  N   UNL d   1     -46.548  13.100  22.915  0.00  0.00    -0.285 N 
ATOM      3  S   UNL d   1     -47.044  12.003  23.484  0.00  0.00    -0.048 SA
ATOM      4  C   UNL d   1     -47.668  12.538  23.376  0.00  0.00     0.050 A 
ATOM      5  C   UNL d   1     -47.361  13.219  23.024  0.00  0.00     0.072 A 
ATOM      6  C   UNL d   1     -48.472  12.492  23.554  0.00  0.00     0.027 A 
ATOM      7  C   UNL d   1     -47.856  13.854  22.848  0.00  0.00     0.020 A 
ATOM      8  C   UNL d   1     -48.968  13.127  23.379  0.00  0.00     0.085 A 
ATOM      9  C   UNL d   1     -48.661  13.808  23.026  0.00  0.00     0.021 A 
ENDROOT
BRANCH   1  10
ATOM     10  N   UNL d   1     -45.599  12.020  23.193  0.00  0.00    -0.184 NA
ATOM     11  C   UNL d   1     -45.509  11.218  23.364  0.00  0.00     0.281 C 
ATOM     12  O   UNL d   1     -46.170  10.758  23.538  0.00  0.00    -0.265 OA
BRANCH  11  13
ATOM     13  C   UNL d   1     -44.757  10.877  23.361  0.00  0.00     0.058 A 
ATOM     14  C   UNL d   1     -44.109  11.276  23.017  0.00  0.00     0.005 A 
ATOM     15  C   UNL d   1     -43.357  10.934  23.014  0.00  0.00     0.000 A 
ATOM     16  C   UNL d   1     -43.241  10.189  23.355  0.00  0.00     0.000 A 
ATOM     17  C   UNL d   1     -43.880   9.795  23.695  0.00  0.00     0.000 A 
ATOM     18  C   UNL d   1     -44.632  10.136  23.698  0.00  0.00     0.005 A 
ENDBRANCH  11  13
ENDBRANCH   1  10
BRANCH   2  19
ATOM     19  C   UNL d   1     -46.027  13.646  22.579  0.00  0.00     0.082 C 
BRANCH  19  20
ATOM     20  C   UNL d   1     -45.963  14.408  22.886  0.00  0.00     0.019 C 
ATOM     21  C   UNL d   1     -45.519  14.978  22.490  0.00  0.00     0.002 C 
ENDBRANCH  19  20
ENDBRANCH   2  19
BRANCH   8  22
ATOM     22  N   UNL d   1     -49.785  13.083  23.558  0.00  0.00    -0.208 NA
ATOM     23  C   UNL d   1     -50.261  12.556  23.153  0.00  0.00     0.279 C 
ATOM     24  O   UNL d   1     -51.064  12.515  23.332  0.00  0.00    -0.265 OA
ATOM     25  C   UNL d   1     -49.948  12.064  22.568  0.00  0.00     0.068 C 
ENDBRANCH   8  22
TORSDOF 5
ENDMDL
