MODEL 1
REMARK VINA RESULT:      53.0      0.000      0.000
REMARK  9 active torsions:
REMARK  status: ('A' for Active; 'I' for Inactive)
REMARK    1  A    between atoms: S_10  and  C_3 
REMARK    2  A    between atoms: C_17  and  N_5 
REMARK    3  A    between atoms: C_12  and  S_10 
REMARK    4  A    between atoms: C_11  and  C_12 
REMARK       I    between atoms: N_13  and  C_11 
REMARK    5  A    between atoms: C_26  and  C_12 
REMARK    6  A    between atoms: C_23  and  N_13 
REMARK    7  A    between atoms: C_15  and  C_23 
REMARK    8  A    between atoms: C_22  and  C_17 
REMARK    9  A    between atoms: C_30  and  C_26 
ROOT
ATOM      1  C   UNL d   1      14.894  13.734  -1.138  0.00  0.00     0.081 A 
ATOM      2  C   UNL d   1      14.247  13.597  -1.633  0.00  0.00     0.117 A 
ATOM      3  C   UNL d   1      14.351  14.935  -2.132  0.00  0.00     0.182 A 
ATOM      4  N   UNL d   1      13.976  14.191  -2.126  0.00  0.00    -0.215 NA
ATOM      5  N   UNL d   1      14.999  15.067  -1.635  0.00  0.00    -0.253 N 
ATOM      6  C   UNL d   1      15.272  14.466  -1.136  0.00  0.00     0.268 A 
ATOM      7  S   UNL d   1      13.992  12.825  -1.511  0.00  0.00    -0.068 SA
ATOM      8  C   UNL d   1      15.041  13.045  -0.709  0.00  0.00     0.013 A 
ATOM      9  C   UNL d   1      14.480  12.485  -0.943  0.00  0.00     0.031 A 
ATOM     10  O   UNL d   1      15.919  14.603  -0.642  0.00  0.00    -0.267 OA
ATOM     11  C   UNL d   1      15.523  12.697  -0.142  0.00  0.00     0.001 A 
ATOM     12  C   UNL d   1      14.620  11.792  -0.518  0.00  0.00     0.006 A 
ATOM     13  C   UNL d   1      15.268  11.922  -0.019  0.00  0.00     0.001 A 
ENDROOT
BRANCH   3  14
ATOM     14  S   UNL d   1      14.078  15.527  -2.627  0.00  0.00    -0.045 SA
BRANCH  14  15
ATOM     15  C   UNL d   1      14.111  15.435  -3.443  0.00  0.00     0.093 C 
BRANCH  15  16
ATOM     16  C   UNL d   1      13.488  15.060  -3.848  0.00  0.00     0.285 C 
ATOM     17  N   UNL d   1      13.573  14.287  -4.113  0.00  0.00    -0.204 NA
ATOM     18  O   UNL d   1      12.786  15.471  -3.978  0.00  0.00    -0.265 OA
BRANCH  17  19
ATOM     19  C   UNL d   1      12.959  13.917  -4.512  0.00  0.00     0.127 C 
BRANCH  19  20
ATOM     20  C   UNL d   1      12.983  13.106  -4.650  0.00  0.00     0.119 A 
ATOM     21  O   UNL d   1      12.773  12.518  -4.122  0.00  0.00    -0.304 OA
ATOM     22  C   UNL d   1      12.883  11.791  -4.488  0.00  0.00     0.123 A 
ATOM     23  C   UNL d   1      13.165  11.928  -5.253  0.00  0.00     0.029 A 
ATOM     24  C   UNL d   1      13.230  12.743  -5.360  0.00  0.00     0.028 A 
ENDBRANCH  19  20
ENDBRANCH  17  19
ENDBRANCH  15  16
BRANCH  15  25
ATOM     25  C   UNL d   1      14.760  15.711  -3.868  0.00  0.00     0.057 C 
BRANCH  25  26
ATOM     26  C   UNL d   1      14.634  16.186  -4.530  0.00  0.00     0.235 C 
ATOM     27  O   UNL d   1      15.260  16.634  -4.838  0.00  0.00    -0.283 OA
ENDBRANCH  25  26
ENDBRANCH  15  25
ENDBRANCH  14  15
ENDBRANCH   3  14
BRANCH   5  28
ATOM     28  C   UNL d   1      15.372  15.802  -1.638  0.00  0.00     0.085 C 
BRANCH  28  29
ATOM     29  C   UNL d   1      14.936  16.490  -1.498  0.00  0.00     0.019 C 
ATOM     30  C   UNL d   1      15.325  17.207  -1.374  0.00  0.00     0.002 C 
ENDBRANCH  28  29
ENDBRANCH   5  28
TORSDOF 9
ENDMDL
MODEL 2
REMARK VINA RESULT:      54.3      1.552      3.502
REMARK  9 active torsions:
REMARK  status: ('A' for Active; 'I' for Inactive)
REMARK    1  A    between atoms: S_10  and  C_3 
REMARK    2  A    between atoms: C_17  and  N_5 
REMARK    3  A    between atoms: C_12  and  S_10 
REMARK    4  A    between atoms: C_11  and  C_12 
REMARK       I    between atoms: N_13  and  C_11 
REMARK    5  A    between atoms: C_26  and  C_12 
REMARK    6  A    between atoms: C_23  and  N_13 
REMARK    7  A    between atoms: C_15  and  C_23 
REMARK    8  A    between atoms: C_22  and  C_17 
REMARK    9  A    between atoms: C_30  and  C_26 
ROOT
ATOM      1  C   UNL d   1      14.362  13.295  -2.068  0.00  0.00     0.081 A 
ATOM      2  C   UNL d   1      14.592  14.021  -1.746  0.00  0.00     0.117 A 
ATOM      3  C   UNL d   1      14.265  14.666  -2.981  0.00  0.00     0.182 A 
ATOM      4  N   UNL d   1      14.544  14.702  -2.198  0.00  0.00    -0.215 NA
ATOM      5  N   UNL d   1      14.036  13.938  -3.299  0.00  0.00    -0.253 N 
ATOM      6  C   UNL d   1      14.084  13.250  -2.842  0.00  0.00     0.268 A 
ATOM      7  S   UNL d   1      14.840  13.890  -0.974  0.00  0.00    -0.068 SA
ATOM      8  C   UNL d   1      14.468  12.713  -1.493  0.00  0.00     0.013 A 
ATOM      9  C   UNL d   1      14.765  13.086  -0.817  0.00  0.00     0.031 A 
ATOM     10  O   UNL d   1      13.854  12.525  -3.163  0.00  0.00    -0.267 OA
ATOM     11  C   UNL d   1      14.396  11.912  -1.327  0.00  0.00     0.001 A 
ATOM     12  C   UNL d   1      14.874  12.510  -0.237  0.00  0.00     0.006 A 
ATOM     13  C   UNL d   1      14.645  11.779  -0.552  0.00  0.00     0.001 A 
ENDROOT
BRANCH   3  14
ATOM     14  S   UNL d   1      14.219  15.350  -3.431  0.00  0.00    -0.045 SA
BRANCH  14  15
ATOM     15  C   UNL d   1      14.658  16.013  -3.223  0.00  0.00     0.093 C 
BRANCH  15  16
ATOM     16  C   UNL d   1      15.053  16.453  -3.808  0.00  0.00     0.285 C 
ATOM     17  N   UNL d   1      14.672  17.078  -4.183  0.00  0.00    -0.204 NA
ATOM     18  O   UNL d   1      15.827  16.257  -4.008  0.00  0.00    -0.265 OA
BRANCH  17  19
ATOM     19  C   UNL d   1      15.060  17.513  -4.760  0.00  0.00     0.127 C 
BRANCH  19  20
ATOM     20  C   UNL d   1      14.680  18.141  -5.132  0.00  0.00     0.119 A 
ATOM     21  O   UNL d   1      14.460  18.848  -4.787  0.00  0.00    -0.304 OA
ATOM     22  C   UNL d   1      14.098  19.314  -5.358  0.00  0.00     0.123 A 
ATOM     23  C   UNL d   1      14.092  18.891  -6.069  0.00  0.00     0.029 A 
ATOM     24  C   UNL d   1      14.452  18.160  -5.936  0.00  0.00     0.028 A 
ENDBRANCH  19  20
ENDBRANCH  17  19
ENDBRANCH  15  16
BRANCH  15  25
ATOM     25  C   UNL d   1      14.711  16.248  -2.436  0.00  0.00     0.057 C 
BRANCH  25  26
ATOM     26  C   UNL d   1      15.169  16.908  -2.244  0.00  0.00     0.235 C 
ATOM     27  O   UNL d   1      15.079  17.266  -1.502  0.00  0.00    -0.283 OA
ENDBRANCH  25  26
ENDBRANCH  15  25
ENDBRANCH  14  15
ENDBRANCH   3  14
BRANCH   5  28
ATOM     28  C   UNL d   1      13.759  13.899  -4.074  0.00  0.00     0.085 C 
BRANCH  28  29
ATOM     29  C   UNL d   1      12.973  14.093  -4.244  0.00  0.00     0.019 C 
ATOM     30  C   UNL d   1      12.769  14.360  -4.998  0.00  0.00     0.002 C 
ENDBRANCH  28  29
ENDBRANCH   5  28
TORSDOF 9
ENDMDL
MODEL 3
REMARK VINA RESULT:      55.3      2.140      3.983
REMARK  9 active torsions:
REMARK  status: ('A' for Active; 'I' for Inactive)
REMARK    1  A    between atoms: S_10  and  C_3 
REMARK    2  A    between atoms: C_17  and  N_5 
REMARK    3  A    between atoms: C_12  and  S_10 
REMARK    4  A    between atoms: C_11  and  C_12 
REMARK       I    between atoms: N_13  and  C_11 
REMARK    5  A    between atoms: C_26  and  C_12 
REMARK    6  A    between atoms: C_23  and  N_13 
REMARK    7  A    between atoms: C_15  and  C_23 
REMARK    8  A    between atoms: C_22  and  C_17 
REMARK    9  A    between atoms: C_30  and  C_26 
ROOT
ATOM      1  C   UNL d   1      13.631  13.857  -3.666  0.00  0.00     0.081 A 
ATOM      2  C   UNL d   1      13.528  14.094  -4.452  0.00  0.00     0.117 A 
ATOM      3  C   UNL d   1      13.990  15.405  -4.111  0.00  0.00     0.182 A 
ATOM      4  N   UNL d   1      13.706  14.862  -4.673  0.00  0.00    -0.215 NA
ATOM      5  N   UNL d   1      14.091  15.164  -3.326  0.00  0.00    -0.253 N 
ATOM      6  C   UNL d   1      13.912  14.388  -3.103  0.00  0.00     0.268 A 
ATOM      7  S   UNL d   1      13.245  13.451  -4.877  0.00  0.00    -0.068 SA
ATOM      8  C   UNL d   1      13.411  13.064  -3.606  0.00  0.00     0.013 A 
ATOM      9  C   UNL d   1      13.172  12.817  -4.358  0.00  0.00     0.031 A 
ATOM     10  O   UNL d   1      14.014  14.151  -2.318  0.00  0.00    -0.267 OA
ATOM     11  C   UNL d   1      13.335  12.426  -3.095  0.00  0.00     0.001 A 
ATOM     12  C   UNL d   1      12.950  12.024  -4.306  0.00  0.00     0.006 A 
ATOM     13  C   UNL d   1      13.051  11.779  -3.521  0.00  0.00     0.001 A 
ENDROOT
BRANCH   3  14
ATOM     14  S   UNL d   1      14.166  16.173  -4.336  0.00  0.00    -0.045 SA
BRANCH  14  15
ATOM     15  C   UNL d   1      14.459  16.328  -5.089  0.00  0.00     0.093 C 
BRANCH  15  16
ATOM     16  C   UNL d   1      14.038  16.824  -5.607  0.00  0.00     0.285 C 
ATOM     17  N   UNL d   1      14.154  17.638  -5.585  0.00  0.00    -0.204 NA
ATOM     18  O   UNL d   1      13.506  16.494  -6.141  0.00  0.00    -0.265 OA
BRANCH  17  19
ATOM     19  C   UNL d   1      13.741  18.129  -6.096  0.00  0.00     0.127 C 
BRANCH  19  20
ATOM     20  C   UNL d   1      13.858  18.943  -6.074  0.00  0.00     0.119 A 
ATOM     21  O   UNL d   1      14.511  19.332  -5.775  0.00  0.00    -0.304 OA
ATOM     22  C   UNL d   1      14.396  20.140  -5.865  0.00  0.00     0.123 A 
ATOM     23  C   UNL d   1      13.662  20.256  -6.226  0.00  0.00     0.029 A 
ATOM     24  C   UNL d   1      13.321  19.516  -6.359  0.00  0.00     0.028 A 
ENDBRANCH  19  20
ENDBRANCH  17  19
ENDBRANCH  15  16
BRANCH  15  25
ATOM     25  C   UNL d   1      15.169  15.994  -5.337  0.00  0.00     0.057 C 
BRANCH  25  26
ATOM     26  C   UNL d   1      15.808  16.488  -5.505  0.00  0.00     0.235 C 
ATOM     27  O   UNL d   1      16.463  16.496  -4.998  0.00  0.00    -0.283 OA
ENDBRANCH  25  26
ENDBRANCH  15  25
ENDBRANCH  14  15
ENDBRANCH   3  14
BRANCH   5  28
ATOM     28  C   UNL d   1      14.372  15.699  -2.767  0.00  0.00     0.085 C 
BRANCH  28  29
ATOM     29  C   UNL d   1      14.878  15.444  -2.165  0.00  0.00     0.019 C 
ATOM     30  C   UNL d   1      14.854  15.808  -1.424  0.00  0.00     0.002 C 
ENDBRANCH  28  29
ENDBRANCH   5  28
TORSDOF 9
ENDMDL
