MODEL 1
REMARK VINA RESULT:      -4.0      0.000      0.000
REMARK  5 active torsions:
REMARK  status: ('A' for Active; 'I' for Inactive)
REMARK    1  A    between atoms: C_3  and  C_1 
REMARK    2  A    between atoms: C_6  and  C_9 
REMARK    3  A    between atoms: C_7  and  C_12 
REMARK    4  A    between atoms: C_9  and  C_11 
REMARK       I    between atoms: C_11  and  N_16 
REMARK    5  A    between atoms: N_16  and  C_18 
ROOT
ATOM      1  N   UNL d   1      32.993  21.201 -22.926  0.00  0.00    -0.207 NA
ATOM      2  C   UNL d   1      33.074  20.508 -23.389  0.00  0.00     0.285 A 
ATOM      3  S   UNL d   1      33.167  19.720 -22.186  0.00  0.00    -0.080 SA
ATOM      4  C   UNL d   1      33.161  19.772 -23.021  0.00  0.00     0.092 A 
ATOM      5  C   UNL d   1      33.000  21.144 -22.100  0.00  0.00     0.090 A 
ATOM      6  C   UNL d   1      33.087  20.409 -21.728  0.00  0.00     0.047 A 
ATOM      7  C   UNL d   1      32.927  21.774 -20.822  0.00  0.00     0.073 A 
ATOM      8  C   UNL d   1      32.920  21.828 -21.645  0.00  0.00     0.024 A 
ATOM      9  O   UNL d   1      33.068  20.555 -24.210  0.00  0.00    -0.265 OA
ATOM     10  C   UNL d   1      33.094  20.354 -20.908  0.00  0.00     0.008 A 
ATOM     11  C   UNL d   1      33.014  21.037 -20.454  0.00  0.00     0.004 A 
ENDROOT
BRANCH   4  12
ATOM     12  C   UNL d   1      33.240  19.090 -23.464  0.00  0.00     0.074 C 
BRANCH  12  13
ATOM     13  C   UNL d   1      32.678  18.480 -23.388  0.00  0.00     0.280 C 
ATOM     14  N   UNL d   1      32.401  18.084 -24.060  0.00  0.00    -0.208 NA
ATOM     15  O   UNL d   1      32.481  18.331 -22.884  0.00  0.00    -0.265 OA
BRANCH  14  16
ATOM     16  C   UNL d   1      31.844  17.482 -23.976  0.00  0.00     0.085 A 
ATOM     17  C   UNL d   1      31.082  17.590 -24.264  0.00  0.00     0.024 A 
ATOM     18  C   UNL d   1      30.525  16.988 -24.180  0.00  0.00     0.084 A 
ATOM     19  C   UNL d   1      30.733  16.282 -23.810  0.00  0.00     0.062 A 
ATOM     20  C   UNL d   1      31.504  16.180 -23.523  0.00  0.00     0.013 A 
ATOM     21 CL   UNL d   1      30.184  15.690 -23.728  0.00  0.00    -0.082 Cl
ATOM     22  C   UNL d   1      32.056  16.777 -23.606  0.00  0.00     0.020 A 
BRANCH  18  23
ATOM     23  C   UNL d   1      29.773  17.093 -24.463  0.00  0.00     0.420 C 
ATOM     24  F   UNL d   1      29.081  17.186 -24.725  0.00  0.00    -0.166 F 
ATOM     25  F   UNL d   1      29.376  16.688 -25.093  0.00  0.00    -0.166 F 
ATOM     26  F   UNL d   1      29.175  17.634 -24.207  0.00  0.00    -0.166 F 
ENDBRANCH  18  23
ENDBRANCH  14  16
ENDBRANCH  12  13
ENDBRANCH   4  12
BRANCH   7  27
ATOM     27  C   UNL d   1      32.849  22.446 -20.375  0.00  0.00     0.419 C 
ATOM     28  F   UNL d   1      33.193  22.635 -19.625  0.00  0.00    -0.166 F 
ATOM     29  F   UNL d   1      32.396  23.152 -20.535  0.00  0.00    -0.166 F 
ATOM     30  F   UNL d   1      32.778  23.063 -19.962  0.00  0.00    -0.166 F 
ENDBRANCH   7  27
TORSDOF 5
ENDMDL
