MODEL 1
REMARK VINA RESULT:      62.8      0.000      0.000
REMARK  5 active torsions:
REMARK  status: ('A' for Active; 'I' for Inactive)
REMARK    1  A    between atoms: N_2  and  S_1 
REMARK    2  A    between atoms: C_3  and  S_1 
REMARK    3  A    between atoms: C_8  and  N_2 
REMARK    4  A    between atoms: C_7  and  C_6 
REMARK    5  A    between atoms: C_16  and  C_8 
ROOT
ATOM      1  C   UNL d   1      60.861  49.097  50.759  0.00  0.00     0.105 A 
ATOM      2  C   UNL d   1      59.243  49.301  50.459  0.00  0.00     0.000 A 
ATOM      3  C   UNL d   1      60.590  49.166  49.984  0.00  0.00     0.013 A 
ATOM      4  C   UNL d   1      60.325  49.129  51.384  0.00  0.00     0.013 A 
ATOM      5  C   UNL d   1      59.778  49.269  49.833  0.00  0.00     0.001 A 
ATOM      6  C   UNL d   1      59.512  49.231  51.233  0.00  0.00     0.001 A 
ENDROOT
BRANCH   1   7
ATOM      7  S   UNL d   1      61.666  48.995  50.904  0.00  0.00     0.285 S 
ATOM      8  O   UNL d   1      61.646  49.594  51.464  0.00  0.00    -0.198 OA
ATOM      9  O   UNL d   1      62.464  48.897  51.050  0.00  0.00    -0.198 OA
BRANCH   7  10
ATOM     10  N   UNL d   1      61.690  48.392  50.342  0.00  0.00    -0.155 NA
BRANCH  10  11
ATOM     11  C   UNL d   1      62.242  47.781  50.422  0.00  0.00     0.137 C 
BRANCH  11  12
ATOM     12  C   UNL d   1      62.122  47.060  50.015  0.00  0.00     0.120 A 
ATOM     13  O   UNL d   1      61.600  46.454  50.228  0.00  0.00    -0.304 OA
ATOM     14  C   UNL d   1      61.669  45.854  49.667  0.00  0.00     0.123 A 
ATOM     15  C   UNL d   1      62.225  46.083  49.113  0.00  0.00     0.029 A 
ATOM     16  C   UNL d   1      62.507  46.829  49.326  0.00  0.00     0.028 A 
ENDBRANCH  11  12
ENDBRANCH  10  11
ENDBRANCH   7  10
ENDBRANCH   1   7
BRANCH   2  17
ATOM     17  C   UNL d   1      58.447  49.401  50.305  0.00  0.00     0.000 A 
ATOM     18  C   UNL d   1      58.196  49.563  49.537  0.00  0.00     0.000 A 
ATOM     19  C   UNL d   1      57.394  49.666  49.374  0.00  0.00     0.000 A 
ATOM     20  C   UNL d   1      56.839  49.605  49.994  0.00  0.00     0.000 A 
ATOM     21  C   UNL d   1      57.090  49.444  50.761  0.00  0.00     0.000 A 
ATOM     22  C   UNL d   1      56.036  49.708  49.834  0.00  0.00     0.000 C 
ATOM     23  C   UNL d   1      57.893  49.341  50.920  0.00  0.00     0.000 A 
ENDBRANCH   2  17
TORSDOF 5
ENDMDL
