MODEL 1
REMARK VINA RESULT:      25.8      0.000      0.000
REMARK  3 active torsions:
REMARK  status: ('A' for Active; 'I' for Inactive)
REMARK    1  A    between atoms: N_3  and  C_1 
REMARK    2  A    between atoms: C_8  and  N_2 
REMARK       I    between atoms: C_4  and  N_3 
REMARK    3  A    between atoms: C_7  and  C_4 
ROOT
ATOM      1  C   UNL d   1      13.398  12.572  -3.238  0.00  0.00     0.185 A 
ATOM      2  N   UNL d   1      13.283  13.044  -3.921  0.00  0.00    -0.254 N 
ATOM      3  S   UNL d   1      13.237  11.796  -3.443  0.00  0.00    -0.044 SA
ATOM      4  C   UNL d   1      13.055  12.548  -4.524  0.00  0.00     0.273 A 
ATOM      5  C   UNL d   1      13.025  11.779  -4.234  0.00  0.00     0.099 A 
ATOM      6  O   UNL d   1      12.883  12.784  -5.297  0.00  0.00    -0.266 OA
ENDROOT
BRANCH   1   7
ATOM      7  N   UNL d   1      13.634  12.842  -2.490  0.00  0.00    -0.182 NA
ATOM      8  C   UNL d   1      14.222  12.450  -2.076  0.00  0.00     0.304 C 
ATOM      9  O   UNL d   1      14.584  11.780  -2.405  0.00  0.00    -0.263 OA
BRANCH   8  10
ATOM     10  C   UNL d   1      14.460  12.717  -1.328  0.00  0.00     0.158 A 
ATOM     11  O   UNL d   1      15.097  13.213  -1.183  0.00  0.00    -0.300 OA
ATOM     12  C   UNL d   1      15.131  13.335  -0.366  0.00  0.00     0.123 A 
ATOM     13  C   UNL d   1      14.518  12.915  -0.019  0.00  0.00     0.029 A 
ATOM     14  C   UNL d   1      14.099  12.532  -0.600  0.00  0.00     0.032 A 
ENDBRANCH   8  10
ENDBRANCH   1   7
BRANCH   2  15
ATOM     15  C   UNL d   1      13.385  13.864  -3.963  0.00  0.00     0.069 A 
ATOM     16  C   UNL d   1      14.114  14.183  -3.748  0.00  0.00     0.018 A 
ATOM     17  C   UNL d   1      14.224  15.006  -3.787  0.00  0.00     0.002 A 
ATOM     18  C   UNL d   1      13.603  15.495  -4.040  0.00  0.00     0.000 A 
ATOM     19  C   UNL d   1      12.877  15.167  -4.253  0.00  0.00     0.002 A 
ATOM     20  C   UNL d   1      12.769  14.353  -4.214  0.00  0.00     0.018 A 
ENDBRANCH   2  15
TORSDOF 3
ENDMDL
