MODEL 1
REMARK VINA RESULT:      -8.0      0.000      0.000
REMARK  5 active torsions:
REMARK  status: ('A' for Active; 'I' for Inactive)
REMARK    1  A    between atoms: C_14  and  N_4 
REMARK    2  A    between atoms: C_15  and  C_9 
REMARK    3  A    between atoms: O_18  and  C_12 
REMARK    4  A    between atoms: O_19  and  C_13 
REMARK    5  A    between atoms: C_16  and  C_14 
ROOT
ATOM      1  C   UNL d   1     -47.730  14.219  22.718  0.00  0.00     0.056 A 
ATOM      2  C   UNL d   1     -46.920  14.327  22.571  0.00  0.00     0.107 A 
ATOM      3  C   UNL d   1     -46.410  13.682  22.574  0.00  0.00     0.038 A 
ATOM      4  N   UNL d   1     -47.504  12.813  22.872  0.00  0.00    -0.304 N 
ATOM      5  N   UNL d   1     -46.797  15.130  22.441  0.00  0.00    -0.148 NA
ATOM      6  C   UNL d   1     -48.022  13.462  22.869  0.00  0.00     0.083 A 
ATOM      7  N   UNL d   1     -47.524  15.515  22.509  0.00  0.00    -0.148 NA
ATOM      8  C   UNL d   1     -46.701  12.925  22.725  0.00  0.00     0.068 A 
ATOM      9  C   UNL d   1     -48.103  14.959  22.679  0.00  0.00     0.106 A 
ATOM     10  C   UNL d   1     -46.190  12.278  22.728  0.00  0.00     0.044 A 
ATOM     11  C   UNL d   1     -45.607  13.792  22.427  0.00  0.00     0.029 A 
ATOM     12  C   UNL d   1     -45.388  12.390  22.581  0.00  0.00     0.118 A 
ATOM     13  C   UNL d   1     -45.097  13.147  22.431  0.00  0.00     0.116 A 
ENDROOT
BRANCH   4  14
ATOM     14  C   UNL d   1     -47.795  12.056  23.022  0.00  0.00     0.080 C 
BRANCH  14  15
ATOM     15  C   UNL d   1     -48.606  11.914  22.994  0.00  0.00     0.018 A 
ATOM     16  C   UNL d   1     -49.051  11.898  23.698  0.00  0.00     0.004 A 
ATOM     17  C   UNL d   1     -49.861  11.756  23.671  0.00  0.00     0.030 A 
ATOM     18  C   UNL d   1     -50.241  11.627  22.939  0.00  0.00     0.140 A 
ATOM     19  C   UNL d   1     -49.796  11.642  22.235  0.00  0.00     0.030 A 
ATOM     20  F   UNL d   1     -51.064  11.482  22.909  0.00  0.00    -0.204 F 
ATOM     21  C   UNL d   1     -48.983  11.785  22.265  0.00  0.00     0.004 A 
ENDBRANCH  14  15
ENDBRANCH   4  14
BRANCH   9  22
ATOM     22  C   UNL d   1     -48.887  15.194  22.776  0.00  0.00     0.019 A 
ATOM     23  C   UNL d   1     -49.159  15.422  23.520  0.00  0.00     0.002 A 
ATOM     24  C   UNL d   1     -49.948  15.658  23.613  0.00  0.00     0.000 A 
ATOM     25  C   UNL d   1     -50.464  15.666  22.963  0.00  0.00     0.000 A 
ATOM     26  C   UNL d   1     -50.183  15.436  22.219  0.00  0.00     0.000 A 
ATOM     27  C   UNL d   1     -49.399  15.201  22.126  0.00  0.00     0.002 A 
ENDBRANCH   9  22
BRANCH  12  28
ATOM     28  O   UNL d   1     -44.871  11.728  22.586  0.00  0.00    -0.326 OA
ATOM     29  C   UNL d   1     -44.931  11.164  23.188  0.00  0.00     0.181 C 
ENDBRANCH  12  28
BRANCH  13  30
ATOM     30  O   UNL d   1     -44.283  13.253  22.282  0.00  0.00    -0.326 OA
ATOM     31  C   UNL d   1     -44.017  13.371  21.507  0.00  0.00     0.181 C 
ENDBRANCH  13  30
TORSDOF 5
ENDMDL
MODEL 2
REMARK VINA RESULT:      -5.7      1.563      3.111
REMARK  5 active torsions:
REMARK  status: ('A' for Active; 'I' for Inactive)
REMARK    1  A    between atoms: C_14  and  N_4 
REMARK    2  A    between atoms: C_15  and  C_9 
REMARK    3  A    between atoms: O_18  and  C_12 
REMARK    4  A    between atoms: O_19  and  C_13 
REMARK    5  A    between atoms: C_16  and  C_14 
ROOT
ATOM      1  C   UNL d   1     -47.970  11.898  23.147  0.00  0.00     0.056 A 
ATOM      2  C   UNL d   1     -47.433  11.307  23.374  0.00  0.00     0.107 A 
ATOM      3  C   UNL d   1     -46.623  11.436  23.304  0.00  0.00     0.038 A 
ATOM      4  N   UNL d   1     -46.872  12.741  22.781  0.00  0.00    -0.304 N 
ATOM      5  N   UNL d   1     -47.870  10.665  23.643  0.00  0.00    -0.148 NA
ATOM      6  C   UNL d   1     -47.690  12.615  22.851  0.00  0.00     0.083 A 
ATOM      7  N   UNL d   1     -48.671  10.857  23.584  0.00  0.00    -0.148 NA
ATOM      8  C   UNL d   1     -46.343  12.153  23.007  0.00  0.00     0.068 A 
ATOM      9  C   UNL d   1     -48.739  11.615  23.278  0.00  0.00     0.106 A 
ATOM     10  C   UNL d   1     -45.532  12.282  22.937  0.00  0.00     0.044 A 
ATOM     11  C   UNL d   1     -46.093  10.848  23.530  0.00  0.00     0.029 A 
ATOM     12  C   UNL d   1     -45.003  11.693  23.163  0.00  0.00     0.118 A 
ATOM     13  C   UNL d   1     -45.283  10.976  23.459  0.00  0.00     0.116 A 
ENDROOT
BRANCH   4  14
ATOM     14  C   UNL d   1     -46.591  13.458  22.485  0.00  0.00     0.080 C 
BRANCH  14  15
ATOM     15  C   UNL d   1     -47.118  14.069  22.317  0.00  0.00     0.018 A 
ATOM     16  C   UNL d   1     -47.207  14.701  22.853  0.00  0.00     0.004 A 
ATOM     17  C   UNL d   1     -47.733  15.312  22.686  0.00  0.00     0.030 A 
ATOM     18  C   UNL d   1     -48.179  15.302  21.981  0.00  0.00     0.140 A 
ATOM     19  C   UNL d   1     -48.089  14.670  21.446  0.00  0.00     0.030 A 
ATOM     20  F   UNL d   1     -48.714  15.921  21.809  0.00  0.00    -0.204 F 
ATOM     21  C   UNL d   1     -47.561  14.058  21.615  0.00  0.00     0.004 A 
ENDBRANCH  14  15
ENDBRANCH   4  14
BRANCH   9  22
ATOM     22  C   UNL d   1     -49.484  11.949  23.160  0.00  0.00     0.019 A 
ATOM     23  C   UNL d   1     -49.776  12.502  23.696  0.00  0.00     0.002 A 
ATOM     24  C   UNL d   1     -50.525  12.835  23.573  0.00  0.00     0.000 A 
ATOM     25  C   UNL d   1     -50.981  12.614  22.916  0.00  0.00     0.000 A 
ATOM     26  C   UNL d   1     -50.680  12.057  22.382  0.00  0.00     0.000 A 
ATOM     27  C   UNL d   1     -49.936  11.726  22.503  0.00  0.00     0.002 A 
ENDBRANCH   9  22
BRANCH  12  28
ATOM     28  O   UNL d   1     -44.177  11.829  23.090  0.00  0.00    -0.326 OA
ATOM     29  C   UNL d   1     -43.875  12.159  22.394  0.00  0.00     0.181 C 
ENDBRANCH  12  28
BRANCH  13  30
ATOM     30  O   UNL d   1     -44.742  10.384  23.687  0.00  0.00    -0.326 OA
ATOM     31  C   UNL d   1     -44.801   9.625  23.362  0.00  0.00     0.181 C 
ENDBRANCH  13  30
TORSDOF 5
ENDMDL
MODEL 3
REMARK VINA RESULT:      -5.1      1.174      3.015
REMARK  5 active torsions:
REMARK  status: ('A' for Active; 'I' for Inactive)
REMARK    1  A    between atoms: C_14  and  N_4 
REMARK    2  A    between atoms: C_15  and  C_9 
REMARK    3  A    between atoms: O_18  and  C_12 
REMARK    4  A    between atoms: O_19  and  C_13 
REMARK    5  A    between atoms: C_16  and  C_14 
ROOT
ATOM      1  C   UNL d   1     -47.769  12.203  22.793  0.00  0.00     0.056 A 
ATOM      2  C   UNL d   1     -47.048  11.805  22.901  0.00  0.00     0.107 A 
ATOM      3  C   UNL d   1     -46.336  12.188  22.749  0.00  0.00     0.038 A 
ATOM      4  N   UNL d   1     -47.048  13.370  22.380  0.00  0.00    -0.304 N 
ATOM      5  N   UNL d   1     -47.224  11.044  23.161  0.00  0.00    -0.148 NA
ATOM      6  C   UNL d   1     -47.768  12.986  22.532  0.00  0.00     0.083 A 
ATOM      7  N   UNL d   1     -48.044  10.973  23.212  0.00  0.00    -0.148 NA
ATOM      8  C   UNL d   1     -46.336  12.971  22.488  0.00  0.00     0.068 A 
ATOM      9  C   UNL d   1     -48.386  11.684  22.987  0.00  0.00     0.106 A 
ATOM     10  C   UNL d   1     -45.623  13.355  22.336  0.00  0.00     0.044 A 
ATOM     11  C   UNL d   1     -45.624  11.789  22.857  0.00  0.00     0.029 A 
ATOM     12  C   UNL d   1     -44.912  12.955  22.445  0.00  0.00     0.118 A 
ATOM     13  C   UNL d   1     -44.912  12.173  22.705  0.00  0.00     0.116 A 
ENDROOT
BRANCH   4  14
ATOM     14  C   UNL d   1     -47.047  14.153  22.119  0.00  0.00     0.080 C 
BRANCH  14  15
ATOM     15  C   UNL d   1     -47.746  14.589  22.124  0.00  0.00     0.018 A 
ATOM     16  C   UNL d   1     -48.268  14.546  21.476  0.00  0.00     0.004 A 
ATOM     17  C   UNL d   1     -48.967  14.981  21.480  0.00  0.00     0.030 A 
ATOM     18  C   UNL d   1     -49.155  15.468  22.131  0.00  0.00     0.140 A 
ATOM     19  C   UNL d   1     -48.633  15.511  22.778  0.00  0.00     0.030 A 
ATOM     20  F   UNL d   1     -49.864  15.911  22.137  0.00  0.00    -0.204 F 
ATOM     21  C   UNL d   1     -47.932  15.073  22.772  0.00  0.00     0.004 A 
ENDBRANCH  14  15
ENDBRANCH   4  14
BRANCH   9  22
ATOM     22  C   UNL d   1     -49.206  11.768  22.987  0.00  0.00     0.019 A 
ATOM     23  C   UNL d   1     -49.608  11.880  23.698  0.00  0.00     0.002 A 
ATOM     24  C   UNL d   1     -50.432  11.964  23.694  0.00  0.00     0.000 A 
ATOM     25  C   UNL d   1     -50.854  11.935  22.979  0.00  0.00     0.000 A 
ATOM     26  C   UNL d   1     -50.443  11.822  22.270  0.00  0.00     0.000 A 
ATOM     27  C   UNL d   1     -49.624  11.739  22.273  0.00  0.00     0.002 A 
ENDBRANCH   9  22
BRANCH  12  28
ATOM     28  O   UNL d   1     -44.187  13.351  22.288  0.00  0.00    -0.326 OA
ATOM     29  C   UNL d   1     -43.935  13.451  21.507  0.00  0.00     0.181 C 
ENDBRANCH  12  28
BRANCH  13  30
ATOM     30  O   UNL d   1     -44.188  11.774  22.813  0.00  0.00    -0.326 OA
ATOM     31  C   UNL d   1     -44.183  10.957  22.948  0.00  0.00     0.181 C 
ENDBRANCH  13  30
TORSDOF 5
ENDMDL
