MODEL 1
REMARK VINA RESULT:      51.2      0.000      0.000
REMARK  5 active torsions:
REMARK  status: ('A' for Active; 'I' for Inactive)
REMARK    1  A    between atoms: O_8  and  S_1 
REMARK    2  A    between atoms: C_9  and  S_1 
REMARK    3  A    between atoms: C_7  and  C_2 
REMARK    4  A    between atoms: C_20  and  C_7 
REMARK    5  A    between atoms: C_14  and  O_8 
ROOT
ATOM      1  C   UNL d   1      14.494  13.358  -0.727  0.00  0.00     0.139 A 
ATOM      2  C   UNL d   1      14.264  12.455  -1.681  0.00  0.00     0.064 A 
ATOM      3  C   UNL d   1      14.567  12.559  -0.921  0.00  0.00     0.220 A 
ATOM      4  C   UNL d   1      14.003  13.191  -1.957  0.00  0.00     0.105 A 
ATOM      5  O   UNL d   1      14.146  13.746  -1.366  0.00  0.00    -0.304 OA
ATOM      6  C   UNL d   1      13.669  13.251  -2.715  0.00  0.00     0.050 A 
ATOM      7  C   UNL d   1      14.190  11.780  -2.163  0.00  0.00     0.007 A 
ATOM      8  C   UNL d   1      13.597  12.584  -3.190  0.00  0.00     0.116 A 
ATOM      9  O   UNL d   1      14.886  11.969  -0.443  0.00  0.00    -0.284 OA
ATOM     10  C   UNL d   1      13.857  11.848  -2.914  0.00  0.00     0.026 A 
ENDROOT
BRANCH   8  11
ATOM     11  O   UNL d   1      13.266  12.644  -3.938  0.00  0.00    -0.227 OA
BRANCH  11  12
ATOM     12  S   UNL d   1      13.303  13.345  -4.355  0.00  0.00     0.304 S 
ATOM     13  O   UNL d   1      12.853  13.717  -3.779  0.00  0.00    -0.193 OA
ATOM     14  O   UNL d   1      13.752  12.975  -4.931  0.00  0.00    -0.193 OA
BRANCH  12  15
ATOM     15  C   UNL d   1      13.340  14.052  -4.777  0.00  0.00     0.111 A 
ATOM     16  C   UNL d   1      13.946  14.178  -5.321  0.00  0.00     0.013 A 
ATOM     17  C   UNL d   1      13.984  14.889  -5.746  0.00  0.00     0.001 A 
ATOM     18  C   UNL d   1      13.413  15.467  -5.619  0.00  0.00     0.000 A 
ATOM     19  C   UNL d   1      12.803  15.344  -5.073  0.00  0.00     0.001 A 
ATOM     20  C   UNL d   1      13.449  16.174  -6.040  0.00  0.00     0.000 C 
ATOM     21  C   UNL d   1      12.769  14.640  -4.655  0.00  0.00     0.013 A 
ENDBRANCH  12  15
ENDBRANCH  11  12
ENDBRANCH   8  11
BRANCH   1  22
ATOM     22  C   UNL d   1      14.729  13.708  -0.014  0.00  0.00     0.029 C 
BRANCH  22  23
ATOM     23  C   UNL d   1      15.236  14.351  -0.026  0.00  0.00     0.021 A 
ATOM     24  C   UNL d   1      14.926  15.118  -0.033  0.00  0.00     0.099 A 
ATOM     25  N   UNL d   1      15.430  15.771  -0.045  0.00  0.00    -0.242 NA
ATOM     26  C   UNL d   1      16.246  15.652  -0.049  0.00  0.00     0.099 A 
ATOM     27  C   UNL d   1      16.556  14.884  -0.042  0.00  0.00     0.021 A 
ATOM     28  C   UNL d   1      16.048  14.241  -0.031  0.00  0.00     0.003 A 
ENDBRANCH  22  23
ENDBRANCH   1  22
TORSDOF 5
ENDMDL
