MODEL 1
REMARK VINA RESULT:      -8.7      0.000      0.000
REMARK  3 active torsions:
REMARK  status: ('A' for Active; 'I' for Inactive)
REMARK    1  A    between atoms: C_7  and  C_2 
REMARK    2  A    between atoms: N_5  and  C_8 
REMARK    3  A    between atoms: C_9  and  C_7 
ROOT
ATOM      1  C   UNL d   1      53.708  32.175  53.983  0.00  0.00     0.127 A 
ATOM      2  C   UNL d   1      53.098  32.557  53.571  0.00  0.00     0.023 A 
ATOM      3  C   UNL d   1      52.643  32.135  53.031  0.00  0.00     0.002 A 
ATOM      4  C   UNL d   1      53.858  31.382  53.853  0.00  0.00     0.024 A 
ATOM      5  C   UNL d   1      52.792  31.334  52.897  0.00  0.00     0.000 A 
ATOM      6  C   UNL d   1      53.403  30.961  53.312  0.00  0.00     0.002 A 
ENDROOT
BRANCH   2   7
ATOM      7  C   UNL d   1      52.950  33.354  53.705  0.00  0.00     0.013 C 
BRANCH   7   8
ATOM      8  C   UNL d   1      52.278  33.709  53.383  0.00  0.00     0.092 A 
ATOM      9  C   UNL d   1      52.259  34.415  52.955  0.00  0.00     0.288 A 
ATOM     10  N   UNL d   1      51.472  34.556  52.743  0.00  0.00    -0.163 NA
ATOM     11  O   UNL d   1      52.908  34.889  52.774  0.00  0.00    -0.265 OA
ATOM     12  C   UNL d   1      51.010  33.947  53.036  0.00  0.00     0.313 A 
ATOM     13  S   UNL d   1      51.504  33.420  53.432  0.00  0.00    -0.021 SA
ATOM     14  O   UNL d   1      50.193  33.871  52.950  0.00  0.00    -0.258 OA
ENDBRANCH   7   8
ENDBRANCH   2   7
BRANCH   1  15
ATOM     15  N   UNL d   1      54.164  32.601  54.527  0.00  0.00    -0.114 N 
ATOM     16  O   UNL d   1      53.942  32.638  55.321  0.00  0.00    -0.532 OA
ATOM     17  O   UNL d   1      54.849  32.992  54.271  0.00  0.00    -0.532 OA
ENDBRANCH   1  15
TORSDOF 3
ENDMDL
MODEL 2
REMARK VINA RESULT:      -8.5      1.710      3.249
REMARK  3 active torsions:
REMARK  status: ('A' for Active; 'I' for Inactive)
REMARK    1  A    between atoms: C_7  and  C_2 
REMARK    2  A    between atoms: N_5  and  C_8 
REMARK    3  A    between atoms: C_9  and  C_7 
ROOT
ATOM      1  C   UNL d   1      52.252  33.047  52.982  0.00  0.00     0.127 A 
ATOM      2  C   UNL d   1      52.917  33.339  53.381  0.00  0.00     0.023 A 
ATOM      3  C   UNL d   1      53.007  34.150  53.487  0.00  0.00     0.002 A 
ATOM      4  C   UNL d   1      51.687  33.562  52.694  0.00  0.00     0.024 A 
ATOM      5  C   UNL d   1      52.438  34.673  53.197  0.00  0.00     0.000 A 
ATOM      6  C   UNL d   1      51.777  34.373  52.800  0.00  0.00     0.002 A 
ENDROOT
BRANCH   2   7
ATOM      7  C   UNL d   1      53.483  32.818  53.669  0.00  0.00     0.013 C 
BRANCH   7   8
ATOM      8  C   UNL d   1      54.103  33.098  54.137  0.00  0.00     0.092 A 
ATOM      9  C   UNL d   1      54.905  33.082  53.942  0.00  0.00     0.288 A 
ATOM     10  N   UNL d   1      55.321  33.420  54.572  0.00  0.00    -0.163 NA
ATOM     11  O   UNL d   1      55.228  32.783  53.246  0.00  0.00    -0.265 OA
ATOM     12  C   UNL d   1      54.784  33.643  55.150  0.00  0.00     0.313 A 
ATOM     13  S   UNL d   1      54.029  33.446  54.885  0.00  0.00    -0.021 SA
ATOM     14  O   UNL d   1      54.965  34.001  55.870  0.00  0.00    -0.258 OA
ENDBRANCH   7   8
ENDBRANCH   2   7
BRANCH   1  15
ATOM     15  N   UNL d   1      52.163  32.231  52.876  0.00  0.00    -0.114 N 
ATOM     16  O   UNL d   1      52.522  31.850  52.237  0.00  0.00    -0.532 OA
ATOM     17  O   UNL d   1      51.710  31.794  53.416  0.00  0.00    -0.532 OA
ENDBRANCH   1  15
TORSDOF 3
ENDMDL
MODEL 3
REMARK VINA RESULT:      -8.0      1.971      3.390
REMARK  3 active torsions:
REMARK  status: ('A' for Active; 'I' for Inactive)
REMARK    1  A    between atoms: C_7  and  C_2 
REMARK    2  A    between atoms: N_5  and  C_8 
REMARK    3  A    between atoms: C_9  and  C_7 
ROOT
ATOM      1  C   UNL d   1      52.935  33.042  53.451  0.00  0.00     0.127 A 
ATOM      2  C   UNL d   1      53.212  32.260  53.441  0.00  0.00     0.023 A 
ATOM      3  C   UNL d   1      53.940  32.080  53.777  0.00  0.00     0.002 A 
ATOM      4  C   UNL d   1      53.384  33.632  53.794  0.00  0.00     0.024 A 
ATOM      5  C   UNL d   1      54.397  32.674  54.124  0.00  0.00     0.000 A 
ATOM      6  C   UNL d   1      54.113  33.451  54.130  0.00  0.00     0.002 A 
ENDROOT
BRANCH   2   7
ATOM      7  C   UNL d   1      52.756  31.670  53.095  0.00  0.00     0.013 C 
BRANCH   7   8
ATOM      8  C   UNL d   1      52.911  30.877  53.265  0.00  0.00     0.092 A 
ATOM      9  C   UNL d   1      53.032  30.275  52.712  0.00  0.00     0.288 A 
ATOM     10  N   UNL d   1      53.167  29.575  53.130  0.00  0.00    -0.163 NA
ATOM     11  O   UNL d   1      53.019  30.362  51.893  0.00  0.00    -0.265 OA
ATOM     12  C   UNL d   1      53.130  29.740  53.932  0.00  0.00     0.313 A 
ATOM     13  S   UNL d   1      52.972  30.543  54.020  0.00  0.00    -0.021 SA
ATOM     14  O   UNL d   1      53.233  29.197  54.545  0.00  0.00    -0.258 OA
ENDBRANCH   7   8
ENDBRANCH   2   7
BRANCH   1  15
ATOM     15  N   UNL d   1      52.201  33.221  53.113  0.00  0.00    -0.114 N 
ATOM     16  O   UNL d   1      51.519  33.241  53.578  0.00  0.00    -0.532 OA
ATOM     17  O   UNL d   1      52.152  33.382  52.301  0.00  0.00    -0.532 OA
ENDBRANCH   1  15
TORSDOF 3
ENDMDL
MODEL 4
REMARK VINA RESULT:      -7.9      1.584      2.994
REMARK  3 active torsions:
REMARK  status: ('A' for Active; 'I' for Inactive)
REMARK    1  A    between atoms: C_7  and  C_2 
REMARK    2  A    between atoms: N_5  and  C_8 
REMARK    3  A    between atoms: C_9  and  C_7 
ROOT
ATOM      1  C   UNL d   1      52.638  34.635  53.847  0.00  0.00     0.127 A 
ATOM      2  C   UNL d   1      52.879  33.870  53.639  0.00  0.00     0.023 A 
ATOM      3  C   UNL d   1      52.439  33.436  53.096  0.00  0.00     0.002 A 
ATOM      4  C   UNL d   1      51.966  34.959  53.514  0.00  0.00     0.024 A 
ATOM      5  C   UNL d   1      51.759  33.761  52.758  0.00  0.00     0.000 A 
ATOM      6  C   UNL d   1      51.526  34.525  52.971  0.00  0.00     0.002 A 
ENDROOT
BRANCH   2   7
ATOM      7  C   UNL d   1      53.555  33.548  53.976  0.00  0.00     0.013 C 
BRANCH   7   8
ATOM      8  C   UNL d   1      53.756  32.761  53.828  0.00  0.00     0.092 A 
ATOM      9  C   UNL d   1      54.473  32.491  53.518  0.00  0.00     0.288 A 
ATOM     10  N   UNL d   1      54.427  31.667  53.465  0.00  0.00    -0.163 NA
ATOM     11  O   UNL d   1      55.113  32.961  53.302  0.00  0.00    -0.265 OA
ATOM     12  C   UNL d   1      53.692  31.429  53.739  0.00  0.00     0.313 A 
ATOM     13  S   UNL d   1      53.274  32.101  53.964  0.00  0.00    -0.021 SA
ATOM     14  O   UNL d   1      53.418  30.652  53.781  0.00  0.00    -0.258 OA
ENDBRANCH   7   8
ENDBRANCH   2   7
BRANCH   1  15
ATOM     15  N   UNL d   1      53.082  35.070  54.394  0.00  0.00    -0.114 N 
ATOM     16  O   UNL d   1      53.003  34.929  55.204  0.00  0.00    -0.532 OA
ATOM     17  O   UNL d   1      53.609  35.650  54.126  0.00  0.00    -0.532 OA
ENDBRANCH   1  15
TORSDOF 3
ENDMDL
MODEL 5
REMARK VINA RESULT:      -7.9      1.830      3.052
REMARK  3 active torsions:
REMARK  status: ('A' for Active; 'I' for Inactive)
REMARK    1  A    between atoms: C_7  and  C_2 
REMARK    2  A    between atoms: N_5  and  C_8 
REMARK    3  A    between atoms: C_9  and  C_7 
ROOT
ATOM      1  C   UNL d   1      53.431  33.811  54.271  0.00  0.00     0.127 A 
ATOM      2  C   UNL d   1      53.528  33.002  54.121  0.00  0.00     0.023 A 
ATOM      3  C   UNL d   1      54.174  32.602  54.436  0.00  0.00     0.002 A 
ATOM      4  C   UNL d   1      53.974  34.211  54.732  0.00  0.00     0.024 A 
ATOM      5  C   UNL d   1      54.724  33.003  54.902  0.00  0.00     0.000 A 
ATOM      6  C   UNL d   1      54.620  33.811  55.048  0.00  0.00     0.002 A 
ENDROOT
BRANCH   2   7
ATOM      7  C   UNL d   1      52.979  32.604  53.657  0.00  0.00     0.013 C 
BRANCH   7   8
ATOM      8  C   UNL d   1      53.056  31.791  53.532  0.00  0.00     0.092 A 
ATOM      9  C   UNL d   1      52.866  31.384  52.839  0.00  0.00     0.288 A 
ATOM     10  N   UNL d   1      53.032  30.585  52.966  0.00  0.00    -0.163 NA
ATOM     11  O   UNL d   1      52.566  31.719  52.149  0.00  0.00    -0.265 OA
ATOM     12  C   UNL d   1      53.322  30.496  53.727  0.00  0.00     0.313 A 
ATOM     13  S   UNL d   1      53.338  31.239  54.081  0.00  0.00    -0.021 SA
ATOM     14  O   UNL d   1      53.556  29.787  54.079  0.00  0.00    -0.258 OA
ENDBRANCH   7   8
ENDBRANCH   2   7
BRANCH   1  15
ATOM     15  N   UNL d   1      52.780  34.212  53.953  0.00  0.00    -0.114 N 
ATOM     16  O   UNL d   1      52.045  34.180  54.327  0.00  0.00    -0.532 OA
ATOM     17  O   UNL d   1      52.869  34.649  53.254  0.00  0.00    -0.532 OA
ENDBRANCH   1  15
TORSDOF 3
ENDMDL
MODEL 6
REMARK VINA RESULT:      -7.6      1.638      2.047
REMARK  3 active torsions:
REMARK  status: ('A' for Active; 'I' for Inactive)
REMARK    1  A    between atoms: C_7  and  C_2 
REMARK    2  A    between atoms: N_5  and  C_8 
REMARK    3  A    between atoms: C_9  and  C_7 
ROOT
ATOM      1  C   UNL d   1      53.146  32.024  53.330  0.00  0.00     0.127 A 
ATOM      2  C   UNL d   1      53.224  32.820  53.549  0.00  0.00     0.023 A 
ATOM      3  C   UNL d   1      53.920  33.080  53.901  0.00  0.00     0.002 A 
ATOM      4  C   UNL d   1      53.759  31.500  53.462  0.00  0.00     0.024 A 
ATOM      5  C   UNL d   1      54.541  32.553  54.036  0.00  0.00     0.000 A 
ATOM      6  C   UNL d   1      54.455  31.760  53.813  0.00  0.00     0.002 A 
ENDROOT
BRANCH   2   7
ATOM      7  C   UNL d   1      52.606  33.344  53.415  0.00  0.00     0.013 C 
BRANCH   7   8
ATOM      8  C   UNL d   1      52.672  34.131  53.656  0.00  0.00     0.092 A 
ATOM      9  C   UNL d   1      52.513  34.797  53.193  0.00  0.00     0.288 A 
ATOM     10  N   UNL d   1      52.654  35.463  53.661  0.00  0.00    -0.163 NA
ATOM     11  O   UNL d   1      52.262  34.792  52.409  0.00  0.00    -0.265 OA
ATOM     12  C   UNL d   1      52.895  35.215  54.404  0.00  0.00     0.313 A 
ATOM     13  S   UNL d   1      52.908  34.392  54.405  0.00  0.00    -0.021 SA
ATOM     14  O   UNL d   1      53.092  35.703  55.039  0.00  0.00    -0.258 OA
ENDBRANCH   7   8
ENDBRANCH   2   7
BRANCH   1  15
ATOM     15  N   UNL d   1      52.445  31.764  52.976  0.00  0.00    -0.114 N 
ATOM     16  O   UNL d   1      51.791  31.564  53.439  0.00  0.00    -0.532 OA
ATOM     17  O   UNL d   1      52.399  31.703  52.150  0.00  0.00    -0.532 OA
ENDBRANCH   1  15
TORSDOF 3
ENDMDL
