MODEL 1
REMARK VINA RESULT:      47.3      0.000      0.000
REMARK  3 active torsions:
REMARK  status: ('A' for Active; 'I' for Inactive)
REMARK    1  A    between atoms: N_2  and  S_1 
REMARK    2  A    between atoms: C_5  and  S_1 
REMARK    3  A    between atoms: S_9  and  C_3 
ROOT
ATOM      1  S   UNL d   1      60.971  48.992  51.327  0.00  0.00     0.273 S 
ATOM      2  O   UNL d   1      61.373  48.952  52.048  0.00  0.00    -0.200 OA
ATOM      3  O   UNL d   1      60.823  49.707  51.693  0.00  0.00    -0.200 OA
ENDROOT
BRANCH   1   4
ATOM      4  N   UNL d   1      60.508  49.259  50.697  0.00  0.00    -0.208 N 
ATOM      5  C   UNL d   1      59.708  49.474  50.741  0.00  0.00     0.185 A 
ATOM      6  N   UNL d   1      59.464  49.707  49.988  0.00  0.00    -0.219 NA
ATOM      7  C   UNL d   1      60.113  49.636  49.481  0.00  0.00     0.121 A 
ATOM      8  C   UNL d   1      60.757  49.361  49.912  0.00  0.00     0.114 A 
BRANCH   5   9
ATOM      9  S   UNL d   1      59.237  49.457  51.423  0.00  0.00    -0.075 SA
ATOM     10  C   UNL d   1      58.454  49.706  51.384  0.00  0.00     0.077 C 
ENDBRANCH   5   9
ENDBRANCH   1   4
BRANCH   1  11
ATOM     11  C   UNL d   1      61.131  48.265  50.975  0.00  0.00     0.104 A 
ATOM     12  C   UNL d   1      60.778  47.588  51.273  0.00  0.00     0.013 A 
ATOM     13  C   UNL d   1      60.941  46.862  50.916  0.00  0.00     0.001 A 
ATOM     14  C   UNL d   1      61.453  46.819  50.270  0.00  0.00     0.000 A 
ATOM     15  C   UNL d   1      61.803  47.507  49.978  0.00  0.00     0.001 A 
ATOM     16  C   UNL d   1      61.614  46.093  49.917  0.00  0.00     0.000 C 
ATOM     17  C   UNL d   1      61.640  48.232  50.334  0.00  0.00     0.013 A 
ENDBRANCH   1  11
TORSDOF 3
ENDMDL
