MODEL 1
REMARK VINA RESULT:      -3.0      0.000      0.000
REMARK  6 active torsions:
REMARK  status: ('A' for Active; 'I' for Inactive)
REMARK    1  A    between atoms: C_12  and  C_3 
REMARK    2  A    between atoms: O_11  and  C_5 
REMARK    3  A    between atoms: O_16  and  C_10 
REMARK    4  A    between atoms: C_13  and  O_11 
REMARK    5  A    between atoms: C_15  and  O_16 
REMARK    6  A    between atoms: O_24  and  C_21 
ROOT
ATOM      1  C   UNL d   1      33.152  20.928 -22.495  0.00  0.00     0.201 A 
ATOM      2  C   UNL d   1      33.173  21.543 -21.944  0.00  0.00     0.085 A 
ATOM      3  C   UNL d   1      33.154  20.151 -22.246  0.00  0.00     0.064 A 
ATOM      4  C   UNL d   1      33.196  21.364 -21.139  0.00  0.00     0.107 A 
ATOM      5  C   UNL d   1      33.172  22.327 -22.183  0.00  0.00     0.110 A 
ATOM      6  C   UNL d   1      33.176  19.971 -21.441  0.00  0.00     0.126 A 
ATOM      7  O   UNL d   1      33.198  20.577 -20.883  0.00  0.00    -0.305 OA
ATOM      8  C   UNL d   1      33.217  21.969 -20.581  0.00  0.00     0.050 A 
ATOM      9  C   UNL d   1      33.193  22.926 -21.635  0.00  0.00     0.050 A 
ATOM     10  C   UNL d   1      33.216  22.746 -20.830  0.00  0.00     0.107 A 
ATOM     11  O   UNL d   1      33.130  21.108 -23.300  0.00  0.00    -0.286 OA
ENDROOT
BRANCH   3  12
ATOM     12  C   UNL d   1      33.132  19.537 -22.805  0.00  0.00     0.005 A 
ATOM     13  C   UNL d   1      33.117  18.753 -22.558  0.00  0.00     0.002 A 
ATOM     14  C   UNL d   1      33.096  18.146 -23.111  0.00  0.00     0.024 A 
ATOM     15  C   UNL d   1      33.090  18.326 -23.920  0.00  0.00     0.094 A 
ATOM     16  C   UNL d   1      33.105  19.108 -24.169  0.00  0.00     0.024 A 
ATOM     17  C   UNL d   1      33.126  19.717 -23.610  0.00  0.00     0.002 A 
BRANCH  15  18
ATOM     18  O   UNL d   1      33.069  17.718 -24.479  0.00  0.00    -0.328 OA
ATOM     19  C   UNL d   1      32.366  17.552 -24.890  0.00  0.00     0.181 C 
ENDBRANCH  15  18
ENDBRANCH   3  12
BRANCH   5  20
ATOM     20  O   UNL d   1      33.150  22.507 -22.987  0.00  0.00    -0.273 OA
BRANCH  20  21
ATOM     21  C   UNL d   1      32.795  23.204 -23.245  0.00  0.00     0.300 C 
ATOM     22  O   UNL d   1      32.062  23.431 -22.944  0.00  0.00    -0.259 OA
ATOM     23  C   UNL d   1      33.176  23.675 -23.804  0.00  0.00     0.074 C 
ENDBRANCH  20  21
ENDBRANCH   5  20
BRANCH  10  24
ATOM     24  O   UNL d   1      33.237  23.360 -20.271  0.00  0.00    -0.273 OA
BRANCH  24  25
ATOM     25  C   UNL d   1      32.823  23.283 -19.562  0.00  0.00     0.300 C 
ATOM     26  O   UNL d   1      31.999  23.257 -19.567  0.00  0.00    -0.259 OA
ATOM     27  C   UNL d   1      33.226  23.231 -18.842  0.00  0.00     0.074 C 
ENDBRANCH  24  25
ENDBRANCH  10  24
TORSDOF 6
ENDMDL
