MODEL 1
REMARK VINA RESULT:      -8.8      0.000      0.000
REMARK  4 active torsions:
REMARK  status: ('A' for Active; 'I' for Inactive)
REMARK    1  A    between atoms: C_14  and  N_3 
REMARK    2  A    between atoms: C_9  and  C_5 
REMARK    3  A    between atoms: C_19  and  C_14 
REMARK    4  A    between atoms: C_23  and  C_19 
ROOT
ATOM      1  C   UNL d   1     -48.256  13.841  22.972  0.00  0.00     0.083 A 
ATOM      2  C   UNL d   1     -47.903  14.584  22.946  0.00  0.00     0.161 A 
ATOM      3  N   UNL d   1     -46.928  13.673  22.846  0.00  0.00    -0.272 N 
ATOM      4  C   UNL d   1     -47.082  14.487  22.868  0.00  0.00     0.288 A 
ATOM      5  C   UNL d   1     -47.655  13.274  22.911  0.00  0.00     0.072 A 
ATOM      6  C   UNL d   1     -49.074  13.768  23.049  0.00  0.00     0.201 A 
ATOM      7  O   UNL d   1     -48.377  15.268  22.997  0.00  0.00    -0.302 OA
ATOM      8  C   UNL d   1     -49.539  14.448  23.098  0.00  0.00     0.062 A 
ATOM      9  C   UNL d   1     -49.191  15.193  23.072  0.00  0.00     0.103 A 
ATOM     10  O   UNL d   1     -46.523  15.084  22.821  0.00  0.00    -0.264 OA
ATOM     11  O   UNL d   1     -49.426  13.025  23.075  0.00  0.00    -0.286 OA
ATOM     12  C   UNL d   1     -50.362  14.376  23.175  0.00  0.00     0.005 A 
ATOM     13  C   UNL d   1     -49.671  15.874  23.124  0.00  0.00     0.025 A 
ATOM     14  C   UNL d   1     -50.831  15.048  23.225  0.00  0.00     0.000 A 
ATOM     15  C   UNL d   1     -50.484  15.799  23.199  0.00  0.00     0.002 A 
ENDROOT
BRANCH   5  16
ATOM     16  C   UNL d   1     -48.004  12.529  22.937  0.00  0.00     0.019 A 
ATOM     17  C   UNL d   1     -48.261  12.159  22.242  0.00  0.00     0.031 A 
ATOM     18  C   UNL d   1     -48.608  11.414  22.273  0.00  0.00     0.140 A 
ATOM     19  F   UNL d   1     -48.861  11.053  21.577  0.00  0.00    -0.204 F 
ATOM     20  C   UNL d   1     -48.705  11.026  23.002  0.00  0.00     0.030 A 
ATOM     21  C   UNL d   1     -48.448  11.395  23.697  0.00  0.00     0.002 A 
ATOM     22  C   UNL d   1     -48.097  12.148  23.662  0.00  0.00     0.002 A 
ENDBRANCH   5  16
BRANCH   3  23
ATOM     23  C   UNL d   1     -46.188  13.320  22.774  0.00  0.00     0.086 C 
BRANCH  23  24
ATOM     24  C   UNL d   1     -45.692  13.535  22.154  0.00  0.00     0.065 C 
BRANCH  24  25
ATOM     25  C   UNL d   1     -45.052  13.057  21.953  0.00  0.00     0.236 C 
ATOM     26  O   UNL d   1     -44.332  13.394  21.774  0.00  0.00    -0.283 OA
ENDBRANCH  24  25
ENDBRANCH  23  24
ENDBRANCH   3  23
TORSDOF 4
ENDMDL
MODEL 2
REMARK VINA RESULT:      -7.4      1.821      2.908
REMARK  4 active torsions:
REMARK  status: ('A' for Active; 'I' for Inactive)
REMARK    1  A    between atoms: C_14  and  N_3 
REMARK    2  A    between atoms: C_9  and  C_5 
REMARK    3  A    between atoms: C_19  and  C_14 
REMARK    4  A    between atoms: C_23  and  C_19 
ROOT
ATOM      1  C   UNL d   1     -48.140  12.632  22.704  0.00  0.00     0.083 A 
ATOM      2  C   UNL d   1     -48.600  11.965  22.849  0.00  0.00     0.161 A 
ATOM      3  N   UNL d   1     -47.379  11.722  23.337  0.00  0.00    -0.272 N 
ATOM      4  C   UNL d   1     -48.135  11.400  23.240  0.00  0.00     0.288 A 
ATOM      5  C   UNL d   1     -47.382  12.485  23.005  0.00  0.00     0.072 A 
ATOM      6  C   UNL d   1     -48.461  13.287  22.319  0.00  0.00     0.201 A 
ATOM      7  O   UNL d   1     -49.397  11.954  22.604  0.00  0.00    -0.302 OA
ATOM      8  C   UNL d   1     -49.250  13.271  22.079  0.00  0.00     0.062 A 
ATOM      9  C   UNL d   1     -49.714  12.607  22.222  0.00  0.00     0.103 A 
ATOM     10  O   UNL d   1     -48.377  10.656  23.486  0.00  0.00    -0.264 OA
ATOM     11  O   UNL d   1     -47.999  13.953  22.175  0.00  0.00    -0.286 OA
ATOM     12  C   UNL d   1     -49.574  13.930  21.692  0.00  0.00     0.005 A 
ATOM     13  C   UNL d   1     -50.511  12.601  21.975  0.00  0.00     0.025 A 
ATOM     14  C   UNL d   1     -50.358  13.920  21.451  0.00  0.00     0.000 A 
ATOM     15  C   UNL d   1     -50.828  13.254  21.592  0.00  0.00     0.002 A 
ENDROOT
BRANCH   5  16
ATOM     16  C   UNL d   1     -46.918  13.150  22.862  0.00  0.00     0.019 A 
ATOM     17  C   UNL d   1     -46.331  13.136  22.277  0.00  0.00     0.031 A 
ATOM     18  C   UNL d   1     -45.869  13.803  22.138  0.00  0.00     0.140 A 
ATOM     19  F   UNL d   1     -45.288  13.781  21.556  0.00  0.00    -0.204 F 
ATOM     20  C   UNL d   1     -45.988  14.495  22.583  0.00  0.00     0.030 A 
ATOM     21  C   UNL d   1     -46.574  14.509  23.168  0.00  0.00     0.002 A 
ATOM     22  C   UNL d   1     -47.039  13.834  23.305  0.00  0.00     0.002 A 
ENDBRANCH   5  16
BRANCH   3  23
ATOM     23  C   UNL d   1     -46.736  11.355  23.697  0.00  0.00     0.086 C 
BRANCH  23  24
ATOM     24  C   UNL d   1     -46.349  10.740  23.312  0.00  0.00     0.065 C 
BRANCH  24  25
ATOM     25  C   UNL d   1     -45.751  10.324  23.697  0.00  0.00     0.236 C 
ATOM     26  O   UNL d   1     -44.994  10.328  23.397  0.00  0.00    -0.283 OA
ENDBRANCH  24  25
ENDBRANCH  23  24
ENDBRANCH   3  23
TORSDOF 4
ENDMDL
MODEL 3
REMARK VINA RESULT:      -7.1      1.634      2.923
REMARK  4 active torsions:
REMARK  status: ('A' for Active; 'I' for Inactive)
REMARK    1  A    between atoms: C_14  and  N_3 
REMARK    2  A    between atoms: C_9  and  C_5 
REMARK    3  A    between atoms: C_19  and  C_14 
REMARK    4  A    between atoms: C_23  and  C_19 
ROOT
ATOM      1  C   UNL d   1     -48.451  12.883  23.066  0.00  0.00     0.083 A 
ATOM      2  C   UNL d   1     -48.097  12.176  23.292  0.00  0.00     0.161 A 
ATOM      3  N   UNL d   1     -47.118  13.043  23.008  0.00  0.00    -0.272 N 
ATOM      4  C   UNL d   1     -47.272  12.268  23.258  0.00  0.00     0.288 A 
ATOM      5  C   UNL d   1     -47.849  13.423  22.890  0.00  0.00     0.072 A 
ATOM      6  C   UNL d   1     -49.273  12.953  23.049  0.00  0.00     0.201 A 
ATOM      7  O   UNL d   1     -48.573  11.525  23.504  0.00  0.00    -0.302 OA
ATOM      8  C   UNL d   1     -49.740  12.306  23.259  0.00  0.00     0.062 A 
ATOM      9  C   UNL d   1     -49.390  11.597  23.485  0.00  0.00     0.103 A 
ATOM     10  O   UNL d   1     -46.711  11.699  23.438  0.00  0.00    -0.264 OA
ATOM     11  O   UNL d   1     -49.627  13.661  22.823  0.00  0.00    -0.286 OA
ATOM     12  C   UNL d   1     -50.567  12.374  23.242  0.00  0.00     0.005 A 
ATOM     13  C   UNL d   1     -49.871  10.949  23.696  0.00  0.00     0.025 A 
ATOM     14  C   UNL d   1     -51.037  11.735  23.450  0.00  0.00     0.000 A 
ATOM     15  C   UNL d   1     -50.688  11.020  23.678  0.00  0.00     0.002 A 
ENDROOT
BRANCH   5  16
ATOM     16  C   UNL d   1     -48.199  14.133  22.663  0.00  0.00     0.019 A 
ATOM     17  C   UNL d   1     -48.462  14.673  23.233  0.00  0.00     0.031 A 
ATOM     18  C   UNL d   1     -48.812  15.382  23.002  0.00  0.00     0.140 A 
ATOM     19  F   UNL d   1     -49.071  15.914  23.574  0.00  0.00    -0.204 F 
ATOM     20  C   UNL d   1     -48.904  15.560  22.195  0.00  0.00     0.030 A 
ATOM     21  C   UNL d   1     -48.641  15.020  21.625  0.00  0.00     0.002 A 
ATOM     22  C   UNL d   1     -48.288  14.305  21.862  0.00  0.00     0.002 A 
ENDBRANCH   5  16
BRANCH   3  23
ATOM     23  C   UNL d   1     -46.375  13.379  22.896  0.00  0.00     0.086 C 
BRANCH  23  24
ATOM     24  C   UNL d   1     -45.796  12.961  22.488  0.00  0.00     0.065 C 
BRANCH  24  25
ATOM     25  C   UNL d   1     -45.138  13.356  22.187  0.00  0.00     0.236 C 
ATOM     26  O   UNL d   1     -44.553  12.939  21.803  0.00  0.00    -0.283 OA
ENDBRANCH  24  25
ENDBRANCH  23  24
ENDBRANCH   3  23
TORSDOF 4
ENDMDL
MODEL 4
REMARK VINA RESULT:      -6.8      8.541      9.842
REMARK  4 active torsions:
REMARK  status: ('A' for Active; 'I' for Inactive)
REMARK    1  A    between atoms: C_14  and  N_3 
REMARK    2  A    between atoms: C_9  and  C_5 
REMARK    3  A    between atoms: C_19  and  C_14 
REMARK    4  A    between atoms: C_23  and  C_19 
ROOT
ATOM      1  C   UNL d   1     -39.921  14.688  18.776  0.00  0.00     0.083 A 
ATOM      2  C   UNL d   1     -40.551  15.152  19.031  0.00  0.00     0.161 A 
ATOM      3  N   UNL d   1     -40.573  15.147  17.694  0.00  0.00    -0.272 N 
ATOM      4  C   UNL d   1     -40.958  15.438  18.367  0.00  0.00     0.288 A 
ATOM      5  C   UNL d   1     -39.931  14.682  17.948  0.00  0.00     0.072 A 
ATOM      6  C   UNL d   1     -39.418  14.328  19.321  0.00  0.00     0.201 A 
ATOM      7  O   UNL d   1     -40.680  15.258  19.848  0.00  0.00    -0.302 OA
ATOM      8  C   UNL d   1     -39.549  14.437  20.129  0.00  0.00     0.062 A 
ATOM      9  C   UNL d   1     -40.178  14.900  20.389  0.00  0.00     0.103 A 
ATOM     10  O   UNL d   1     -41.619  15.922  18.372  0.00  0.00    -0.264 OA
ATOM     11  O   UNL d   1     -38.788  13.864  19.065  0.00  0.00    -0.286 OA
ATOM     12  C   UNL d   1     -39.043  14.076  20.678  0.00  0.00     0.005 A 
ATOM     13  C   UNL d   1     -40.302  15.003  21.207  0.00  0.00     0.025 A 
ATOM     14  C   UNL d   1     -39.169  14.180  21.483  0.00  0.00     0.000 A 
ATOM     15  C   UNL d   1     -39.799  14.645  21.748  0.00  0.00     0.002 A 
ENDROOT
BRANCH   5  16
ATOM     16  C   UNL d   1     -39.302  14.219  17.688  0.00  0.00     0.019 A 
ATOM     17  C   UNL d   1     -39.390  13.400  17.601  0.00  0.00     0.031 A 
ATOM     18  C   UNL d   1     -38.758  12.941  17.341  0.00  0.00     0.140 A 
ATOM     19  F   UNL d   1     -38.853  12.127  17.258  0.00  0.00    -0.204 F 
ATOM     20  C   UNL d   1     -38.028  13.296  17.163  0.00  0.00     0.030 A 
ATOM     21  C   UNL d   1     -37.940  14.114  17.249  0.00  0.00     0.002 A 
ATOM     22  C   UNL d   1     -38.579  14.575  17.512  0.00  0.00     0.002 A 
ENDBRANCH   5  16
BRANCH   3  23
ATOM     23  C   UNL d   1     -40.786  15.290  16.911  0.00  0.00     0.086 C 
BRANCH  23  24
ATOM     24  C   UNL d   1     -41.532  15.590  16.740  0.00  0.00     0.065 C 
BRANCH  24  25
ATOM     25  C   UNL d   1     -41.780  15.656  15.957  0.00  0.00     0.236 C 
ATOM     26  O   UNL d   1     -42.566  15.784  15.788  0.00  0.00    -0.283 OA
ENDBRANCH  24  25
ENDBRANCH  23  24
ENDBRANCH   3  23
TORSDOF 4
ENDMDL
MODEL 5
REMARK VINA RESULT:      -6.7      1.565      4.130
REMARK  4 active torsions:
REMARK  status: ('A' for Active; 'I' for Inactive)
REMARK    1  A    between atoms: C_14  and  N_3 
REMARK    2  A    between atoms: C_9  and  C_5 
REMARK    3  A    between atoms: C_19  and  C_14 
REMARK    4  A    between atoms: C_23  and  C_19 
ROOT
ATOM      1  C   UNL d   1     -47.419  12.914  22.883  0.00  0.00     0.083 A 
ATOM      2  C   UNL d   1     -47.242  12.143  23.110  0.00  0.00     0.161 A 
ATOM      3  N   UNL d   1     -48.543  12.342  23.349  0.00  0.00    -0.272 N 
ATOM      4  C   UNL d   1     -47.932  11.784  23.398  0.00  0.00     0.288 A 
ATOM      5  C   UNL d   1     -48.224  13.041  23.029  0.00  0.00     0.072 A 
ATOM      6  C   UNL d   1     -46.833  13.405  22.573  0.00  0.00     0.201 A 
ATOM      7  O   UNL d   1     -46.463  11.858  23.025  0.00  0.00    -0.302 OA
ATOM      8  C   UNL d   1     -46.064  13.118  22.491  0.00  0.00     0.062 A 
ATOM      9  C   UNL d   1     -45.882  12.348  22.716  0.00  0.00     0.103 A 
ATOM     10  O   UNL d   1     -48.001  11.018  23.682  0.00  0.00    -0.264 OA
ATOM     11  O   UNL d   1     -47.012  14.176  22.346  0.00  0.00    -0.286 OA
ATOM     12  C   UNL d   1     -45.474  13.611  22.179  0.00  0.00     0.005 A 
ATOM     13  C   UNL d   1     -45.101  12.068  22.629  0.00  0.00     0.025 A 
ATOM     14  C   UNL d   1     -44.707  13.331  22.095  0.00  0.00     0.000 A 
ATOM     15  C   UNL d   1     -44.520  12.558  22.320  0.00  0.00     0.002 A 
ENDROOT
BRANCH   5  16
ATOM     16  C   UNL d   1     -48.407  13.812  22.804  0.00  0.00     0.019 A 
ATOM     17  C   UNL d   1     -48.698  13.971  22.045  0.00  0.00     0.031 A 
ATOM     18  C   UNL d   1     -48.879  14.743  21.824  0.00  0.00     0.140 A 
ATOM     19  F   UNL d   1     -49.168  14.893  21.068  0.00  0.00    -0.204 F 
ATOM     20  C   UNL d   1     -48.771  15.369  22.361  0.00  0.00     0.030 A 
ATOM     21  C   UNL d   1     -48.480  15.210  23.120  0.00  0.00     0.002 A 
ATOM     22  C   UNL d   1     -48.298  14.429  23.339  0.00  0.00     0.002 A 
ENDBRANCH   5  16
BRANCH   3  23
ATOM     23  C   UNL d   1     -49.326  12.227  23.574  0.00  0.00     0.086 C 
BRANCH  23  24
ATOM     24  C   UNL d   1     -49.806  11.722  23.138  0.00  0.00     0.065 C 
BRANCH  24  25
ATOM     25  C   UNL d   1     -50.626  11.808  23.163  0.00  0.00     0.236 C 
ATOM     26  O   UNL d   1     -51.064  11.378  23.698  0.00  0.00    -0.283 OA
ENDBRANCH  24  25
ENDBRANCH  23  24
ENDBRANCH   3  23
TORSDOF 4
ENDMDL
MODEL 6
REMARK VINA RESULT:      -6.2      1.516      2.209
REMARK  4 active torsions:
REMARK  status: ('A' for Active; 'I' for Inactive)
REMARK    1  A    between atoms: C_14  and  N_3 
REMARK    2  A    between atoms: C_9  and  C_5 
REMARK    3  A    between atoms: C_19  and  C_14 
REMARK    4  A    between atoms: C_23  and  C_19 
ROOT
ATOM      1  C   UNL d   1     -47.287  12.908  22.929  0.00  0.00     0.083 A 
ATOM      2  C   UNL d   1     -46.497  13.127  22.993  0.00  0.00     0.161 A 
ATOM      3  N   UNL d   1     -46.570  11.815  23.242  0.00  0.00    -0.272 N 
ATOM      4  C   UNL d   1     -46.049  12.456  23.186  0.00  0.00     0.288 A 
ATOM      5  C   UNL d   1     -47.337  12.096  23.082  0.00  0.00     0.072 A 
ATOM      6  C   UNL d   1     -47.863  13.468  22.741  0.00  0.00     0.201 A 
ATOM      7  O   UNL d   1     -46.278  13.921  22.867  0.00  0.00    -0.302 OA
ATOM      8  C   UNL d   1     -47.642  14.252  22.616  0.00  0.00     0.062 A 
ATOM      9  C   UNL d   1     -46.852  14.476  22.679  0.00  0.00     0.103 A 
ATOM     10  O   UNL d   1     -45.238  12.428  23.302  0.00  0.00    -0.264 OA
ATOM     11  O   UNL d   1     -48.654  13.247  22.676  0.00  0.00    -0.286 OA
ATOM     12  C   UNL d   1     -48.220  14.816  22.427  0.00  0.00     0.005 A 
ATOM     13  C   UNL d   1     -46.639  15.273  22.552  0.00  0.00     0.025 A 
ATOM     14  C   UNL d   1     -48.006  15.599  22.302  0.00  0.00     0.000 A 
ATOM     15  C   UNL d   1     -47.213  15.828  22.364  0.00  0.00     0.002 A 
ENDROOT
BRANCH   5  16
ATOM     16  C   UNL d   1     -48.127  11.872  23.019  0.00  0.00     0.019 A 
ATOM     17  C   UNL d   1     -48.455  11.689  22.281  0.00  0.00     0.031 A 
ATOM     18  C   UNL d   1     -49.245  11.466  22.222  0.00  0.00     0.140 A 
ATOM     19  F   UNL d   1     -49.564  11.286  21.485  0.00  0.00    -0.204 F 
ATOM     20  C   UNL d   1     -49.719  11.421  22.904  0.00  0.00     0.030 A 
ATOM     21  C   UNL d   1     -49.392  11.603  23.642  0.00  0.00     0.002 A 
ATOM     22  C   UNL d   1     -48.594  11.829  23.697  0.00  0.00     0.002 A 
ENDBRANCH   5  16
BRANCH   3  23
ATOM     23  C   UNL d   1     -46.368  11.037  23.422  0.00  0.00     0.086 C 
BRANCH  23  24
ATOM     24  C   UNL d   1     -45.596  10.856  23.638  0.00  0.00     0.065 C 
BRANCH  24  25
ATOM     25  C   UNL d   1     -45.358  10.069  23.697  0.00  0.00     0.236 C 
ATOM     26  O   UNL d   1     -44.583   9.866  23.553  0.00  0.00    -0.283 OA
ENDBRANCH  24  25
ENDBRANCH  23  24
ENDBRANCH   3  23
TORSDOF 4
ENDMDL
