MODEL 1
REMARK VINA RESULT:      86.3      0.000      0.000
REMARK  6 active torsions:
REMARK  status: ('A' for Active; 'I' for Inactive)
REMARK    1  A    between atoms: S_12  and  C_5 
REMARK    2  A    between atoms: C_16  and  C_6 
REMARK    3  A    between atoms: C_10  and  C_14 
REMARK    4  A    between atoms: C_19  and  S_12 
REMARK    5  A    between atoms: C_13  and  C_19 
REMARK       I    between atoms: N_15  and  C_13 
REMARK    6  A    between atoms: C_22  and  N_15 
ROOT
ATOM      1  C   UNL d   1     -59.009 -98.811 -44.818  0.00  0.00     0.186 A 
ATOM      2  C   UNL d   1     -58.202 -98.799 -44.622  0.00  0.00     0.065 A 
ATOM      3  N   UNL d   1     -59.244 -98.827 -45.606  0.00  0.00    -0.203 NA
ATOM      4  N   UNL d   1     -57.865 -98.820 -46.001  0.00  0.00    -0.220 NA
ATOM      5  C   UNL d   1     -57.642 -98.804 -45.216  0.00  0.00     0.116 A 
ATOM      6  C   UNL d   1     -58.672 -98.832 -46.202  0.00  0.00     0.165 A 
ATOM      7  O   UNL d   1     -59.582 -98.807 -44.218  0.00  0.00    -0.289 OA
ATOM      8  C   UNL d   1     -57.973 -98.783 -43.826  0.00  0.00     0.007 A 
ATOM      9  C   UNL d   1     -59.360 -98.791 -43.428  0.00  0.00     0.102 A 
ATOM     10  C   UNL d   1     -58.549 -98.779 -43.230  0.00  0.00     0.023 A 
ATOM     11  C   UNL d   1     -59.919 -98.786 -42.837  0.00  0.00     0.025 A 
ATOM     12  C   UNL d   1     -58.324 -98.762 -42.437  0.00  0.00     0.002 A 
ATOM     13  C   UNL d   1     -58.900 -98.758 -41.845  0.00  0.00     0.000 A 
ATOM     14  C   UNL d   1     -59.703 -98.770 -42.041  0.00  0.00     0.002 A 
ENDROOT
BRANCH   5  15
ATOM     15  S   UNL d   1     -56.837 -98.792 -45.012  0.00  0.00    -0.062 SA
BRANCH  15  16
ATOM     16  C   UNL d   1     -56.362 -99.441 -45.203  0.00  0.00     0.099 C 
BRANCH  16  17
ATOM     17  C   UNL d   1     -55.988 -99.869 -44.609  0.00  0.00     0.286 C 
ATOM     18  N   UNL d   1     -56.428-100.363 -44.123  0.00  0.00    -0.208 NA
ATOM     19  O   UNL d   1     -55.175 -99.804 -44.499  0.00  0.00    -0.265 OA
BRANCH  18  20
ATOM     20  C   UNL d   1     -56.055-100.793 -43.526  0.00  0.00     0.085 A 
ATOM     21  C   UNL d   1     -55.265-100.653 -43.359  0.00  0.00     0.019 A 
ATOM     22  C   UNL d   1     -54.893-101.077 -42.769  0.00  0.00     0.008 A 
ATOM     23  C   UNL d   1     -55.316-101.649 -42.339  0.00  0.00     0.065 A 
ATOM     24  C   UNL d   1     -56.106-101.785 -42.511  0.00  0.00     0.008 A 
ATOM     25  C   UNL d   1     -56.481-101.358 -43.106  0.00  0.00     0.019 A 
BRANCH  23  26
ATOM     26  C   UNL d   1     -54.946-102.078 -41.745  0.00  0.00     0.211 C 
ATOM     27  O   UNL d   1     -54.787-101.715 -41.022  0.00  0.00    -0.644 OA
ATOM     28  O   UNL d   1     -54.735-102.865 -41.865  0.00  0.00    -0.644 OA
ENDBRANCH  23  26
ENDBRANCH  18  20
ENDBRANCH  16  17
ENDBRANCH  15  16
ENDBRANCH   5  15
BRANCH   6  29
ATOM     29  C   UNL d   1     -58.907 -98.848 -46.990  0.00  0.00     0.036 A 
ATOM     30  C   UNL d   1     -59.715 -98.875 -47.178  0.00  0.00     0.003 A 
ATOM     31  C   UNL d   1     -59.956 -98.892 -47.966  0.00  0.00     0.000 A 
ATOM     32  C   UNL d   1     -59.391 -98.881 -48.570  0.00  0.00     0.000 A 
ATOM     33  C   UNL d   1     -58.584 -98.854 -48.389  0.00  0.00     0.000 A 
ATOM     34  C   UNL d   1     -58.345 -98.837 -47.592  0.00  0.00     0.003 A 
ENDBRANCH   6  29
TORSDOF 6
ENDMDL
