MODEL 1
REMARK VINA RESULT:      -6.2      0.000      0.000
REMARK  5 active torsions:
REMARK  status: ('A' for Active; 'I' for Inactive)
REMARK    1  A    between atoms: N_2  and  C_1 
REMARK    2  A    between atoms: N_3  and  C_1 
REMARK       I    between atoms: C_4  and  N_3 
REMARK    3  A    between atoms: C_11  and  C_4 
REMARK    4  A    between atoms: O_7  and  C_11 
REMARK    5  A    between atoms: C_8  and  O_7 
ROOT
ATOM      1  N   UNL d   1     -47.761  13.578  23.042  0.00  0.00    -0.178 NA
ATOM      2  C   UNL d   1     -46.951  13.735  22.937  0.00  0.00     0.304 C 
ATOM      3  O   UNL d   1     -46.594  14.352  23.346  0.00  0.00    -0.263 OA
ENDROOT
BRANCH   2   4
ATOM      4  C   UNL d   1     -46.501  13.271  22.421  0.00  0.00     0.158 C 
ATOM      5  C   UNL d   1     -46.596  13.355  21.611  0.00  0.00     0.032 C 
BRANCH   4   6
ATOM      6  O   UNL d   1     -45.960  12.726  22.720  0.00  0.00    -0.301 OA
BRANCH   6   7
ATOM      7  C   UNL d   1     -45.201  12.682  22.416  0.00  0.00     0.111 A 
ATOM      8  C   UNL d   1     -44.703  12.049  22.600  0.00  0.00     0.081 A 
ATOM      9  C   UNL d   1     -43.940  12.012  22.289  0.00  0.00     0.025 A 
ATOM     10 CL   UNL d   1     -44.970  11.448  23.098  0.00  0.00    -0.080 Cl
ATOM     11  C   UNL d   1     -43.670  12.605  21.794  0.00  0.00     0.059 A 
ATOM     12  C   UNL d   1     -44.167  13.246  21.605  0.00  0.00     0.013 A 
ATOM     13 CL   UNL d   1     -42.892  12.571  21.475  0.00  0.00    -0.082 Cl
ATOM     14  C   UNL d   1     -44.927  13.283  21.914  0.00  0.00     0.026 A 
ENDBRANCH   6   7
ENDBRANCH   4   6
ENDBRANCH   2   4
BRANCH   1  15
ATOM     15  C   UNL d   1     -48.117  12.961  22.633  0.00  0.00     0.209 C 
ATOM     16  S   UNL d   1     -47.955  12.851  21.827  0.00  0.00    -0.038 SA
BRANCH  15  17
ATOM     17  N   UNL d   1     -48.638  12.448  23.017  0.00  0.00    -0.282 N 
ATOM     18  C   UNL d   1     -49.444  12.544  23.102  0.00  0.00     0.066 A 
ATOM     19  C   UNL d   1     -49.739  11.900  23.522  0.00  0.00     0.018 A 
ATOM     20  C   UNL d   1     -49.952  13.145  22.844  0.00  0.00     0.018 A 
ATOM     21  C   UNL d   1     -50.546  11.851  23.689  0.00  0.00     0.002 A 
ATOM     22  C   UNL d   1     -49.116  11.405  23.698  0.00  0.00     0.021 A 
ATOM     23  C   UNL d   1     -51.064  12.450  23.435  0.00  0.00     0.000 A 
ATOM     24  C   UNL d   1     -50.769  13.095  23.015  0.00  0.00     0.002 A 
ATOM     25  C   UNL d   1     -48.428  11.738  23.388  0.00  0.00     0.082 A 
ENDBRANCH  15  17
ENDBRANCH   1  15
TORSDOF 5
ENDMDL
MODEL 2
REMARK VINA RESULT:      -6.1      2.391      4.657
REMARK  5 active torsions:
REMARK  status: ('A' for Active; 'I' for Inactive)
REMARK    1  A    between atoms: N_2  and  C_1 
REMARK    2  A    between atoms: N_3  and  C_1 
REMARK       I    between atoms: C_4  and  N_3 
REMARK    3  A    between atoms: C_11  and  C_4 
REMARK    4  A    between atoms: O_7  and  C_11 
REMARK    5  A    between atoms: C_8  and  O_7 
ROOT
ATOM      1  N   UNL d   1     -46.566  12.669  22.163  0.00  0.00    -0.178 NA
ATOM      2  C   UNL d   1     -47.177  13.214  22.019  0.00  0.00     0.304 C 
ATOM      3  O   UNL d   1     -47.449  13.337  21.254  0.00  0.00    -0.263 OA
ENDROOT
BRANCH   2   4
ATOM      4  C   UNL d   1     -47.513  13.635  22.647  0.00  0.00     0.158 C 
ATOM      5  C   UNL d   1     -47.093  14.245  22.999  0.00  0.00     0.032 C 
BRANCH   4   6
ATOM      6  O   UNL d   1     -48.268  13.443  22.916  0.00  0.00    -0.301 OA
BRANCH   6   7
ATOM      7  C   UNL d   1     -48.834  14.025  23.021  0.00  0.00     0.111 A 
ATOM      8  C   UNL d   1     -49.597  13.839  23.280  0.00  0.00     0.081 A 
ATOM      9  C   UNL d   1     -50.162  14.431  23.383  0.00  0.00     0.025 A 
ATOM     10 CL   UNL d   1     -49.796  13.053  23.436  0.00  0.00    -0.080 Cl
ATOM     11  C   UNL d   1     -49.969  15.211  23.229  0.00  0.00     0.059 A 
ATOM     12  C   UNL d   1     -49.202  15.406  22.969  0.00  0.00     0.013 A 
ATOM     13 CL   UNL d   1     -50.542  15.818  23.333  0.00  0.00    -0.082 Cl
ATOM     14  C   UNL d   1     -48.640  14.816  22.866  0.00  0.00     0.026 A 
ENDBRANCH   6   7
ENDBRANCH   4   6
ENDBRANCH   2   4
BRANCH   1  15
ATOM     15  C   UNL d   1     -46.294  12.546  22.928  0.00  0.00     0.209 C 
ATOM     16  S   UNL d   1     -46.211  13.189  23.445  0.00  0.00    -0.038 SA
BRANCH  15  17
ATOM     17  N   UNL d   1     -46.101  11.787  23.189  0.00  0.00    -0.282 N 
ATOM     18  C   UNL d   1     -45.361  11.444  23.189  0.00  0.00     0.066 A 
ATOM     19  C   UNL d   1     -45.427  10.683  23.497  0.00  0.00     0.018 A 
ATOM     20  C   UNL d   1     -44.625  11.734  22.944  0.00  0.00     0.018 A 
ATOM     21  C   UNL d   1     -44.757  10.205  23.562  0.00  0.00     0.002 A 
ATOM     22  C   UNL d   1     -46.208  10.554  23.688  0.00  0.00     0.021 A 
ATOM     23  C   UNL d   1     -44.014  10.488  23.319  0.00  0.00     0.000 A 
ATOM     24  C   UNL d   1     -43.948  11.249  23.011  0.00  0.00     0.002 A 
ATOM     25  C   UNL d   1     -46.635  11.235  23.500  0.00  0.00     0.082 A 
ENDBRANCH  15  17
ENDBRANCH   1  15
TORSDOF 5
ENDMDL
MODEL 3
REMARK VINA RESULT:      -5.7      8.622      9.468
REMARK  5 active torsions:
REMARK  status: ('A' for Active; 'I' for Inactive)
REMARK    1  A    between atoms: N_2  and  C_1 
REMARK    2  A    between atoms: N_3  and  C_1 
REMARK       I    between atoms: C_4  and  N_3 
REMARK    3  A    between atoms: C_11  and  C_4 
REMARK    4  A    between atoms: O_7  and  C_11 
REMARK    5  A    between atoms: C_8  and  O_7 
ROOT
ATOM      1  N   UNL d   1     -40.055  14.457  19.822  0.00  0.00    -0.178 NA
ATOM      2  C   UNL d   1     -40.103  14.298  19.007  0.00  0.00     0.304 C 
ATOM      3  O   UNL d   1     -40.793  13.988  18.687  0.00  0.00    -0.263 OA
ENDROOT
BRANCH   2   4
ATOM      4  C   UNL d   1     -39.455  14.450  18.516  0.00  0.00     0.158 C 
ATOM      5  C   UNL d   1     -39.290  15.220  18.287  0.00  0.00     0.032 C 
BRANCH   4   6
ATOM      6  O   UNL d   1     -38.977  13.831  18.258  0.00  0.00    -0.301 OA
BRANCH   6   7
ATOM      7  C   UNL d   1     -38.741  13.784  17.475  0.00  0.00     0.111 A 
ATOM      8  C   UNL d   1     -38.278  13.155  17.204  0.00  0.00     0.081 A 
ATOM      9  C   UNL d   1     -38.045  13.115  16.414  0.00  0.00     0.025 A 
ATOM     10 CL   UNL d   1     -38.047  12.561  17.728  0.00  0.00    -0.080 Cl
ATOM     11  C   UNL d   1     -38.271  13.702  15.891  0.00  0.00     0.059 A 
ATOM     12  C   UNL d   1     -38.737  14.338  16.157  0.00  0.00     0.013 A 
ATOM     13 CL   UNL d   1     -38.035  13.665  15.084  0.00  0.00    -0.082 Cl
ATOM     14  C   UNL d   1     -38.970  14.378  16.944  0.00  0.00     0.026 A 
ENDBRANCH   6   7
ENDBRANCH   4   6
ENDBRANCH   2   4
BRANCH   1  15
ATOM     15  C   UNL d   1     -39.365  14.766  20.142  0.00  0.00     0.209 C 
ATOM     16  S   UNL d   1     -38.947  15.355  19.734  0.00  0.00    -0.038 SA
BRANCH  15  17
ATOM     17  N   UNL d   1     -39.081  14.496  20.869  0.00  0.00    -0.282 N 
ATOM     18  C   UNL d   1     -39.100  14.896  21.579  0.00  0.00     0.066 A 
ATOM     19  C   UNL d   1     -38.757  14.418  22.157  0.00  0.00     0.018 A 
ATOM     20  C   UNL d   1     -39.389  15.648  21.776  0.00  0.00     0.018 A 
ATOM     21  C   UNL d   1     -38.702  14.687  22.935  0.00  0.00     0.002 A 
ATOM     22  C   UNL d   1     -38.527  13.721  21.804  0.00  0.00     0.021 A 
ATOM     23  C   UNL d   1     -38.990  15.440  23.141  0.00  0.00     0.000 A 
ATOM     24  C   UNL d   1     -39.332  15.918  22.564  0.00  0.00     0.002 A 
ATOM     25  C   UNL d   1     -38.724  13.761  21.004  0.00  0.00     0.082 A 
ENDBRANCH  15  17
ENDBRANCH   1  15
TORSDOF 5
ENDMDL
MODEL 4
REMARK VINA RESULT:      -5.6      1.570      2.438
REMARK  5 active torsions:
REMARK  status: ('A' for Active; 'I' for Inactive)
REMARK    1  A    between atoms: N_2  and  C_1 
REMARK    2  A    between atoms: N_3  and  C_1 
REMARK       I    between atoms: C_4  and  N_3 
REMARK    3  A    between atoms: C_11  and  C_4 
REMARK    4  A    between atoms: O_7  and  C_11 
REMARK    5  A    between atoms: C_8  and  O_7 
ROOT
ATOM      1  N   UNL d   1     -48.456  12.885  22.269  0.00  0.00    -0.178 NA
ATOM      2  C   UNL d   1     -47.903  12.264  22.251  0.00  0.00     0.304 C 
ATOM      3  O   UNL d   1     -47.772  11.849  21.554  0.00  0.00    -0.263 OA
ENDROOT
BRANCH   2   4
ATOM      4  C   UNL d   1     -47.484  12.062  22.934  0.00  0.00     0.158 C 
ATOM      5  C   UNL d   1     -47.841  11.598  23.509  0.00  0.00     0.032 C 
BRANCH   4   6
ATOM      6  O   UNL d   1     -46.710  12.325  23.037  0.00  0.00    -0.301 OA
BRANCH   6   7
ATOM      7  C   UNL d   1     -46.102  11.792  23.167  0.00  0.00     0.111 A 
ATOM      8  C   UNL d   1     -45.330  11.954  22.918  0.00  0.00     0.081 A 
ATOM      9  C   UNL d   1     -44.723  11.412  23.053  0.00  0.00     0.025 A 
ATOM     10 CL   UNL d   1     -45.165  12.664  22.532  0.00  0.00    -0.080 Cl
ATOM     11  C   UNL d   1     -44.883  10.707  23.436  0.00  0.00     0.059 A 
ATOM     12  C   UNL d   1     -45.657  10.537  23.689  0.00  0.00     0.013 A 
ATOM     13 CL   UNL d   1     -44.266  10.151  23.575  0.00  0.00    -0.082 Cl
ATOM     14  C   UNL d   1     -46.262  11.077  23.555  0.00  0.00     0.026 A 
ENDBRANCH   6   7
ENDBRANCH   4   6
ENDBRANCH   2   4
BRANCH   1  15
ATOM     15  C   UNL d   1     -48.588  13.300  22.966  0.00  0.00     0.209 C 
ATOM     16  S   UNL d   1     -48.457  12.931  23.697  0.00  0.00    -0.038 SA
BRANCH  15  17
ATOM     17  N   UNL d   1     -48.850  14.083  22.945  0.00  0.00    -0.282 N 
ATOM     18  C   UNL d   1     -49.624  14.339  22.970  0.00  0.00     0.066 A 
ATOM     19  C   UNL d   1     -49.626  15.162  22.936  0.00  0.00     0.018 A 
ATOM     20  C   UNL d   1     -50.337  13.919  23.021  0.00  0.00     0.018 A 
ATOM     21  C   UNL d   1     -50.342  15.573  22.952  0.00  0.00     0.002 A 
ATOM     22  C   UNL d   1     -48.854  15.416  22.890  0.00  0.00     0.021 A 
ATOM     23  C   UNL d   1     -51.063  15.161  23.003  0.00  0.00     0.000 A 
ATOM     24  C   UNL d   1     -51.060  14.337  23.037  0.00  0.00     0.002 A 
ATOM     25  C   UNL d   1     -48.364  14.752  22.895  0.00  0.00     0.082 A 
ENDBRANCH  15  17
ENDBRANCH   1  15
TORSDOF 5
ENDMDL
MODEL 5
REMARK VINA RESULT:      -5.3      8.734     10.074
REMARK  5 active torsions:
REMARK  status: ('A' for Active; 'I' for Inactive)
REMARK    1  A    between atoms: N_2  and  C_1 
REMARK    2  A    between atoms: N_3  and  C_1 
REMARK       I    between atoms: C_4  and  N_3 
REMARK    3  A    between atoms: C_11  and  C_4 
REMARK    4  A    between atoms: O_7  and  C_11 
REMARK    5  A    between atoms: C_8  and  O_7 
ROOT
ATOM      1  N   UNL d   1     -38.470  15.090  18.637  0.00  0.00    -0.178 NA
ATOM      2  C   UNL d   1     -38.459  15.209  19.460  0.00  0.00     0.304 C 
ATOM      3  O   UNL d   1     -37.955  15.768  19.790  0.00  0.00    -0.263 OA
ENDROOT
BRANCH   2   4
ATOM      4  C   UNL d   1     -38.958  14.767  19.950  0.00  0.00     0.158 C 
ATOM      5  C   UNL d   1     -39.746  14.982  20.030  0.00  0.00     0.032 C 
BRANCH   4   6
ATOM      6  O   UNL d   1     -38.665  14.113  20.356  0.00  0.00    -0.301 OA
BRANCH   6   7
ATOM      7  C   UNL d   1     -38.739  14.058  21.170  0.00  0.00     0.111 A 
ATOM      8  C   UNL d   1     -38.382  13.445  21.592  0.00  0.00     0.081 A 
ATOM      9  C   UNL d   1     -38.461  13.397  22.411  0.00  0.00     0.025 A 
ATOM     10 CL   UNL d   1     -37.941  12.874  21.191  0.00  0.00    -0.080 Cl
ATOM     11  C   UNL d   1     -38.898  13.961  22.813  0.00  0.00     0.059 A 
ATOM     12  C   UNL d   1     -39.260  14.582  22.394  0.00  0.00     0.013 A 
ATOM     13 CL   UNL d   1     -38.981  13.917  23.650  0.00  0.00    -0.082 Cl
ATOM     14  C   UNL d   1     -39.181  14.629  21.578  0.00  0.00     0.026 A 
ENDBRANCH   6   7
ENDBRANCH   4   6
ENDBRANCH   2   4
BRANCH   1  15
ATOM     15  C   UNL d   1     -38.974  14.532  18.308  0.00  0.00     0.209 C 
ATOM     16  S   UNL d   1     -39.758  14.475  18.573  0.00  0.00    -0.038 SA
BRANCH  15  17
ATOM     17  N   UNL d   1     -38.709  14.025  17.712  0.00  0.00    -0.282 N 
ATOM     18  C   UNL d   1     -38.538  14.226  16.940  0.00  0.00     0.066 A 
ATOM     19  C   UNL d   1     -38.292  13.548  16.543  0.00  0.00     0.018 A 
ATOM     20  C   UNL d   1     -38.576  14.953  16.544  0.00  0.00     0.018 A 
ATOM     21  C   UNL d   1     -38.082  13.590  15.746  0.00  0.00     0.002 A 
ATOM     22  C   UNL d   1     -38.310  12.926  17.069  0.00  0.00     0.021 A 
ATOM     23  C   UNL d   1     -38.117  14.315  15.340  0.00  0.00     0.000 A 
ATOM     24  C   UNL d   1     -38.363  14.994  15.737  0.00  0.00     0.002 A 
ATOM     25  C   UNL d   1     -38.568  13.213  17.798  0.00  0.00     0.082 A 
ENDBRANCH  15  17
ENDBRANCH   1  15
TORSDOF 5
ENDMDL
MODEL 6
REMARK VINA RESULT:      -5.0      1.821      4.911
REMARK  5 active torsions:
REMARK  status: ('A' for Active; 'I' for Inactive)
REMARK    1  A    between atoms: N_2  and  C_1 
REMARK    2  A    between atoms: N_3  and  C_1 
REMARK       I    between atoms: C_4  and  N_3 
REMARK    3  A    between atoms: C_11  and  C_4 
REMARK    4  A    between atoms: O_7  and  C_11 
REMARK    5  A    between atoms: C_8  and  O_7 
ROOT
ATOM      1  N   UNL d   1     -46.407  13.002  21.699  0.00  0.00    -0.178 NA
ATOM      2  C   UNL d   1     -47.234  13.036  21.776  0.00  0.00     0.304 C 
ATOM      3  O   UNL d   1     -47.714  12.966  21.113  0.00  0.00    -0.263 OA
ENDROOT
BRANCH   2   4
ATOM      4  C   UNL d   1     -47.577  13.140  22.521  0.00  0.00     0.158 C 
ATOM      5  C   UNL d   1     -47.647  13.895  22.835  0.00  0.00     0.032 C 
BRANCH   4   6
ATOM      6  O   UNL d   1     -47.848  12.488  22.947  0.00  0.00    -0.301 OA
BRANCH   6   7
ATOM      7  C   UNL d   1     -48.642  12.413  23.135  0.00  0.00     0.111 A 
ATOM      8  C   UNL d   1     -48.931  11.733  23.504  0.00  0.00     0.081 A 
ATOM      9  C   UNL d   1     -49.732  11.665  23.690  0.00  0.00     0.025 A 
ATOM     10 CL   UNL d   1     -48.416  11.116  23.688  0.00  0.00    -0.080 Cl
ATOM     11  C   UNL d   1     -50.246  12.275  23.509  0.00  0.00     0.059 A 
ATOM     12  C   UNL d   1     -49.961  12.963  23.138  0.00  0.00     0.013 A 
ATOM     13 CL   UNL d   1     -51.064  12.210  23.698  0.00  0.00    -0.082 Cl
ATOM     14  C   UNL d   1     -49.164  13.031  22.952  0.00  0.00     0.026 A 
ENDBRANCH   6   7
ENDBRANCH   4   6
ENDBRANCH   2   4
BRANCH   1  15
ATOM     15  C   UNL d   1     -45.927  13.073  22.362  0.00  0.00     0.209 C 
ATOM     16  S   UNL d   1     -46.111  13.630  22.948  0.00  0.00    -0.038 SA
BRANCH  15  17
ATOM     17  N   UNL d   1     -45.261  12.592  22.452  0.00  0.00    -0.282 N 
ATOM     18  C   UNL d   1     -44.542  12.680  22.077  0.00  0.00     0.066 A 
ATOM     19  C   UNL d   1     -44.041  12.077  22.332  0.00  0.00     0.018 A 
ATOM     20  C   UNL d   1     -44.277  13.241  21.528  0.00  0.00     0.018 A 
ATOM     21  C   UNL d   1     -43.271  12.031  22.040  0.00  0.00     0.002 A 
ATOM     22  C   UNL d   1     -44.450  11.616  22.864  0.00  0.00     0.021 A 
ATOM     23  C   UNL d   1     -42.996  12.590  21.488  0.00  0.00     0.000 A 
ATOM     24  C   UNL d   1     -43.497  13.192  21.233  0.00  0.00     0.002 A 
ATOM     25  C   UNL d   1     -45.209  11.929  22.945  0.00  0.00     0.082 A 
ENDBRANCH  15  17
ENDBRANCH   1  15
TORSDOF 5
ENDMDL
MODEL 7
REMARK VINA RESULT:      -4.5      8.532      9.489
REMARK  5 active torsions:
REMARK  status: ('A' for Active; 'I' for Inactive)
REMARK    1  A    between atoms: N_2  and  C_1 
REMARK    2  A    between atoms: N_3  and  C_1 
REMARK       I    between atoms: C_4  and  N_3 
REMARK    3  A    between atoms: C_11  and  C_4 
REMARK    4  A    between atoms: O_7  and  C_11 
REMARK    5  A    between atoms: C_8  and  O_7 
ROOT
ATOM      1  N   UNL d   1     -38.763  13.789  20.286  0.00  0.00    -0.178 NA
ATOM      2  C   UNL d   1     -38.924  13.776  19.471  0.00  0.00     0.304 C 
ATOM      3  O   UNL d   1     -38.517  13.260  18.978  0.00  0.00    -0.263 OA
ENDROOT
BRANCH   2   4
ATOM      4  C   UNL d   1     -39.495  14.283  19.152  0.00  0.00     0.158 C 
ATOM      5  C   UNL d   1     -40.289  14.157  19.318  0.00  0.00     0.032 C 
BRANCH   4   6
ATOM      6  O   UNL d   1     -39.268  14.911  18.670  0.00  0.00    -0.301 OA
BRANCH   6   7
ATOM      7  C   UNL d   1     -39.742  15.152  18.047  0.00  0.00     0.111 A 
ATOM      8  C   UNL d   1     -39.450  15.648  17.454  0.00  0.00     0.081 A 
ATOM      9  C   UNL d   1     -39.933  15.885  16.829  0.00  0.00     0.025 A 
ATOM     10 CL   UNL d   1     -38.667  15.908  17.486  0.00  0.00    -0.080 Cl
ATOM     11  C   UNL d   1     -40.710  15.630  16.794  0.00  0.00     0.059 A 
ATOM     12  C   UNL d   1     -41.011  15.130  17.388  0.00  0.00     0.013 A 
ATOM     13 CL   UNL d   1     -41.207  15.870  16.158  0.00  0.00    -0.082 Cl
ATOM     14  C   UNL d   1     -40.529  14.893  18.009  0.00  0.00     0.026 A 
ENDBRANCH   6   7
ENDBRANCH   4   6
ENDBRANCH   2   4
BRANCH   1  15
ATOM     15  C   UNL d   1     -39.171  14.305  20.779  0.00  0.00     0.209 C 
ATOM     16  S   UNL d   1     -39.988  14.410  20.683  0.00  0.00    -0.038 SA
BRANCH  15  17
ATOM     17  N   UNL d   1     -38.773  14.722  21.371  0.00  0.00    -0.282 N 
ATOM     18  C   UNL d   1     -38.593  14.454  22.120  0.00  0.00     0.066 A 
ATOM     19  C   UNL d   1     -38.196  15.053  22.522  0.00  0.00     0.018 A 
ATOM     20  C   UNL d   1     -38.744  13.728  22.491  0.00  0.00     0.018 A 
ATOM     21  C   UNL d   1     -37.945  14.932  23.299  0.00  0.00     0.002 A 
ATOM     22  C   UNL d   1     -38.129  15.692  22.022  0.00  0.00     0.021 A 
ATOM     23  C   UNL d   1     -38.092  14.207  23.680  0.00  0.00     0.000 A 
ATOM     24  C   UNL d   1     -38.490  13.608  23.278  0.00  0.00     0.002 A 
ATOM     25  C   UNL d   1     -38.485  15.496  21.304  0.00  0.00     0.082 A 
ENDBRANCH  15  17
ENDBRANCH   1  15
TORSDOF 5
ENDMDL
MODEL 8
REMARK VINA RESULT:      -4.4      8.343     10.189
REMARK  5 active torsions:
REMARK  status: ('A' for Active; 'I' for Inactive)
REMARK    1  A    between atoms: N_2  and  C_1 
REMARK    2  A    between atoms: N_3  and  C_1 
REMARK       I    between atoms: C_4  and  N_3 
REMARK    3  A    between atoms: C_11  and  C_4 
REMARK    4  A    between atoms: O_7  and  C_11 
REMARK    5  A    between atoms: C_8  and  O_7 
ROOT
ATOM      1  N   UNL d   1     -39.898  14.039  17.672  0.00  0.00    -0.178 NA
ATOM      2  C   UNL d   1     -40.199  14.036  18.447  0.00  0.00     0.304 C 
ATOM      3  O   UNL d   1     -40.990  13.859  18.582  0.00  0.00    -0.263 OA
ENDROOT
BRANCH   2   4
ATOM      4  C   UNL d   1     -39.703  14.209  19.085  0.00  0.00     0.158 C 
ATOM      5  C   UNL d   1     -39.189  13.636  19.369  0.00  0.00     0.032 C 
BRANCH   4   6
ATOM      6  O   UNL d   1     -39.724  14.955  19.434  0.00  0.00    -0.301 OA
BRANCH   6   7
ATOM      7  C   UNL d   1     -39.660  15.038  20.247  0.00  0.00     0.111 A 
ATOM      8  C   UNL d   1     -40.184  15.517  20.670  0.00  0.00     0.081 A 
ATOM      9  C   UNL d   1     -40.113  15.595  21.488  0.00  0.00     0.025 A 
ATOM     10 CL   UNL d   1     -40.782  15.922  20.272  0.00  0.00    -0.080 Cl
ATOM     11  C   UNL d   1     -39.521  15.195  21.887  0.00  0.00     0.059 A 
ATOM     12  C   UNL d   1     -38.991  14.710  21.467  0.00  0.00     0.013 A 
ATOM     13 CL   UNL d   1     -39.446  15.271  22.722  0.00  0.00    -0.082 Cl
ATOM     14  C   UNL d   1     -39.061  14.633  20.652  0.00  0.00     0.026 A 
ENDBRANCH   6   7
ENDBRANCH   4   6
ENDBRANCH   2   4
BRANCH   1  15
ATOM     15  C   UNL d   1     -39.108  14.216  17.536  0.00  0.00     0.209 C 
ATOM     16  S   UNL d   1     -38.522  13.893  18.027  0.00  0.00    -0.038 SA
BRANCH  15  17
ATOM     17  N   UNL d   1     -38.889  14.713  16.914  0.00  0.00    -0.282 N 
ATOM     18  C   UNL d   1     -38.576  14.487  16.196  0.00  0.00     0.066 A 
ATOM     19  C   UNL d   1     -38.441  15.165  15.746  0.00  0.00     0.018 A 
ATOM     20  C   UNL d   1     -38.395  13.739  15.890  0.00  0.00     0.018 A 
ATOM     21  C   UNL d   1     -38.124  15.099  14.987  0.00  0.00     0.002 A 
ATOM     22  C   UNL d   1     -38.670  15.810  16.187  0.00  0.00     0.021 A 
ATOM     23  C   UNL d   1     -37.940  14.352  14.672  0.00  0.00     0.000 A 
ATOM     24  C   UNL d   1     -38.074  13.674  15.121  0.00  0.00     0.002 A 
ATOM     25  C   UNL d   1     -38.949  15.539  16.914  0.00  0.00     0.082 A 
ENDBRANCH  15  17
ENDBRANCH   1  15
TORSDOF 5
ENDMDL
