MODEL 1
REMARK VINA RESULT:      -7.8      0.000      0.000
REMARK  4 active torsions:
REMARK  status: ('A' for Active; 'I' for Inactive)
REMARK    1  A    between atoms: N_5  and  C_1 
REMARK    2  A    between atoms: C_9  and  C_2 
REMARK       I    between atoms: C_6  and  N_5 
REMARK    3  A    between atoms: C_8  and  C_6 
REMARK    4  A    between atoms: N_10  and  C_9 
ROOT
ATOM      1  C   UNL d   1     -48.938  12.760  23.036  0.00  0.00     0.115 A 
ATOM      2  C   UNL d   1     -49.644  13.095  22.781  0.00  0.00     0.042 A 
ATOM      3  S   UNL d   1     -49.118  12.038  23.412  0.00  0.00    -0.068 SA
ATOM      4  C   UNL d   1     -50.257  12.587  22.995  0.00  0.00     0.009 A 
ATOM      5  C   UNL d   1     -49.922  11.939  23.383  0.00  0.00     0.031 A 
ATOM      6  C   UNL d   1     -51.063  12.695  22.853  0.00  0.00     0.001 C 
ATOM      7  C   UNL d   1     -50.331  11.289  23.696  0.00  0.00     0.007 C 
ENDROOT
BRANCH   1   8
ATOM      8  N   UNL d   1     -48.221  13.148  22.898  0.00  0.00    -0.201 NA
ATOM      9  C   UNL d   1     -47.521  12.719  22.862  0.00  0.00     0.282 C 
ATOM     10  O   UNL d   1     -47.535  11.904  22.964  0.00  0.00    -0.265 OA
BRANCH   9  11
ATOM     11  C   UNL d   1     -46.807  13.106  22.725  0.00  0.00     0.085 A 
ATOM     12  C   UNL d   1     -46.336  12.884  22.090  0.00  0.00     0.145 A 
ATOM     13  F   UNL d   1     -46.587  12.266  21.588  0.00  0.00    -0.204 F 
ATOM     14  C   UNL d   1     -45.622  13.270  21.952  0.00  0.00     0.030 A 
ATOM     15  C   UNL d   1     -45.380  13.878  22.449  0.00  0.00     0.002 A 
ATOM     16  C   UNL d   1     -45.853  14.102  23.087  0.00  0.00     0.000 A 
ATOM     17  C   UNL d   1     -46.567  13.715  23.225  0.00  0.00     0.007 A 
ENDBRANCH   9  11
ENDBRANCH   1   8
BRANCH   2  18
ATOM     18  C   UNL d   1     -49.724  13.818  22.378  0.00  0.00     0.082 C 
BRANCH  18  19
ATOM     19  N   UNL d   1     -49.988  14.486  22.776  0.00  0.00    -0.302 N 
ATOM     20  C   UNL d   1     -49.440  15.011  23.107  0.00  0.00     0.080 A 
ATOM     21  C   UNL d   1     -49.704  15.685  23.509  0.00  0.00     0.019 A 
ATOM     22  C   UNL d   1     -50.512  15.830  23.579  0.00  0.00     0.003 A 
ATOM     23  C   UNL d   1     -51.060  15.305  23.249  0.00  0.00     0.019 A 
ATOM     24  C   UNL d   1     -50.799  14.635  22.848  0.00  0.00     0.080 A 
ENDBRANCH  18  19
ENDBRANCH   2  18
TORSDOF 4
ENDMDL
MODEL 2
REMARK VINA RESULT:      -7.2      1.366      2.542
REMARK  4 active torsions:
REMARK  status: ('A' for Active; 'I' for Inactive)
REMARK    1  A    between atoms: N_5  and  C_1 
REMARK    2  A    between atoms: C_9  and  C_2 
REMARK       I    between atoms: C_6  and  N_5 
REMARK    3  A    between atoms: C_8  and  C_6 
REMARK    4  A    between atoms: N_10  and  C_9 
ROOT
ATOM      1  C   UNL d   1     -47.971  13.608  22.719  0.00  0.00     0.115 A 
ATOM      2  C   UNL d   1     -48.715  13.467  22.399  0.00  0.00     0.042 A 
ATOM      3  S   UNL d   1     -47.894  14.429  22.836  0.00  0.00    -0.068 SA
ATOM      4  C   UNL d   1     -49.098  14.193  22.318  0.00  0.00     0.009 A 
ATOM      5  C   UNL d   1     -48.583  14.780  22.590  0.00  0.00     0.031 A 
ATOM      6  C   UNL d   1     -49.857  14.323  22.021  0.00  0.00     0.001 C 
ATOM      7  C   UNL d   1     -48.735  15.594  22.613  0.00  0.00     0.007 C 
ENDROOT
BRANCH   1   8
ATOM      8  N   UNL d   1     -47.456  12.977  22.864  0.00  0.00    -0.201 NA
ATOM      9  C   UNL d   1     -46.644  13.103  22.873  0.00  0.00     0.282 C 
ATOM     10  O   UNL d   1     -46.345  13.856  22.738  0.00  0.00    -0.265 OA
BRANCH   9  11
ATOM     11  C   UNL d   1     -46.132  12.475  23.018  0.00  0.00     0.085 A 
ATOM     12  C   UNL d   1     -45.409  12.437  22.630  0.00  0.00     0.145 A 
ATOM     13  F   UNL d   1     -45.201  13.038  22.090  0.00  0.00    -0.204 F 
ATOM     14  C   UNL d   1     -44.896  11.810  22.774  0.00  0.00     0.030 A 
ATOM     15  C   UNL d   1     -45.106  11.220  23.307  0.00  0.00     0.002 A 
ATOM     16  C   UNL d   1     -45.832  11.258  23.698  0.00  0.00     0.000 A 
ATOM     17  C   UNL d   1     -46.345  11.885  23.553  0.00  0.00     0.007 A 
ENDBRANCH   9  11
ENDBRANCH   1   8
BRANCH   2  18
ATOM     18  C   UNL d   1     -49.027  12.723  22.194  0.00  0.00     0.082 C 
BRANCH  18  19
ATOM     19  N   UNL d   1     -49.569  12.352  22.687  0.00  0.00    -0.302 N 
ATOM     20  C   UNL d   1     -49.318  11.753  23.200  0.00  0.00     0.080 A 
ATOM     21  C   UNL d   1     -49.863  11.379  23.698  0.00  0.00     0.019 A 
ATOM     22  C   UNL d   1     -50.655  11.604  23.681  0.00  0.00     0.003 A 
ATOM     23  C   UNL d   1     -50.908  12.203  23.168  0.00  0.00     0.019 A 
ATOM     24  C   UNL d   1     -50.366  12.576  22.672  0.00  0.00     0.080 A 
ENDBRANCH  18  19
ENDBRANCH   2  18
TORSDOF 4
ENDMDL
MODEL 3
REMARK VINA RESULT:      -6.8      9.071     10.617
REMARK  4 active torsions:
REMARK  status: ('A' for Active; 'I' for Inactive)
REMARK    1  A    between atoms: N_5  and  C_1 
REMARK    2  A    between atoms: C_9  and  C_2 
REMARK       I    between atoms: C_6  and  N_5 
REMARK    3  A    between atoms: C_8  and  C_6 
REMARK    4  A    between atoms: N_10  and  C_9 
ROOT
ATOM      1  C   UNL d   1     -40.190  15.426  18.307  0.00  0.00     0.115 A 
ATOM      2  C   UNL d   1     -39.702  15.325  17.653  0.00  0.00     0.042 A 
ATOM      3  S   UNL d   1     -40.940  15.662  18.032  0.00  0.00    -0.068 SA
ATOM      4  C   UNL d   1     -40.143  15.498  16.978  0.00  0.00     0.009 A 
ATOM      5  C   UNL d   1     -40.905  15.705  17.223  0.00  0.00     0.031 A 
ATOM      6  C   UNL d   1     -39.882  15.473  16.196  0.00  0.00     0.001 C 
ATOM      7  C   UNL d   1     -41.536  15.921  16.732  0.00  0.00     0.007 C 
ENDROOT
BRANCH   1   8
ATOM      8  N   UNL d   1     -39.897  15.291  19.068  0.00  0.00    -0.201 NA
ATOM      9  C   UNL d   1     -40.325  15.538  19.724  0.00  0.00     0.282 C 
ATOM     10  O   UNL d   1     -41.045  15.921  19.622  0.00  0.00    -0.265 OA
BRANCH   9  11
ATOM     11  C   UNL d   1     -40.033  15.404  20.482  0.00  0.00     0.085 A 
ATOM     12  C   UNL d   1     -40.294  14.756  20.914  0.00  0.00     0.145 A 
ATOM     13  F   UNL d   1     -40.855  14.237  20.577  0.00  0.00    -0.204 F 
ATOM     14  C   UNL d   1     -40.002  14.621  21.671  0.00  0.00     0.030 A 
ATOM     15  C   UNL d   1     -39.450  15.135  21.998  0.00  0.00     0.002 A 
ATOM     16  C   UNL d   1     -39.188  15.787  21.565  0.00  0.00     0.000 A 
ATOM     17  C   UNL d   1     -39.479  15.921  20.807  0.00  0.00     0.007 A 
ENDBRANCH   9  11
ENDBRANCH   1   8
BRANCH   2  18
ATOM     18  C   UNL d   1     -38.903  15.091  17.670  0.00  0.00     0.082 C 
BRANCH  18  19
ATOM     19  N   UNL d   1     -38.692  14.330  17.447  0.00  0.00    -0.302 N 
ATOM     20  C   UNL d   1     -38.264  14.209  16.749  0.00  0.00     0.080 A 
ATOM     21  C   UNL d   1     -38.050  13.442  16.522  0.00  0.00     0.019 A 
ATOM     22  C   UNL d   1     -38.264  12.801  16.993  0.00  0.00     0.003 A 
ATOM     23  C   UNL d   1     -38.691  12.921  17.691  0.00  0.00     0.019 A 
ATOM     24  C   UNL d   1     -38.905  13.683  17.918  0.00  0.00     0.080 A 
ENDBRANCH  18  19
ENDBRANCH   2  18
TORSDOF 4
ENDMDL
MODEL 4
REMARK VINA RESULT:      -6.4      8.651     10.519
REMARK  4 active torsions:
REMARK  status: ('A' for Active; 'I' for Inactive)
REMARK    1  A    between atoms: N_5  and  C_1 
REMARK    2  A    between atoms: C_9  and  C_2 
REMARK       I    between atoms: C_6  and  N_5 
REMARK    3  A    between atoms: C_8  and  C_6 
REMARK    4  A    between atoms: N_10  and  C_9 
ROOT
ATOM      1  C   UNL d   1     -39.774  14.977  19.799  0.00  0.00     0.115 A 
ATOM      2  C   UNL d   1     -39.419  15.210  20.502  0.00  0.00     0.042 A 
ATOM      3  S   UNL d   1     -40.570  15.220  19.821  0.00  0.00    -0.068 SA
ATOM      4  C   UNL d   1     -39.988  15.594  20.959  0.00  0.00     0.009 A 
ATOM      5  C   UNL d   1     -40.695  15.595  20.530  0.00  0.00     0.031 A 
ATOM      6  C   UNL d   1     -39.883  15.922  21.709  0.00  0.00     0.001 C 
ATOM      7  C   UNL d   1     -41.416  15.922  20.774  0.00  0.00     0.007 C 
ENDROOT
BRANCH   1   8
ATOM      8  N   UNL d   1     -39.335  14.575  19.225  0.00  0.00    -0.201 NA
ATOM      9  C   UNL d   1     -39.604  14.540  18.450  0.00  0.00     0.282 C 
ATOM     10  O   UNL d   1     -40.311  14.906  18.245  0.00  0.00    -0.265 OA
BRANCH   9  11
ATOM     11  C   UNL d   1     -39.166  14.140  17.879  0.00  0.00     0.085 A 
ATOM     12  C   UNL d   1     -38.771  14.560  17.294  0.00  0.00     0.145 A 
ATOM     13  F   UNL d   1     -38.818  15.393  17.285  0.00  0.00    -0.204 F 
ATOM     14  C   UNL d   1     -38.334  14.160  16.723  0.00  0.00     0.030 A 
ATOM     15  C   UNL d   1     -38.291  13.339  16.737  0.00  0.00     0.002 A 
ATOM     16  C   UNL d   1     -38.688  12.916  17.324  0.00  0.00     0.000 A 
ATOM     17  C   UNL d   1     -39.125  13.316  17.895  0.00  0.00     0.007 A 
ENDBRANCH   9  11
ENDBRANCH   1   8
BRANCH   2  18
ATOM     18  C   UNL d   1     -38.625  15.080  20.716  0.00  0.00     0.082 C 
BRANCH  18  19
ATOM     19  N   UNL d   1     -38.433  14.494  21.258  0.00  0.00    -0.302 N 
ATOM     20  C   UNL d   1     -38.371  14.679  22.062  0.00  0.00     0.080 A 
ATOM     21  C   UNL d   1     -38.178  14.089  22.609  0.00  0.00     0.019 A 
ATOM     22  C   UNL d   1     -38.048  13.318  22.351  0.00  0.00     0.003 A 
ATOM     23  C   UNL d   1     -38.111  13.131  21.547  0.00  0.00     0.019 A 
ATOM     24  C   UNL d   1     -38.303  13.717  21.001  0.00  0.00     0.080 A 
ENDBRANCH  18  19
ENDBRANCH   2  18
TORSDOF 4
ENDMDL
MODEL 5
REMARK VINA RESULT:      -6.3      9.492     10.576
REMARK  4 active torsions:
REMARK  status: ('A' for Active; 'I' for Inactive)
REMARK    1  A    between atoms: N_5  and  C_1 
REMARK    2  A    between atoms: C_9  and  C_2 
REMARK       I    between atoms: C_6  and  N_5 
REMARK    3  A    between atoms: C_8  and  C_6 
REMARK    4  A    between atoms: N_10  and  C_9 
ROOT
ATOM      1  C   UNL d   1     -38.865  14.252  18.583  0.00  0.00     0.115 A 
ATOM      2  C   UNL d   1     -38.919  14.590  17.835  0.00  0.00     0.042 A 
ATOM      3  S   UNL d   1     -38.632  13.458  18.489  0.00  0.00    -0.068 SA
ATOM      4  C   UNL d   1     -38.721  14.013  17.281  0.00  0.00     0.009 A 
ATOM      5  C   UNL d   1     -38.546  13.318  17.694  0.00  0.00     0.031 A 
ATOM      6  C   UNL d   1     -38.698  14.099  16.461  0.00  0.00     0.001 C 
ATOM      7  C   UNL d   1     -38.319  12.593  17.363  0.00  0.00     0.007 C 
ENDROOT
BRANCH   1   8
ATOM      8  N   UNL d   1     -39.033  14.704  19.255  0.00  0.00    -0.201 NA
ATOM      9  C   UNL d   1     -38.870  14.406  20.003  0.00  0.00     0.282 C 
ATOM     10  O   UNL d   1     -38.539  13.657  20.081  0.00  0.00    -0.265 OA
BRANCH   9  11
ATOM     11  C   UNL d   1     -39.037  14.855  20.672  0.00  0.00     0.085 A 
ATOM     12  C   UNL d   1     -39.703  14.688  21.123  0.00  0.00     0.145 A 
ATOM     13  F   UNL d   1     -40.205  14.061  20.897  0.00  0.00    -0.204 F 
ATOM     14  C   UNL d   1     -39.870  15.137  21.792  0.00  0.00     0.030 A 
ATOM     15  C   UNL d   1     -39.372  15.753  22.010  0.00  0.00     0.002 A 
ATOM     16  C   UNL d   1     -38.703  15.922  21.557  0.00  0.00     0.000 A 
ATOM     17  C   UNL d   1     -38.536  15.473  20.888  0.00  0.00     0.007 A 
ENDBRANCH   9  11
ENDBRANCH   1   8
BRANCH   2  18
ATOM     18  C   UNL d   1     -39.134  15.377  17.668  0.00  0.00     0.082 C 
BRANCH  18  19
ATOM     19  N   UNL d   1     -39.878  15.545  17.365  0.00  0.00    -0.302 N 
ATOM     20  C   UNL d   1     -39.962  15.752  16.568  0.00  0.00     0.080 A 
ATOM     21  C   UNL d   1     -40.711  15.922  16.261  0.00  0.00     0.019 A 
ATOM     22  C   UNL d   1     -41.373  15.885  16.750  0.00  0.00     0.003 A 
ATOM     23  C   UNL d   1     -41.290  15.678  17.548  0.00  0.00     0.019 A 
ATOM     24  C   UNL d   1     -40.545  15.508  17.855  0.00  0.00     0.080 A 
ENDBRANCH  18  19
ENDBRANCH   2  18
TORSDOF 4
ENDMDL
MODEL 6
REMARK VINA RESULT:      -5.8      1.666      4.494
REMARK  4 active torsions:
REMARK  status: ('A' for Active; 'I' for Inactive)
REMARK    1  A    between atoms: N_5  and  C_1 
REMARK    2  A    between atoms: C_9  and  C_2 
REMARK       I    between atoms: C_6  and  N_5 
REMARK    3  A    between atoms: C_8  and  C_6 
REMARK    4  A    between atoms: N_10  and  C_9 
ROOT
ATOM      1  C   UNL d   1     -47.457  13.674  22.733  0.00  0.00     0.115 A 
ATOM      2  C   UNL d   1     -46.786  13.279  22.472  0.00  0.00     0.042 A 
ATOM      3  S   UNL d   1     -47.235  14.451  22.935  0.00  0.00    -0.068 SA
ATOM      4  C   UNL d   1     -46.151  13.804  22.511  0.00  0.00     0.009 A 
ATOM      5  C   UNL d   1     -46.439  14.524  22.797  0.00  0.00     0.031 A 
ATOM      6  C   UNL d   1     -45.367  13.650  22.304  0.00  0.00     0.001 C 
ATOM      7  C   UNL d   1     -45.997  15.213  22.926  0.00  0.00     0.007 C 
ENDROOT
BRANCH   1   8
ATOM      8  N   UNL d   1     -48.186  13.284  22.757  0.00  0.00    -0.201 NA
ATOM      9  C   UNL d   1     -48.885  13.716  22.775  0.00  0.00     0.282 C 
ATOM     10  O   UNL d   1     -48.857  14.537  22.770  0.00  0.00    -0.265 OA
BRANCH   9  11
ATOM     11  C   UNL d   1     -49.610  13.327  22.798  0.00  0.00     0.085 A 
ATOM     12  C   UNL d   1     -50.059  13.254  22.114  0.00  0.00     0.145 A 
ATOM     13  F   UNL d   1     -49.774  13.577  21.399  0.00  0.00    -0.204 F 
ATOM     14  C   UNL d   1     -50.784  12.865  22.138  0.00  0.00     0.030 A 
ATOM     15  C   UNL d   1     -51.060  12.549  22.844  0.00  0.00     0.002 A 
ATOM     16  C   UNL d   1     -50.609  12.622  23.532  0.00  0.00     0.000 A 
ATOM     17  C   UNL d   1     -49.884  13.011  23.509  0.00  0.00     0.007 A 
ENDBRANCH   9  11
ENDBRANCH   1   8
BRANCH   2  18
ATOM     18  C   UNL d   1     -46.753  12.488  22.215  0.00  0.00     0.082 C 
BRANCH  18  19
ATOM     19  N   UNL d   1     -46.437  11.908  22.703  0.00  0.00    -0.302 N 
ATOM     20  C   UNL d   1     -46.933  11.476  23.205  0.00  0.00     0.080 A 
ATOM     21  C   UNL d   1     -46.616  10.892  23.698  0.00  0.00     0.019 A 
ATOM     22  C   UNL d   1     -45.806  10.740  23.686  0.00  0.00     0.003 A 
ATOM     23  C   UNL d   1     -45.309  11.171  23.183  0.00  0.00     0.019 A 
ATOM     24  C   UNL d   1     -45.623  11.754  22.693  0.00  0.00     0.080 A 
ENDBRANCH  18  19
ENDBRANCH   2  18
TORSDOF 4
ENDMDL
MODEL 7
REMARK VINA RESULT:      -5.3      8.713     10.552
REMARK  4 active torsions:
REMARK  status: ('A' for Active; 'I' for Inactive)
REMARK    1  A    between atoms: N_5  and  C_1 
REMARK    2  A    between atoms: C_9  and  C_2 
REMARK       I    between atoms: C_6  and  N_5 
REMARK    3  A    between atoms: C_8  and  C_6 
REMARK    4  A    between atoms: N_10  and  C_9 
ROOT
ATOM      1  C   UNL d   1     -38.366  14.014  20.058  0.00  0.00     0.115 A 
ATOM      2  C   UNL d   1     -38.602  14.556  20.628  0.00  0.00     0.042 A 
ATOM      3  S   UNL d   1     -38.089  13.334  20.451  0.00  0.00    -0.068 SA
ATOM      4  C   UNL d   1     -38.473  14.218  21.369  0.00  0.00     0.009 A 
ATOM      5  C   UNL d   1     -38.156  13.464  21.249  0.00  0.00     0.031 A 
ATOM      6  C   UNL d   1     -38.628  14.560  22.104  0.00  0.00     0.001 C 
ATOM      7  C   UNL d   1     -37.940  12.923  21.837  0.00  0.00     0.007 C 
ENDROOT
BRANCH   1   8
ATOM      8  N   UNL d   1     -38.431  14.201  19.255  0.00  0.00    -0.201 NA
ATOM      9  C   UNL d   1     -38.219  13.649  18.685  0.00  0.00     0.282 C 
ATOM     10  O   UNL d   1     -37.942  12.910  18.914  0.00  0.00    -0.265 OA
BRANCH   9  11
ATOM     11  C   UNL d   1     -38.284  13.836  17.886  0.00  0.00     0.085 A 
ATOM     12  C   UNL d   1     -38.687  13.332  17.378  0.00  0.00     0.145 A 
ATOM     13  F   UNL d   1     -39.029  12.633  17.679  0.00  0.00    -0.204 F 
ATOM     14  C   UNL d   1     -38.752  13.518  16.579  0.00  0.00     0.030 A 
ATOM     15  C   UNL d   1     -38.413  14.208  16.288  0.00  0.00     0.002 A 
ATOM     16  C   UNL d   1     -38.008  14.715  16.798  0.00  0.00     0.000 A 
ATOM     17  C   UNL d   1     -37.943  14.529  17.597  0.00  0.00     0.007 A 
ENDBRANCH   9  11
ENDBRANCH   1   8
BRANCH   2  18
ATOM     18  C   UNL d   1     -38.916  15.313  20.483  0.00  0.00     0.082 C 
BRANCH  18  19
ATOM     19  N   UNL d   1     -39.720  15.453  20.582  0.00  0.00    -0.302 N 
ATOM     20  C   UNL d   1     -40.249  15.264  19.975  0.00  0.00     0.080 A 
ATOM     21  C   UNL d   1     -41.059  15.404  20.073  0.00  0.00     0.019 A 
ATOM     22  C   UNL d   1     -41.335  15.732  20.776  0.00  0.00     0.003 A 
ATOM     23  C   UNL d   1     -40.807  15.922  21.384  0.00  0.00     0.019 A 
ATOM     24  C   UNL d   1     -40.000  15.783  21.288  0.00  0.00     0.080 A 
ENDBRANCH  18  19
ENDBRANCH   2  18
TORSDOF 4
ENDMDL
MODEL 8
REMARK VINA RESULT:      -5.2      1.404      3.811
REMARK  4 active torsions:
REMARK  status: ('A' for Active; 'I' for Inactive)
REMARK    1  A    between atoms: N_5  and  C_1 
REMARK    2  A    between atoms: C_9  and  C_2 
REMARK       I    between atoms: C_6  and  N_5 
REMARK    3  A    between atoms: C_8  and  C_6 
REMARK    4  A    between atoms: N_10  and  C_9 
ROOT
ATOM      1  C   UNL d   1     -48.395  12.663  23.479  0.00  0.00     0.115 A 
ATOM      2  C   UNL d   1     -47.577  12.592  23.529  0.00  0.00     0.042 A 
ATOM      3  S   UNL d   1     -48.723  11.900  23.536  0.00  0.00    -0.068 SA
ATOM      4  C   UNL d   1     -47.398  11.792  23.615  0.00  0.00     0.009 A 
ATOM      5  C   UNL d   1     -48.111  11.373  23.618  0.00  0.00     0.031 A 
ATOM      6  C   UNL d   1     -46.647  11.457  23.686  0.00  0.00     0.001 C 
ATOM      7  C   UNL d   1     -48.199  10.553  23.692  0.00  0.00     0.007 C 
ENDROOT
BRANCH   1   8
ATOM      8  N   UNL d   1     -48.741  13.409  23.390  0.00  0.00    -0.201 NA
ATOM      9  C   UNL d   1     -49.545  13.474  23.234  0.00  0.00     0.282 C 
ATOM     10  O   UNL d   1     -50.004  12.796  23.167  0.00  0.00    -0.265 OA
BRANCH   9  11
ATOM     11  C   UNL d   1     -49.889  14.216  23.144  0.00  0.00     0.085 A 
ATOM     12  C   UNL d   1     -50.400  14.359  22.518  0.00  0.00     0.145 A 
ATOM     13  F   UNL d   1     -50.566  13.747  21.975  0.00  0.00    -0.204 F 
ATOM     14  C   UNL d   1     -50.745  15.101  22.429  0.00  0.00     0.030 A 
ATOM     15  C   UNL d   1     -50.578  15.700  22.966  0.00  0.00     0.002 A 
ATOM     16  C   UNL d   1     -50.065  15.557  23.596  0.00  0.00     0.000 A 
ATOM     17  C   UNL d   1     -49.721  14.815  23.685  0.00  0.00     0.007 A 
ENDBRANCH   9  11
ENDBRANCH   1   8
BRANCH   2  18
ATOM     18  C   UNL d   1     -47.028  13.217  23.497  0.00  0.00     0.082 C 
BRANCH  18  19
ATOM     19  N   UNL d   1     -46.503  13.273  22.868  0.00  0.00    -0.302 N 
ATOM     20  C   UNL d   1     -45.693  13.362  23.015  0.00  0.00     0.080 A 
ATOM     21  C   UNL d   1     -45.162  13.419  22.382  0.00  0.00     0.019 A 
ATOM     22  C   UNL d   1     -45.442  13.386  21.608  0.00  0.00     0.003 A 
ATOM     23  C   UNL d   1     -46.252  13.297  21.461  0.00  0.00     0.019 A 
ATOM     24  C   UNL d   1     -46.781  13.240  22.089  0.00  0.00     0.080 A 
ENDBRANCH  18  19
ENDBRANCH   2  18
TORSDOF 4
ENDMDL
MODEL 9
REMARK VINA RESULT:      -5.1      1.335      3.448
REMARK  4 active torsions:
REMARK  status: ('A' for Active; 'I' for Inactive)
REMARK    1  A    between atoms: N_5  and  C_1 
REMARK    2  A    between atoms: C_9  and  C_2 
REMARK       I    between atoms: C_6  and  N_5 
REMARK    3  A    between atoms: C_8  and  C_6 
REMARK    4  A    between atoms: N_10  and  C_9 
ROOT
ATOM      1  C   UNL d   1     -47.309  12.999  22.671  0.00  0.00     0.115 A 
ATOM      2  C   UNL d   1     -46.990  13.722  22.895  0.00  0.00     0.042 A 
ATOM      3  S   UNL d   1     -46.723  12.578  22.256  0.00  0.00    -0.068 SA
ATOM      4  C   UNL d   1     -46.212  13.751  22.623  0.00  0.00     0.009 A 
ATOM      5  C   UNL d   1     -46.057  13.041  22.230  0.00  0.00     0.031 A 
ATOM      6  C   UNL d   1     -45.676  14.371  22.719  0.00  0.00     0.001 C 
ATOM      7  C   UNL d   1     -45.345  12.826  21.866  0.00  0.00     0.007 C 
ENDROOT
BRANCH   1   8
ATOM      8  N   UNL d   1     -48.090  12.811  22.869  0.00  0.00    -0.201 NA
ATOM      9  C   UNL d   1     -48.441  12.134  22.565  0.00  0.00     0.282 C 
ATOM     10  O   UNL d   1     -48.014  11.643  22.062  0.00  0.00    -0.265 OA
BRANCH   9  11
ATOM     11  C   UNL d   1     -49.218  11.947  22.762  0.00  0.00     0.085 A 
ATOM     12  C   UNL d   1     -49.823  12.084  22.224  0.00  0.00     0.145 A 
ATOM     13  F   UNL d   1     -49.642  12.413  21.479  0.00  0.00    -0.204 F 
ATOM     14  C   UNL d   1     -50.600  11.897  22.421  0.00  0.00     0.030 A 
ATOM     15  C   UNL d   1     -50.771  11.573  23.157  0.00  0.00     0.002 A 
ATOM     16  C   UNL d   1     -50.164  11.434  23.698  0.00  0.00     0.000 A 
ATOM     17  C   UNL d   1     -49.387  11.621  23.501  0.00  0.00     0.007 A 
ENDBRANCH   9  11
ENDBRANCH   1   8
BRANCH   2  18
ATOM     18  C   UNL d   1     -47.382  14.319  23.322  0.00  0.00     0.082 C 
BRANCH  18  19
ATOM     19  N   UNL d   1     -47.895  14.832  22.938  0.00  0.00    -0.302 N 
ATOM     20  C   UNL d   1     -48.632  15.007  23.273  0.00  0.00     0.080 A 
ATOM     21  C   UNL d   1     -49.150  15.524  22.887  0.00  0.00     0.019 A 
ATOM     22  C   UNL d   1     -48.931  15.863  22.169  0.00  0.00     0.003 A 
ATOM     23  C   UNL d   1     -48.194  15.690  21.833  0.00  0.00     0.019 A 
ATOM     24  C   UNL d   1     -47.677  15.175  22.216  0.00  0.00     0.080 A 
ENDBRANCH  18  19
ENDBRANCH   2  18
TORSDOF 4
ENDMDL
