MODEL 1
REMARK VINA RESULT:      -6.0      0.000      0.000
REMARK  4 active torsions:
REMARK  status: ('A' for Active; 'I' for Inactive)
REMARK    1  A    between atoms: C_2  and  C_1 
REMARK    2  A    between atoms: C_11  and  N_5 
REMARK    3  A    between atoms: C_14  and  C_11 
REMARK    4  A    between atoms: C_17  and  C_14 
ROOT
ATOM      1  C   UNL d   1     -41.481-122.305 -52.140  0.00  0.00     0.112 A 
ATOM      2  C   UNL d   1     -41.583-122.958 -51.661  0.00  0.00     0.176 A 
ATOM      3  N   UNL d   1     -41.441-122.722 -50.876  0.00  0.00    -0.285 N 
ATOM      4  C   UNL d   1     -41.278-121.665 -51.665  0.00  0.00     0.219 A 
ATOM      5  C   UNL d   1     -41.256-121.931 -50.887  0.00  0.00     0.124 A 
ATOM      6  O   UNL d   1     -41.123-120.896 -51.912  0.00  0.00    -0.285 OA
ATOM      7  N   UNL d   1     -41.793-123.728 -51.907  0.00  0.00    -0.128 N 
ENDROOT
BRANCH   1   8
ATOM      8  C   UNL d   1     -41.576-122.323 -52.964  0.00  0.00     0.169 A 
ATOM      9  N   UNL d   1     -41.139-122.686 -53.558  0.00  0.00    -0.225 NA
ATOM     10  C   UNL d   1     -41.499-122.510 -54.279  0.00  0.00     0.101 A 
ATOM     11  C   UNL d   1     -41.312-122.719 -55.052  0.00  0.00     0.021 A 
ATOM     12  C   UNL d   1     -42.158-122.038 -54.125  0.00  0.00     0.101 A 
ATOM     13  C   UNL d   1     -41.784-122.455 -55.678  0.00  0.00     0.002 A 
ATOM     14  C   UNL d   1     -42.444-121.982 -55.524  0.00  0.00     0.002 A 
ATOM     15  C   UNL d   1     -42.630-121.773 -54.746  0.00  0.00     0.021 A 
ATOM     16  N   UNL d   1     -42.201-121.925 -53.311  0.00  0.00    -0.225 NA
ENDBRANCH   1   8
BRANCH   3  17
ATOM     17  C   UNL d   1     -41.482-123.204 -50.206  0.00  0.00     0.082 C 
BRANCH  17  18
ATOM     18  C   UNL d   1     -41.734-122.892 -49.485  0.00  0.00     0.019 C 
BRANCH  18  19
ATOM     19  C   UNL d   1     -41.859-123.386 -48.840  0.00  0.00     0.002 C 
ATOM     20  C   UNL d   1     -41.232-123.811 -48.512  0.00  0.00     0.000 C 
ATOM     21  C   UNL d   1     -42.617-123.458 -48.518  0.00  0.00     0.000 C 
ENDBRANCH  18  19
ENDBRANCH  17  18
ENDBRANCH   3  17
TORSDOF 4
ENDMDL
MODEL 2
REMARK VINA RESULT:      -5.6      0.656      4.581
REMARK  4 active torsions:
REMARK  status: ('A' for Active; 'I' for Inactive)
REMARK    1  A    between atoms: C_2  and  C_1 
REMARK    2  A    between atoms: C_11  and  N_5 
REMARK    3  A    between atoms: C_14  and  C_11 
REMARK    4  A    between atoms: C_17  and  C_14 
ROOT
ATOM      1  C   UNL d   1     -41.471-122.523 -51.299  0.00  0.00     0.112 A 
ATOM      2  C   UNL d   1     -41.529-122.998 -51.960  0.00  0.00     0.176 A 
ATOM      3  N   UNL d   1     -41.338-122.535 -52.624  0.00  0.00    -0.285 N 
ATOM      4  C   UNL d   1     -41.247-121.770 -51.542  0.00  0.00     0.219 A 
ATOM      5  C   UNL d   1     -41.167-121.787 -52.360  0.00  0.00     0.124 A 
ATOM      6  O   UNL d   1     -41.122-121.113 -51.062  0.00  0.00    -0.285 OA
ATOM      7  N   UNL d   1     -41.741-123.806 -51.974  0.00  0.00    -0.128 N 
ENDROOT
BRANCH   1   8
ATOM      8  C   UNL d   1     -41.621-122.791 -50.528  0.00  0.00     0.169 A 
ATOM      9  N   UNL d   1     -41.124-123.085 -49.944  0.00  0.00    -0.225 NA
ATOM     10  C   UNL d   1     -41.587-123.264 -49.286  0.00  0.00     0.101 A 
ATOM     11  C   UNL d   1     -41.397-123.570 -48.546  0.00  0.00     0.021 A 
ATOM     12  C   UNL d   1     -42.371-123.079 -49.468  0.00  0.00     0.101 A 
ATOM     13  C   UNL d   1     -41.991-123.694 -47.984  0.00  0.00     0.002 A 
ATOM     14  C   UNL d   1     -42.775-123.509 -48.167  0.00  0.00     0.002 A 
ATOM     15  C   UNL d   1     -42.964-123.201 -48.911  0.00  0.00     0.021 A 
ATOM     16  N   UNL d   1     -42.386-122.787 -50.237  0.00  0.00    -0.225 NA
ENDBRANCH   1   8
BRANCH   3  17
ATOM     17  C   UNL d   1     -41.325-122.790 -53.410  0.00  0.00     0.082 C 
BRANCH  17  18
ATOM     18  C   UNL d   1     -41.546-122.277 -54.016  0.00  0.00     0.019 C 
BRANCH  18  19
ATOM     19  C   UNL d   1     -41.571-122.540 -54.795  0.00  0.00     0.002 C 
ATOM     20  C   UNL d   1     -41.172-123.228 -55.015  0.00  0.00     0.000 C 
ATOM     21  C   UNL d   1     -41.999-122.114 -55.360  0.00  0.00     0.000 C 
ENDBRANCH  18  19
ENDBRANCH  17  18
ENDBRANCH   3  17
TORSDOF 4
ENDMDL
