MODEL 1
REMARK VINA RESULT:      -4.4      0.000      0.000
REMARK  4 active torsions:
REMARK  status: ('A' for Active; 'I' for Inactive)
REMARK    1  A    between atoms: C_9  and  N_1 
REMARK    2  A    between atoms: C_2  and  N_5 
REMARK    3  A    between atoms: N_5  and  O_12 
REMARK    4  A    between atoms: O_12  and  C_16 
ROOT
ATOM      1  N   UNL d   1      57.992   0.680  30.828  0.00  0.00    -0.126 NA
ENDROOT
BRANCH   1   2
ATOM      2  C   UNL d   1      58.613   0.680  30.285  0.00  0.00     0.108 A 
ATOM      3  C   UNL d   1      59.401   0.680  30.563  0.00  0.00     0.023 A 
ATOM      4  C   UNL d   1      60.006   0.681  30.034  0.00  0.00     0.044 A 
ATOM      5  C   UNL d   1      59.569   0.680  31.419  0.00  0.00     0.002 C 
ATOM      6  C   UNL d   1      59.843   0.681  29.209  0.00  0.00     0.196 A 
ATOM      7  C   UNL d   1      59.070   0.681  28.962  0.00  0.00     0.044 A 
ATOM      8  O   UNL d   1      60.464   0.682  28.666  0.00  0.00    -0.287 OA
ATOM      9  C   UNL d   1      58.448   0.681  29.505  0.00  0.00     0.023 A 
ATOM     10  C   UNL d   1      57.728   0.681  29.247  0.00  0.00     0.002 C 
ENDBRANCH   1   2
BRANCH   1  11
ATOM     11  O   UNL d   1      57.532   0.020  30.939  0.00  0.00    -0.211 OA
BRANCH  11  12
ATOM     12  C   UNL d   1      57.009  -0.026  31.554  0.00  0.00     0.125 A 
ATOM     13  C   UNL d   1      56.682   0.670  31.882  0.00  0.00     0.029 A 
ATOM     14  C   UNL d   1      56.148   0.622  32.509  0.00  0.00     0.026 A 
ATOM     15  C   UNL d   1      55.934  -0.121  32.817  0.00  0.00     0.127 A 
ATOM     16  C   UNL d   1      56.256  -0.807  32.494  0.00  0.00     0.026 A 
ATOM     17  C   UNL d   1      56.801  -0.759  31.854  0.00  0.00     0.029 A 
BRANCH  15  18
ATOM     18  N   UNL d   1      55.407  -0.168  33.436  0.00  0.00    -0.114 N 
ATOM     19  O   UNL d   1      54.699   0.248  33.495  0.00  0.00    -0.532 OA
ATOM     20  O   UNL d   1      55.514  -0.640  34.088  0.00  0.00    -0.532 OA
ENDBRANCH  15  18
ENDBRANCH  11  12
ENDBRANCH   1  11
TORSDOF 4
ENDMDL
MODEL 2
REMARK VINA RESULT:      -4.1      0.437      1.395
REMARK  4 active torsions:
REMARK  status: ('A' for Active; 'I' for Inactive)
REMARK    1  A    between atoms: C_9  and  N_1 
REMARK    2  A    between atoms: C_2  and  N_5 
REMARK    3  A    between atoms: N_5  and  O_12 
REMARK    4  A    between atoms: O_12  and  C_16 
ROOT
ATOM      1  N   UNL d   1      57.816   0.675  31.146  0.00  0.00    -0.126 NA
ENDROOT
BRANCH   1   2
ATOM      2  C   UNL d   1      58.405   0.677  30.567  0.00  0.00     0.108 A 
ATOM      3  C   UNL d   1      58.187   0.675  29.761  0.00  0.00     0.023 A 
ATOM      4  C   UNL d   1      58.760   0.677  29.197  0.00  0.00     0.044 A 
ATOM      5  C   UNL d   1      57.346   0.672  29.529  0.00  0.00     0.002 C 
ATOM      6  C   UNL d   1      59.570   0.680  29.422  0.00  0.00     0.196 A 
ATOM      7  C   UNL d   1      59.758   0.682  30.212  0.00  0.00     0.044 A 
ATOM      8  O   UNL d   1      60.159   0.682  28.844  0.00  0.00    -0.287 OA
ATOM      9  C   UNL d   1      59.169   0.680  30.791  0.00  0.00     0.023 A 
ATOM     10  C   UNL d   1      59.373   0.682  31.528  0.00  0.00     0.002 C 
ENDBRANCH   1   2
BRANCH   1  11
ATOM     11  O   UNL d   1      57.558  -0.018  31.480  0.00  0.00    -0.211 OA
BRANCH  11  12
ATOM     12  C   UNL d   1      56.981  -0.020  32.047  0.00  0.00     0.125 A 
ATOM     13  C   UNL d   1      56.579  -0.727  32.237  0.00  0.00     0.029 A 
ATOM     14  C   UNL d   1      55.991  -0.729  32.816  0.00  0.00     0.026 A 
ATOM     15  C   UNL d   1      55.797  -0.023  33.212  0.00  0.00     0.127 A 
ATOM     16  C   UNL d   1      56.193   0.675  33.025  0.00  0.00     0.026 A 
ATOM     17  C   UNL d   1      56.793   0.677  32.434  0.00  0.00     0.029 A 
BRANCH  15  18
ATOM     18  N   UNL d   1      55.216  -0.024  33.783  0.00  0.00    -0.114 N 
ATOM     19  O   UNL d   1      55.340  -0.101  34.593  0.00  0.00    -0.532 OA
ATOM     20  O   UNL d   1      54.424   0.052  33.623  0.00  0.00    -0.532 OA
ENDBRANCH  15  18
ENDBRANCH  11  12
ENDBRANCH   1  11
TORSDOF 4
ENDMDL
MODEL 3
REMARK VINA RESULT:      -3.5      1.452      4.608
REMARK  4 active torsions:
REMARK  status: ('A' for Active; 'I' for Inactive)
REMARK    1  A    between atoms: C_9  and  N_1 
REMARK    2  A    between atoms: C_2  and  N_5 
REMARK    3  A    between atoms: N_5  and  O_12 
REMARK    4  A    between atoms: O_12  and  C_16 
ROOT
ATOM      1  N   UNL d   1      57.020  -0.404  32.378  0.00  0.00    -0.126 NA
ENDROOT
BRANCH   1   2
ATOM      2  C   UNL d   1      56.562  -0.141  33.012  0.00  0.00     0.108 A 
ATOM      3  C   UNL d   1      56.891   0.398  33.560  0.00  0.00     0.023 A 
ATOM      4  C   UNL d   1      56.445   0.654  34.178  0.00  0.00     0.044 A 
ATOM      5  C   UNL d   1      57.711   0.682  33.465  0.00  0.00     0.002 C 
ATOM      6  C   UNL d   1      55.656   0.380  34.268  0.00  0.00     0.196 A 
ATOM      7  C   UNL d   1      55.358  -0.144  33.724  0.00  0.00     0.044 A 
ATOM      8  O   UNL d   1      55.199   0.643  34.903  0.00  0.00    -0.287 OA
ATOM      9  C   UNL d   1      55.816  -0.406  33.090  0.00  0.00     0.023 A 
ATOM     10  C   UNL d   1      55.511  -0.900  32.590  0.00  0.00     0.002 C 
ENDBRANCH   1   2
BRANCH   1  11
ATOM     11  O   UNL d   1      56.854  -0.174  31.617  0.00  0.00    -0.211 OA
BRANCH  11  12
ATOM     12  C   UNL d   1      57.383  -0.298  31.018  0.00  0.00     0.125 A 
ATOM     13  C   UNL d   1      57.597  -1.075  30.798  0.00  0.00     0.029 A 
ATOM     14  C   UNL d   1      58.137  -1.201  30.187  0.00  0.00     0.026 A 
ATOM     15  C   UNL d   1      58.471  -0.551  29.788  0.00  0.00     0.127 A 
ATOM     16  C   UNL d   1      58.260   0.216  30.005  0.00  0.00     0.026 A 
ATOM     17  C   UNL d   1      57.709   0.344  30.628  0.00  0.00     0.029 A 
BRANCH  15  18
ATOM     18  N   UNL d   1      59.003  -0.675  29.185  0.00  0.00    -0.114 N 
ATOM     19  O   UNL d   1      59.787  -0.423  29.178  0.00  0.00    -0.532 OA
ATOM     20  O   UNL d   1      58.827  -1.072  28.499  0.00  0.00    -0.532 OA
ENDBRANCH  15  18
ENDBRANCH  11  12
ENDBRANCH   1  11
TORSDOF 4
ENDMDL
MODEL 4
REMARK VINA RESULT:      -2.0      1.195      1.269
REMARK  4 active torsions:
REMARK  status: ('A' for Active; 'I' for Inactive)
REMARK    1  A    between atoms: C_9  and  N_1 
REMARK    2  A    between atoms: C_2  and  N_5 
REMARK    3  A    between atoms: N_5  and  O_12 
REMARK    4  A    between atoms: O_12  and  C_16 
ROOT
ATOM      1  N   UNL d   1      58.399  -0.316  30.943  0.00  0.00    -0.126 NA
ENDROOT
BRANCH   1   2
ATOM      2  C   UNL d   1      58.880  -0.562  30.319  0.00  0.00     0.108 A 
ATOM      3  C   UNL d   1      59.516  -0.078  30.077  0.00  0.00     0.023 A 
ATOM      4  C   UNL d   1      59.985  -0.317  29.470  0.00  0.00     0.044 A 
ATOM      5  C   UNL d   1      59.673   0.682  30.477  0.00  0.00     0.002 C 
ATOM      6  C   UNL d   1      59.833  -1.048  29.085  0.00  0.00     0.196 A 
ATOM      7  C   UNL d   1      59.209  -1.502  29.337  0.00  0.00     0.044 A 
ATOM      8  O   UNL d   1      60.315  -1.294  28.461  0.00  0.00    -0.287 OA
ATOM      9  C   UNL d   1      58.728  -1.256  29.961  0.00  0.00     0.023 A 
ATOM     10  C   UNL d   1      58.146  -1.703  30.180  0.00  0.00     0.002 C 
ENDBRANCH   1   2
BRANCH   1  11
ATOM     11  O   UNL d   1      57.591  -0.293  30.866  0.00  0.00    -0.211 OA
BRANCH  11  12
ATOM     12  C   UNL d   1      57.112  -0.186  31.509  0.00  0.00     0.125 A 
ATOM     13  C   UNL d   1      57.107   0.546  31.913  0.00  0.00     0.029 A 
ATOM     14  C   UNL d   1      56.619   0.655  32.569  0.00  0.00     0.026 A 
ATOM     15  C   UNL d   1      56.129   0.034  32.829  0.00  0.00     0.127 A 
ATOM     16  C   UNL d   1      56.133  -0.687  32.431  0.00  0.00     0.026 A 
ATOM     17  C   UNL d   1      56.631  -0.799  31.761  0.00  0.00     0.029 A 
BRANCH  15  18
ATOM     18  N   UNL d   1      55.647   0.143  33.477  0.00  0.00    -0.114 N 
ATOM     19  O   UNL d   1      55.857   0.530  34.172  0.00  0.00    -0.532 OA
ATOM     20  O   UNL d   1      54.881  -0.123  33.520  0.00  0.00    -0.532 OA
ENDBRANCH  15  18
ENDBRANCH  11  12
ENDBRANCH   1  11
TORSDOF 4
ENDMDL
