MODEL 1
REMARK VINA RESULT:      78.4      0.000      0.000
REMARK  6 active torsions:
REMARK  status: ('A' for Active; 'I' for Inactive)
REMARK    1  A    between atoms: C_3  and  C_1 
REMARK    2  A    between atoms: C_7  and  C_2 
REMARK       I    between atoms: N_5  and  C_3 
REMARK    3  A    between atoms: C_6  and  N_5 
REMARK    4  A    between atoms: N_10  and  C_6 
REMARK    5  A    between atoms: C_11  and  N_10 
REMARK    6  A    between atoms: O_18  and  C_15 
ROOT
ATOM      1  C   UNL d   1      60.954  48.942  50.658  0.00  0.00     0.285 C 
ATOM      2  N   UNL d   1      61.235  48.177  50.602  0.00  0.00    -0.179 NA
ATOM      3  O   UNL d   1      61.011  49.440  50.000  0.00  0.00    -0.265 OA
ENDROOT
BRANCH   1   4
ATOM      4  C   UNL d   1      60.617  49.229  51.345  0.00  0.00     0.103 A 
ATOM      5  C   UNL d   1      59.823  49.440  51.430  0.00  0.00     0.116 A 
ATOM      6  N   UNL d   1      59.717  49.699  52.203  0.00  0.00    -0.126 NA
ATOM      7  O   UNL d   1      60.441  49.649  52.596  0.00  0.00    -0.211 OA
ATOM      8  C   UNL d   1      60.983  49.361  52.064  0.00  0.00     0.131 A 
ATOM      9  C   UNL d   1      61.775  49.225  52.224  0.00  0.00     0.029 C 
BRANCH   5  10
ATOM     10  C   UNL d   1      59.244  49.399  50.848  0.00  0.00     0.031 A 
ATOM     11  C   UNL d   1      58.496  49.118  51.032  0.00  0.00     0.059 A 
ATOM     12 CL   UNL d   1      58.327  48.877  51.797  0.00  0.00    -0.082 Cl
ATOM     13  C   UNL d   1      57.925  49.079  50.450  0.00  0.00     0.011 A 
ATOM     14  C   UNL d   1      58.093  49.321  49.677  0.00  0.00     0.001 A 
ATOM     15  C   UNL d   1      58.845  49.602  49.501  0.00  0.00     0.000 A 
ATOM     16  C   UNL d   1      59.432  49.646  50.081  0.00  0.00     0.002 A 
ENDBRANCH   5  10
ENDBRANCH   1   4
BRANCH   2  17
ATOM     17  C   UNL d   1      61.571  47.890  49.915  0.00  0.00     0.224 C 
ATOM     18  S   UNL d   1      61.441  48.294  49.205  0.00  0.00    -0.037 SA
BRANCH  17  19
ATOM     19  N   UNL d   1      62.034  47.212  49.917  0.00  0.00    -0.215 NA
BRANCH  19  20
ATOM     20  C   UNL d   1      61.674  46.478  49.942  0.00  0.00     0.106 A 
ATOM     21  C   UNL d   1      61.945  45.867  49.442  0.00  0.00     0.112 A 
ATOM     22  C   UNL d   1      61.581  45.124  49.468  0.00  0.00     0.026 A 
ATOM     23  C   UNL d   1      60.953  44.990  49.986  0.00  0.00     0.002 A 
ATOM     24  C   UNL d   1      60.681  45.592  50.484  0.00  0.00     0.002 A 
ATOM     25  C   UNL d   1      61.042  46.336  50.461  0.00  0.00     0.021 A 
BRANCH  21  26
ATOM     26  O   UNL d   1      62.569  46.008  48.929  0.00  0.00    -0.327 OA
ATOM     27  C   UNL d   1      63.153  45.439  48.830  0.00  0.00     0.181 C 
ENDBRANCH  21  26
ENDBRANCH  19  20
ENDBRANCH  17  19
ENDBRANCH   2  17
TORSDOF 6
ENDMDL
