MODEL 1
REMARK VINA RESULT:      -5.7      0.000      0.000
REMARK  1 active torsions:
REMARK  status: ('A' for Active; 'I' for Inactive)
REMARK    1  A    between atoms: C_4  and  C_1 
ROOT
ATOM      1  C   UNL d   1     -41.746-122.548 -53.641  0.00  0.00     0.036 A 
ATOM      2  C   UNL d   1     -41.507-123.026 -54.276  0.00  0.00     0.061 A 
ATOM      3  C   UNL d   1     -42.127-121.841 -53.803  0.00  0.00     0.004 A 
ATOM      4  C   UNL d   1     -41.646-122.800 -55.044  0.00  0.00     0.023 A 
ATOM      5  C   UNL d   1     -42.033-122.083 -55.196  0.00  0.00     0.059 A 
ATOM      6 CL   UNL d   1     -41.125-123.734 -54.114  0.00  0.00    -0.082 Cl
ATOM      7  C   UNL d   1     -42.272-121.606 -54.584  0.00  0.00     0.011 A 
ATOM      8 CL   UNL d   1     -42.170-121.862 -55.974  0.00  0.00    -0.082 Cl
ENDROOT
BRANCH   1   9
ATOM      9  C   UNL d   1     -41.607-122.770 -52.858  0.00  0.00     0.136 A 
ATOM     10  S   UNL d   1     -41.406-122.273 -52.231  0.00  0.00    -0.024 SA
ATOM     11  C   UNL d   1     -41.321-122.729 -51.549  0.00  0.00     0.236 A 
ATOM     12  N   UNL d   1     -41.123-122.459 -50.795  0.00  0.00    -0.118 N 
ATOM     13  N   UNL d   1     -41.472-123.532 -51.750  0.00  0.00    -0.119 NA
ATOM     14  N   UNL d   1     -41.648-123.557 -52.556  0.00  0.00    -0.139 NA
ENDBRANCH   1   9
TORSDOF 1
ENDMDL
MODEL 2
REMARK VINA RESULT:      -5.2      1.936      3.421
REMARK  1 active torsions:
REMARK  status: ('A' for Active; 'I' for Inactive)
REMARK    1  A    between atoms: C_4  and  C_1 
ROOT
ATOM      1  C   UNL d   1     -41.402-122.779 -52.308  0.00  0.00     0.036 A 
ATOM      2  C   UNL d   1     -41.218-122.202 -51.742  0.00  0.00     0.061 A 
ATOM      3  C   UNL d   1     -41.493-123.556 -52.063  0.00  0.00     0.004 A 
ATOM      4  C   UNL d   1     -41.129-122.399 -50.958  0.00  0.00     0.023 A 
ATOM      5  C   UNL d   1     -41.223-123.188 -50.722  0.00  0.00     0.059 A 
ATOM      6 CL   UNL d   1     -41.127-121.424 -51.987  0.00  0.00    -0.082 Cl
ATOM      7  C   UNL d   1     -41.403-123.763 -51.266  0.00  0.00     0.011 A 
ATOM      8 CL   UNL d   1     -41.132-123.380 -49.930  0.00  0.00    -0.082 Cl
ENDROOT
BRANCH   1   9
ATOM      9  C   UNL d   1     -41.494-122.587 -53.106  0.00  0.00     0.136 A 
ATOM     10  S   UNL d   1     -41.126-122.951 -53.749  0.00  0.00    -0.024 SA
ATOM     11  C   UNL d   1     -41.378-122.582 -54.442  0.00  0.00     0.236 A 
ATOM     12  N   UNL d   1     -41.150-122.768 -55.213  0.00  0.00    -0.118 N 
ATOM     13  N   UNL d   1     -41.916-121.971 -54.232  0.00  0.00    -0.119 NA
ATOM     14  N   UNL d   1     -41.988-121.974 -53.410  0.00  0.00    -0.139 NA
ENDBRANCH   1   9
TORSDOF 1
ENDMDL
MODEL 3
REMARK VINA RESULT:      -5.1      3.060      4.796
REMARK  1 active torsions:
REMARK  status: ('A' for Active; 'I' for Inactive)
REMARK    1  A    between atoms: C_4  and  C_1 
ROOT
ATOM      1  C   UNL d   1     -41.818-123.094 -49.655  0.00  0.00     0.036 A 
ATOM      2  C   UNL d   1     -42.535-122.894 -49.290  0.00  0.00     0.061 A 
ATOM      3  C   UNL d   1     -41.196-123.349 -49.185  0.00  0.00     0.004 A 
ATOM      4  C   UNL d   1     -42.624-122.947 -48.484  0.00  0.00     0.023 A 
ATOM      5  C   UNL d   1     -41.989-123.205 -48.019  0.00  0.00     0.059 A 
ATOM      6 CL   UNL d   1     -43.158-122.639 -49.760  0.00  0.00    -0.082 Cl
ATOM      7  C   UNL d   1     -41.280-123.405 -48.362  0.00  0.00     0.011 A 
ATOM      8 CL   UNL d   1     -42.085-123.257 -47.206  0.00  0.00    -0.082 Cl
ENDROOT
BRANCH   1   9
ATOM      9  C   UNL d   1     -41.720-123.043 -50.472  0.00  0.00     0.136 A 
ATOM     10  S   UNL d   1     -41.387-122.415 -50.893  0.00  0.00    -0.024 SA
ATOM     11  C   UNL d   1     -41.401-122.599 -51.697  0.00  0.00     0.236 A 
ATOM     12  N   UNL d   1     -41.125-122.129 -52.316  0.00  0.00    -0.118 N 
ATOM     13  N   UNL d   1     -41.750-123.358 -51.786  0.00  0.00    -0.119 NA
ATOM     14  N   UNL d   1     -41.947-123.632 -51.033  0.00  0.00    -0.139 NA
ENDBRANCH   1   9
TORSDOF 1
ENDMDL
MODEL 4
REMARK VINA RESULT:      -4.9      1.726      2.491
REMARK  1 active torsions:
REMARK  status: ('A' for Active; 'I' for Inactive)
REMARK    1  A    between atoms: C_4  and  C_1 
ROOT
ATOM      1  C   UNL d   1     -41.529-123.025 -51.553  0.00  0.00     0.036 A 
ATOM      2  C   UNL d   1     -41.444-122.319 -51.981  0.00  0.00     0.061 A 
ATOM      3  C   UNL d   1     -41.476-123.737 -51.955  0.00  0.00     0.004 A 
ATOM      4  C   UNL d   1     -41.311-122.330 -52.783  0.00  0.00     0.023 A 
ATOM      5  C   UNL d   1     -41.259-123.056 -53.179  0.00  0.00     0.059 A 
ATOM      6 CL   UNL d   1     -41.498-121.606 -51.579  0.00  0.00    -0.082 Cl
ATOM      7  C   UNL d   1     -41.340-123.755 -52.773  0.00  0.00     0.011 A 
ATOM      8 CL   UNL d   1     -41.124-123.060 -53.988  0.00  0.00    -0.082 Cl
ENDROOT
BRANCH   1   9
ATOM      9  C   UNL d   1     -41.665-123.022 -50.739  0.00  0.00     0.136 A 
ATOM     10  S   UNL d   1     -41.125-123.217 -50.146  0.00  0.00    -0.024 SA
ATOM     11  C   UNL d   1     -41.496-123.138 -49.414  0.00  0.00     0.236 A 
ATOM     12  N   UNL d   1     -41.162-123.276 -48.673  0.00  0.00    -0.118 N 
ATOM     13  N   UNL d   1     -42.288-122.887 -49.547  0.00  0.00    -0.119 NA
ATOM     14  N   UNL d   1     -42.392-122.816 -50.363  0.00  0.00    -0.139 NA
ENDBRANCH   1   9
TORSDOF 1
ENDMDL
MODEL 5
REMARK VINA RESULT:      -4.0      1.118      1.284
REMARK  1 active torsions:
REMARK  status: ('A' for Active; 'I' for Inactive)
REMARK    1  A    between atoms: C_4  and  C_1 
ROOT
ATOM      1  C   UNL d   1     -41.604-122.432 -52.659  0.00  0.00     0.036 A 
ATOM      2  C   UNL d   1     -41.359-123.123 -53.047  0.00  0.00     0.061 A 
ATOM      3  C   UNL d   1     -41.708-121.749 -53.100  0.00  0.00     0.004 A 
ATOM      4  C   UNL d   1     -41.224-123.127 -53.848  0.00  0.00     0.023 A 
ATOM      5  C   UNL d   1     -41.332-122.431 -54.284  0.00  0.00     0.059 A 
ATOM      6 CL   UNL d   1     -41.255-123.807 -52.605  0.00  0.00    -0.082 Cl
ATOM      7  C   UNL d   1     -41.572-121.747 -53.918  0.00  0.00     0.011 A 
ATOM      8 CL   UNL d   1     -41.194-122.442 -55.093  0.00  0.00    -0.082 Cl
ENDROOT
BRANCH   1   9
ATOM      9  C   UNL d   1     -41.744-122.420 -51.846  0.00  0.00     0.136 A 
ATOM     10  S   UNL d   1     -41.184-122.511 -51.246  0.00  0.00    -0.024 SA
ATOM     11  C   UNL d   1     -41.567-122.461 -50.517  0.00  0.00     0.236 A 
ATOM     12  N   UNL d   1     -41.221-122.522 -49.771  0.00  0.00    -0.118 N 
ATOM     13  N   UNL d   1     -42.386-122.336 -50.660  0.00  0.00    -0.119 NA
ATOM     14  N   UNL d   1     -42.495-122.310 -51.477  0.00  0.00    -0.139 NA
ENDBRANCH   1   9
TORSDOF 1
ENDMDL
