MODEL 1
REMARK VINA RESULT:      -7.9      0.000      0.000
REMARK  5 active torsions:
REMARK  status: ('A' for Active; 'I' for Inactive)
REMARK    1  A    between atoms: N_3  and  C_1 
REMARK       I    between atoms: C_9  and  N_3 
REMARK    2  A    between atoms: C_12  and  C_7 
REMARK    3  A    between atoms: C_17  and  C_9 
REMARK    4  A    between atoms: C_11  and  S_14 
REMARK    5  A    between atoms: S_14  and  C_17 
ROOT
ATOM      1  N   UNL d   1      51.583  33.134  53.620  0.00  0.00    -0.146 NA
ATOM      2  N   UNL d   1      50.872  33.438  53.333  0.00  0.00    -0.141 NA
ATOM      3  C   UNL d   1      52.297  33.516  53.448  0.00  0.00     0.121 A 
ATOM      4  C   UNL d   1      50.864  34.117  52.877  0.00  0.00     0.133 A 
ATOM      5  C   UNL d   1      52.293  34.203  52.988  0.00  0.00     0.025 A 
ATOM      6  C   UNL d   1      51.582  34.504  52.702  0.00  0.00     0.029 A 
ENDROOT
BRANCH   4   7
ATOM      7  S   UNL d   1      50.153  34.422  52.590  0.00  0.00    -0.061 SA
BRANCH   7   8
ATOM      8  C   UNL d   1      49.706  34.936  53.046  0.00  0.00     0.099 C 
BRANCH   8   9
ATOM      9  C   UNL d   1      48.965  35.182  52.775  0.00  0.00     0.288 C 
ATOM     10  N   UNL d   1      48.506  35.691  53.233  0.00  0.00    -0.182 NA
ATOM     11  O   UNL d   1      48.682  34.920  52.050  0.00  0.00    -0.265 OA
BRANCH  10  12
ATOM     12  C   UNL d   1      47.767  35.943  52.974  0.00  0.00     0.197 A 
ATOM     13  N   UNL d   1      47.053  35.733  53.317  0.00  0.00    -0.221 NA
ATOM     14  C   UNL d   1      46.457  36.100  52.894  0.00  0.00     0.090 A 
ATOM     15  C   UNL d   1      45.643  36.046  53.043  0.00  0.00     0.021 C 
ATOM     16  C   UNL d   1      46.807  36.535  52.291  0.00  0.00     0.058 A 
ATOM     17  S   UNL d   1      47.615  36.437  52.342  0.00  0.00    -0.046 SA
ENDBRANCH  10  12
ENDBRANCH   8   9
ENDBRANCH   7   8
ENDBRANCH   4   7
BRANCH   3  18
ATOM     18  C   UNL d   1      53.007  33.211  53.735  0.00  0.00     0.101 A 
ATOM     19  N   UNL d   1      53.342  33.530  54.405  0.00  0.00    -0.242 NA
ATOM     20  C   UNL d   1      54.047  33.230  54.693  0.00  0.00     0.099 A 
ATOM     21  C   UNL d   1      54.420  32.599  54.300  0.00  0.00     0.021 A 
ATOM     22  C   UNL d   1      54.080  32.281  53.627  0.00  0.00     0.003 A 
ATOM     23  C   UNL d   1      53.368  32.580  53.333  0.00  0.00     0.021 A 
ENDBRANCH   3  18
TORSDOF 5
ENDMDL
MODEL 2
REMARK VINA RESULT:      -7.0      1.444      6.008
REMARK  5 active torsions:
REMARK  status: ('A' for Active; 'I' for Inactive)
REMARK    1  A    between atoms: N_3  and  C_1 
REMARK       I    between atoms: C_9  and  N_3 
REMARK    2  A    between atoms: C_12  and  C_7 
REMARK    3  A    between atoms: C_17  and  C_9 
REMARK    4  A    between atoms: C_11  and  S_14 
REMARK    5  A    between atoms: S_14  and  C_17 
ROOT
ATOM      1  N   UNL d   1      48.870  35.251  52.815  0.00  0.00    -0.146 NA
ATOM      2  N   UNL d   1      49.623  34.933  52.927  0.00  0.00    -0.141 NA
ATOM      3  C   UNL d   1      48.493  35.176  52.082  0.00  0.00     0.121 A 
ATOM      4  C   UNL d   1      50.004  34.541  52.319  0.00  0.00     0.133 A 
ATOM      5  C   UNL d   1      48.875  34.781  51.464  0.00  0.00     0.025 A 
ATOM      6  C   UNL d   1      49.626  34.464  51.579  0.00  0.00     0.029 A 
ENDROOT
BRANCH   4   7
ATOM      7  S   UNL d   1      50.757  34.223  52.431  0.00  0.00    -0.061 SA
BRANCH   7   8
ATOM      8  C   UNL d   1      51.060  34.129  53.187  0.00  0.00     0.099 C 
BRANCH   8   9
ATOM      9  C   UNL d   1      51.863  33.955  53.285  0.00  0.00     0.288 C 
ATOM     10  N   UNL d   1      52.102  33.426  53.870  0.00  0.00    -0.182 NA
ATOM     11  O   UNL d   1      52.424  34.308  52.801  0.00  0.00    -0.265 OA
BRANCH  10  12
ATOM     12  C   UNL d   1      52.897  33.245  53.977  0.00  0.00     0.197 A 
ATOM     13  N   UNL d   1      53.380  33.575  54.550  0.00  0.00    -0.221 NA
ATOM     14  C   UNL d   1      54.125  33.247  54.467  0.00  0.00     0.090 A 
ATOM     15  C   UNL d   1      54.792  33.417  54.928  0.00  0.00     0.021 C 
ATOM     16  C   UNL d   1      54.096  32.714  53.842  0.00  0.00     0.058 A 
ATOM     17  S   UNL d   1      53.338  32.714  53.540  0.00  0.00    -0.046 SA
ENDBRANCH  10  12
ENDBRANCH   8   9
ENDBRANCH   7   8
ENDBRANCH   4   7
BRANCH   3  18
ATOM     18  C   UNL d   1      47.741  35.494  51.971  0.00  0.00     0.101 A 
ATOM     19  N   UNL d   1      47.235  35.156  51.431  0.00  0.00    -0.242 NA
ATOM     20  C   UNL d   1      46.488  35.469  51.318  0.00  0.00     0.099 A 
ATOM     21  C   UNL d   1      46.247  36.134  51.755  0.00  0.00     0.021 A 
ATOM     22  C   UNL d   1      46.758  36.472  52.297  0.00  0.00     0.003 A 
ATOM     23  C   UNL d   1      47.514  36.159  52.415  0.00  0.00     0.021 A 
ENDBRANCH   3  18
TORSDOF 5
ENDMDL
MODEL 3
REMARK VINA RESULT:      -6.2      2.276      6.029
REMARK  5 active torsions:
REMARK  status: ('A' for Active; 'I' for Inactive)
REMARK    1  A    between atoms: N_3  and  C_1 
REMARK       I    between atoms: C_9  and  N_3 
REMARK    2  A    between atoms: C_12  and  C_7 
REMARK    3  A    between atoms: C_17  and  C_9 
REMARK    4  A    between atoms: C_11  and  S_14 
REMARK    5  A    between atoms: S_14  and  C_17 
ROOT
ATOM      1  N   UNL d   1      49.955  34.108  53.279  0.00  0.00    -0.146 NA
ATOM      2  N   UNL d   1      50.658  33.711  53.453  0.00  0.00    -0.141 NA
ATOM      3  C   UNL d   1      49.882  34.529  52.569  0.00  0.00     0.121 A 
ATOM      4  C   UNL d   1      51.287  33.729  52.930  0.00  0.00     0.133 A 
ATOM      5  C   UNL d   1      50.515  34.549  52.038  0.00  0.00     0.025 A 
ATOM      6  C   UNL d   1      51.215  34.152  52.215  0.00  0.00     0.029 A 
ENDROOT
BRANCH   4   7
ATOM      7  S   UNL d   1      51.989  33.333  53.104  0.00  0.00    -0.061 SA
BRANCH   7   8
ATOM      8  C   UNL d   1      52.200  32.659  52.687  0.00  0.00     0.099 C 
BRANCH   8   9
ATOM      9  C   UNL d   1      52.640  32.068  53.064  0.00  0.00     0.288 C 
ATOM     10  N   UNL d   1      52.559  31.282  52.832  0.00  0.00    -0.182 NA
ATOM     11  O   UNL d   1      53.158  32.262  53.670  0.00  0.00    -0.265 OA
BRANCH  10  12
ATOM     12  C   UNL d   1      52.991  30.685  53.198  0.00  0.00     0.197 A 
ATOM     13  N   UNL d   1      52.673  30.105  53.682  0.00  0.00    -0.221 NA
ATOM     14  C   UNL d   1      53.287  29.626  53.931  0.00  0.00     0.090 A 
ATOM     15  C   UNL d   1      53.225  28.966  54.429  0.00  0.00     0.021 C 
ATOM     16  C   UNL d   1      53.981  29.914  53.599  0.00  0.00     0.058 A 
ATOM     17  S   UNL d   1      53.797  30.567  53.147  0.00  0.00    -0.046 SA
ENDBRANCH  10  12
ENDBRANCH   8   9
ENDBRANCH   7   8
ENDBRANCH   4   7
BRANCH   3  18
ATOM     18  C   UNL d   1      49.180  34.924  52.396  0.00  0.00     0.101 A 
ATOM     19  N   UNL d   1      48.852  35.426  52.946  0.00  0.00    -0.242 NA
ATOM     20  C   UNL d   1      48.156  35.821  52.777  0.00  0.00     0.099 A 
ATOM     21  C   UNL d   1      47.783  35.708  52.042  0.00  0.00     0.021 A 
ATOM     22  C   UNL d   1      48.116  35.202  51.491  0.00  0.00     0.003 A 
ATOM     23  C   UNL d   1      48.819  34.802  51.657  0.00  0.00     0.021 A 
ENDBRANCH   3  18
TORSDOF 5
ENDMDL
MODEL 4
REMARK VINA RESULT:      -5.5     10.029     11.003
REMARK  5 active torsions:
REMARK  status: ('A' for Active; 'I' for Inactive)
REMARK    1  A    between atoms: N_3  and  C_1 
REMARK       I    between atoms: C_9  and  N_3 
REMARK    2  A    between atoms: C_12  and  C_7 
REMARK    3  A    between atoms: C_17  and  C_9 
REMARK    4  A    between atoms: C_11  and  S_14 
REMARK    5  A    between atoms: S_14  and  C_17 
ROOT
ATOM      1  N   UNL d   1      44.508  28.967  59.818  0.00  0.00    -0.146 NA
ATOM      2  N   UNL d   1      44.615  28.462  59.175  0.00  0.00    -0.141 NA
ATOM      3  C   UNL d   1      44.798  29.743  59.789  0.00  0.00     0.121 A 
ATOM      4  C   UNL d   1      45.008  28.718  58.505  0.00  0.00     0.133 A 
ATOM      5  C   UNL d   1      45.196  30.005  59.113  0.00  0.00     0.025 A 
ATOM      6  C   UNL d   1      45.301  29.498  58.473  0.00  0.00     0.029 A 
ENDROOT
BRANCH   4   7
ATOM      7  S   UNL d   1      45.115  28.212  57.862  0.00  0.00    -0.061 SA
BRANCH   7   8
ATOM      8  C   UNL d   1      45.180  27.402  57.977  0.00  0.00     0.099 C 
BRANCH   8   9
ATOM      9  C   UNL d   1      45.193  26.898  57.321  0.00  0.00     0.288 C 
ATOM     10  N   UNL d   1      44.657  26.275  57.269  0.00  0.00    -0.182 NA
ATOM     11  O   UNL d   1      45.741  27.016  56.720  0.00  0.00    -0.265 OA
BRANCH  10  12
ATOM     12  C   UNL d   1      44.660  25.767  56.622  0.00  0.00     0.197 A 
ATOM     13  N   UNL d   1      44.986  25.015  56.618  0.00  0.00    -0.221 NA
ATOM     14  C   UNL d   1      44.872  24.699  55.872  0.00  0.00     0.090 A 
ATOM     15  C   UNL d   1      45.111  23.949  55.613  0.00  0.00     0.021 C 
ATOM     16  C   UNL d   1      44.475  25.259  55.420  0.00  0.00     0.058 A 
ATOM     17  S   UNL d   1      44.345  25.917  55.884  0.00  0.00    -0.046 SA
ENDBRANCH  10  12
ENDBRANCH   8   9
ENDBRANCH   7   8
ENDBRANCH   4   7
BRANCH   3  18
ATOM     18  C   UNL d   1      44.691  30.247  60.431  0.00  0.00     0.101 A 
ATOM     19  N   UNL d   1      44.423  31.006  60.308  0.00  0.00    -0.242 NA
ATOM     20  C   UNL d   1      44.315  31.510  60.944  0.00  0.00     0.099 A 
ATOM     21  C   UNL d   1      44.480  31.246  61.715  0.00  0.00     0.021 A 
ATOM     22  C   UNL d   1      44.749  30.483  61.834  0.00  0.00     0.003 A 
ATOM     23  C   UNL d   1      44.859  29.970  61.196  0.00  0.00     0.021 A 
ENDBRANCH   3  18
TORSDOF 5
ENDMDL
MODEL 5
REMARK VINA RESULT:      -5.3     10.179     11.196
REMARK  5 active torsions:
REMARK  status: ('A' for Active; 'I' for Inactive)
REMARK    1  A    between atoms: N_3  and  C_1 
REMARK       I    between atoms: C_9  and  N_3 
REMARK    2  A    between atoms: C_12  and  C_7 
REMARK    3  A    between atoms: C_17  and  C_9 
REMARK    4  A    between atoms: C_11  and  S_14 
REMARK    5  A    between atoms: S_14  and  C_17 
ROOT
ATOM      1  N   UNL d   1      44.348  28.531  57.132  0.00  0.00    -0.146 NA
ATOM      2  N   UNL d   1      44.318  27.725  56.961  0.00  0.00    -0.141 NA
ATOM      3  C   UNL d   1      44.899  28.819  57.680  0.00  0.00     0.121 A 
ATOM      4  C   UNL d   1      44.828  27.202  57.328  0.00  0.00     0.133 A 
ATOM      5  C   UNL d   1      45.416  28.293  58.053  0.00  0.00     0.025 A 
ATOM      6  C   UNL d   1      45.383  27.489  57.881  0.00  0.00     0.029 A 
ENDROOT
BRANCH   4   7
ATOM      7  S   UNL d   1      44.798  26.395  57.157  0.00  0.00    -0.061 SA
BRANCH   7   8
ATOM      8  C   UNL d   1      44.789  26.135  56.380  0.00  0.00     0.099 C 
BRANCH   8   9
ATOM      9  C   UNL d   1      44.715  25.327  56.221  0.00  0.00     0.288 C 
ATOM     10  N   UNL d   1      45.043  25.009  55.536  0.00  0.00    -0.182 NA
ATOM     11  O   UNL d   1      44.314  24.838  56.746  0.00  0.00    -0.265 OA
BRANCH  10  12
ATOM     12  C   UNL d   1      44.976  24.207  55.367  0.00  0.00     0.197 A 
ATOM     13  N   UNL d   1      45.475  23.623  55.653  0.00  0.00    -0.221 NA
ATOM     14  C   UNL d   1      45.217  22.907  55.355  0.00  0.00     0.090 A 
ATOM     15  C   UNL d   1      45.555  22.164  55.497  0.00  0.00     0.021 C 
ATOM     16  C   UNL d   1      44.558  23.053  54.885  0.00  0.00     0.058 A 
ATOM     17  S   UNL d   1      44.410  23.855  54.894  0.00  0.00    -0.046 SA
ENDBRANCH  10  12
ENDBRANCH   8   9
ENDBRANCH   7   8
ENDBRANCH   4   7
BRANCH   3  18
ATOM     18  C   UNL d   1      44.929  29.624  57.850  0.00  0.00     0.101 A 
ATOM     19  N   UNL d   1      44.779  30.168  57.263  0.00  0.00    -0.242 NA
ATOM     20  C   UNL d   1      44.808  30.968  57.429  0.00  0.00     0.099 A 
ATOM     21  C   UNL d   1      44.991  31.226  58.198  0.00  0.00     0.021 A 
ATOM     22  C   UNL d   1      45.140  30.677  58.786  0.00  0.00     0.003 A 
ATOM     23  C   UNL d   1      45.112  29.867  58.624  0.00  0.00     0.021 A 
ENDBRANCH   3  18
TORSDOF 5
ENDMDL
