MODEL 1
REMARK VINA RESULT:      56.3      0.000      0.000
REMARK  4 active torsions:
REMARK  status: ('A' for Active; 'I' for Inactive)
REMARK    1  A    between atoms: C_6  and  C_1 
REMARK       I    between atoms: N_7  and  C_1 
REMARK    2  A    between atoms: N_3  and  C_5 
REMARK    3  A    between atoms: C_19  and  N_7 
REMARK    4  A    between atoms: C_8  and  C_10 
ROOT
ATOM      1  C   UNL d   1      44.728 -17.197  39.359  0.00  0.00     0.019 A 
ATOM      2  C   UNL d   1      44.178 -16.343  38.058  0.00  0.00     0.085 A 
ATOM      3  C   UNL d   1      44.401 -16.454  39.461  0.00  0.00     0.003 A 
ATOM      4  C   UNL d   1      44.782 -17.519  38.600  0.00  0.00     0.003 A 
ATOM      5  C   UNL d   1      44.126 -16.027  38.811  0.00  0.00     0.019 A 
ATOM      6  C   UNL d   1      44.507 -17.092  37.950  0.00  0.00     0.019 A 
ENDROOT
BRANCH   1   7
ATOM      7  C   UNL d   1      45.002 -17.624  40.009  0.00  0.00     0.103 A 
ATOM      8  N   UNL d   1      44.479 -18.066  40.463  0.00  0.00    -0.147 NA
ATOM      9  N   UNL d   1      44.753 -18.493  41.113  0.00  0.00    -0.130 NA
ATOM     10  C   UNL d   1      45.552 -18.478  41.309  0.00  0.00     0.169 A 
ATOM     11  C   UNL d   1      46.079 -18.035  40.854  0.00  0.00     0.041 A 
ATOM     12  C   UNL d   1      45.804 -17.608  40.204  0.00  0.00     0.024 A 
BRANCH  10  13
ATOM     13  N   UNL d   1      45.826 -18.906  41.960  0.00  0.00    -0.288 N 
ATOM     14  C   UNL d   1      45.598 -19.688  42.065  0.00  0.00     0.082 A 
ATOM     15  C   UNL d   1      45.873 -20.115  42.715  0.00  0.00     0.019 A 
ATOM     16  C   UNL d   1      46.376 -19.760  43.260  0.00  0.00     0.003 A 
ATOM     17  C   UNL d   1      46.605 -18.974  43.155  0.00  0.00     0.019 A 
ATOM     18  C   UNL d   1      46.646 -20.194  43.907  0.00  0.00     0.000 C 
ATOM     19  C   UNL d   1      46.331 -18.547  42.505  0.00  0.00     0.082 A 
ENDBRANCH  10  13
ENDBRANCH   1   7
BRANCH   2  20
ATOM     20  N   UNL d   1      43.904 -15.916  37.408  0.00  0.00    -0.206 NA
ATOM     21  C   UNL d   1      44.417 -15.433  36.984  0.00  0.00     0.302 C 
ATOM     22  O   UNL d   1      44.141 -15.004  36.331  0.00  0.00    -0.263 OA
BRANCH  21  23
ATOM     23  C   UNL d   1      45.209 -15.377  37.211  0.00  0.00     0.158 A 
ATOM     24  O   UNL d   1      45.799 -15.700  36.732  0.00  0.00    -0.300 OA
ATOM     25  C   UNL d   1      46.532 -15.560  37.097  0.00  0.00     0.123 A 
ATOM     26  C   UNL d   1      46.389 -15.152  37.799  0.00  0.00     0.029 A 
ATOM     27  C   UNL d   1      45.577 -15.042  37.864  0.00  0.00     0.032 A 
ENDBRANCH  21  23
ENDBRANCH   2  20
TORSDOF 4
ENDMDL
MODEL 2
REMARK VINA RESULT:      58.2      2.584      5.934
REMARK  4 active torsions:
REMARK  status: ('A' for Active; 'I' for Inactive)
REMARK    1  A    between atoms: C_6  and  C_1 
REMARK       I    between atoms: N_7  and  C_1 
REMARK    2  A    between atoms: N_3  and  C_5 
REMARK    3  A    between atoms: C_19  and  N_7 
REMARK    4  A    between atoms: C_8  and  C_10 
ROOT
ATOM      1  C   UNL d   1      45.834 -18.318  41.121  0.00  0.00     0.019 A 
ATOM      2  C   UNL d   1      46.375 -19.066  42.489  0.00  0.00     0.085 A 
ATOM      3  C   UNL d   1      46.309 -18.983  41.069  0.00  0.00     0.003 A 
ATOM      4  C   UNL d   1      45.626 -18.023  41.864  0.00  0.00     0.003 A 
ATOM      5  C   UNL d   1      46.579 -19.357  41.753  0.00  0.00     0.019 A 
ATOM      6  C   UNL d   1      45.897 -18.396  42.547  0.00  0.00     0.019 A 
ENDROOT
BRANCH   1   7
ATOM      7  C   UNL d   1      45.564 -17.945  40.437  0.00  0.00     0.103 A 
ATOM      8  N   UNL d   1      44.796 -17.653  40.403  0.00  0.00    -0.147 NA
ATOM      9  N   UNL d   1      44.526 -17.279  39.719  0.00  0.00    -0.130 NA
ATOM     10  C   UNL d   1      45.023 -17.197  39.070  0.00  0.00     0.169 A 
ATOM     11  C   UNL d   1      45.795 -17.489  39.103  0.00  0.00     0.041 A 
ATOM     12  C   UNL d   1      46.065 -17.863  39.787  0.00  0.00     0.024 A 
BRANCH  10  13
ATOM     13  N   UNL d   1      44.753 -16.823  38.386  0.00  0.00    -0.288 N 
ATOM     14  C   UNL d   1      44.444 -17.267  37.768  0.00  0.00     0.082 A 
ATOM     15  C   UNL d   1      44.173 -16.894  37.084  0.00  0.00     0.019 A 
ATOM     16  C   UNL d   1      44.212 -16.075  37.018  0.00  0.00     0.003 A 
ATOM     17  C   UNL d   1      44.523 -15.627  37.638  0.00  0.00     0.019 A 
ATOM     18  C   UNL d   1      43.940 -15.709  36.331  0.00  0.00     0.000 C 
ATOM     19  C   UNL d   1      44.793 -16.001  38.322  0.00  0.00     0.082 A 
ENDBRANCH  10  13
ENDBRANCH   1   7
BRANCH   2  20
ATOM     20  N   UNL d   1      46.645 -19.440  43.173  0.00  0.00    -0.206 NA
ATOM     21  C   UNL d   1      46.150 -19.948  43.589  0.00  0.00     0.302 C 
ATOM     22  O   UNL d   1      46.422 -20.324  44.276  0.00  0.00    -0.263 OA
BRANCH  21  23
ATOM     23  C   UNL d   1      45.381 -20.083  43.321  0.00  0.00     0.158 A 
ATOM     24  O   UNL d   1      44.771 -20.210  43.864  0.00  0.00    -0.300 OA
ATOM     25  C   UNL d   1      44.068 -20.329  43.438  0.00  0.00     0.123 A 
ATOM     26  C   UNL d   1      44.250 -20.274  42.635  0.00  0.00     0.029 A 
ATOM     27  C   UNL d   1      45.054 -20.124  42.569  0.00  0.00     0.032 A 
ENDBRANCH  21  23
ENDBRANCH   2  20
TORSDOF 4
ENDMDL
