MODEL 1
REMARK VINA RESULT:      45.7      0.000      0.000
REMARK  5 active torsions:
REMARK  status: ('A' for Active; 'I' for Inactive)
REMARK    1  A    between atoms: C_8  and  C_1 
REMARK    2  A    between atoms: C_10  and  C_2 
REMARK    3  A    between atoms: N_6  and  C_9 
REMARK    4  A    between atoms: O_19  and  C_8 
REMARK    5  A    between atoms: C_21  and  O_19 
ROOT
ATOM      1  C   UNL d   1      60.502  49.320  51.199  0.00  0.00     0.099 A 
ATOM      2  C   UNL d   1      59.770  49.485  51.543  0.00  0.00     0.093 A 
ATOM      3  C   UNL d   1      61.189  49.284  51.663  0.00  0.00     0.093 A 
ATOM      4  N   UNL d   1      59.730  49.615  52.365  0.00  0.00    -0.191 NA
ATOM      5  C   UNL d   1      60.417  49.578  52.830  0.00  0.00     0.369 A 
ATOM      6  N   UNL d   1      61.147  49.412  52.472  0.00  0.00    -0.191 NA
ATOM      7  O   UNL d   1      60.372  49.707  53.643  0.00  0.00    -0.242 OA
ATOM      8  C   UNL d   1      61.913  49.119  51.307  0.00  0.00     0.021 C 
ENDROOT
BRANCH   2   9
ATOM      9  C   UNL d   1      59.084  49.522  51.085  0.00  0.00     0.018 A 
ATOM     10  C   UNL d   1      59.149  49.668  50.280  0.00  0.00     0.003 A 
ATOM     11  C   UNL d   1      58.473  49.707  49.817  0.00  0.00     0.024 A 
ATOM     12  C   UNL d   1      57.721  49.599  50.159  0.00  0.00     0.127 A 
ATOM     13  C   UNL d   1      57.661  49.452  50.973  0.00  0.00     0.024 A 
ATOM     14  C   UNL d   1      58.344  49.414  51.434  0.00  0.00     0.003 A 
BRANCH  12  15
ATOM     15  N   UNL d   1      57.038  49.637  49.698  0.00  0.00    -0.114 N 
ATOM     16  O   UNL d   1      56.299  49.706  50.059  0.00  0.00    -0.532 OA
ATOM     17  O   UNL d   1      57.094  49.607  48.874  0.00  0.00    -0.532 OA
ENDBRANCH  12  15
ENDBRANCH   2   9
BRANCH   1  18
ATOM     18  C   UNL d   1      60.551  49.191  50.387  0.00  0.00     0.303 C 
ATOM     19  O   UNL d   1      60.984  49.708  49.911  0.00  0.00    -0.259 OA
BRANCH  18  20
ATOM     20  O   UNL d   1      60.167  48.545  50.045  0.00  0.00    -0.271 OA
BRANCH  20  21
ATOM     21  C   UNL d   1      60.491  47.788  50.114  0.00  0.00     0.126 C 
ATOM     22  C   UNL d   1      60.763  47.402  49.446  0.00  0.00     0.029 C 
ENDBRANCH  20  21
ENDBRANCH  18  20
ENDBRANCH   1  18
TORSDOF 5
ENDMDL
