MODEL 1
REMARK VINA RESULT:      57.0      0.000      0.000
REMARK  6 active torsions:
REMARK  status: ('A' for Active; 'I' for Inactive)
REMARK       I    between atoms: C_3  and  N_1 
REMARK    1  A    between atoms: C_4  and  N_1 
REMARK    2  A    between atoms: S_2  and  C_12 
REMARK    3  A    between atoms: C_6  and  C_3 
REMARK    4  A    between atoms: N_5  and  C_6 
REMARK       I    between atoms: C_7  and  N_5 
REMARK    5  A    between atoms: C_8  and  C_6 
REMARK    6  A    between atoms: C_12  and  C_8 
ROOT
ATOM      1  N   UNL d   1     -47.670  31.454  34.376  0.00  0.00    -0.207 NA
ATOM      2  C   UNL d   1     -47.440  31.410  35.167  0.00  0.00     0.297 C 
ATOM      3  O   UNL d   1     -47.324  32.108  35.602  0.00  0.00    -0.264 OA
ENDROOT
BRANCH   2   4
ATOM      4  C   UNL d   1     -47.325  30.670  35.528  0.00  0.00     0.143 C 
BRANCH   4   5
ATOM      5  N   UNL d   1     -46.719  30.572  36.080  0.00  0.00    -0.203 NA
ATOM      6  C   UNL d   1     -46.897  30.370  36.858  0.00  0.00     0.280 C 
ATOM      7  O   UNL d   1     -47.684  30.265  37.085  0.00  0.00    -0.265 OA
ATOM      8  C   UNL d   1     -46.291  30.271  37.410  0.00  0.00     0.068 C 
ENDBRANCH   4   5
BRANCH   4   9
ATOM      9  C   UNL d   1     -47.815  30.036  35.335  0.00  0.00     0.036 C 
BRANCH   9  10
ATOM     10  C   UNL d   1     -47.511  29.269  35.329  0.00  0.00     0.096 C 
BRANCH  10  11
ATOM     11  S   UNL d   1     -47.990  28.639  35.099  0.00  0.00     0.192 S 
ATOM     12  O   UNL d   1     -47.286  28.536  34.667  0.00  0.00    -0.222 OA
ATOM     13  O   UNL d   1     -48.301  27.953  34.741  0.00  0.00    -0.222 OA
ATOM     14  C   UNL d   1     -48.745  28.560  35.419  0.00  0.00     0.145 C 
ENDBRANCH  10  11
ENDBRANCH   9  10
ENDBRANCH   4   9
ENDBRANCH   2   4
BRANCH   1  15
ATOM     15  C   UNL d   1     -47.785  32.209  34.015  0.00  0.00     0.085 A 
ATOM     16  C   UNL d   1     -48.529  32.538  34.009  0.00  0.00     0.018 A 
ATOM     17  C   UNL d   1     -48.632  33.283  33.650  0.00  0.00     0.002 A 
ATOM     18  C   UNL d   1     -49.172  32.159  34.343  0.00  0.00     0.002 C 
ATOM     19  C   UNL d   1     -47.996  33.685  33.306  0.00  0.00     0.000 A 
ATOM     20  C   UNL d   1     -47.244  33.332  33.322  0.00  0.00     0.002 A 
ATOM     21  C   UNL d   1     -47.131  32.582  33.682  0.00  0.00     0.018 A 
ATOM     22  C   UNL d   1     -46.383  32.251  33.688  0.00  0.00     0.002 C 
ENDBRANCH   1  15
TORSDOF 6
ENDMDL
MODEL 2
REMARK VINA RESULT:      58.9      4.766      7.288
REMARK  6 active torsions:
REMARK  status: ('A' for Active; 'I' for Inactive)
REMARK       I    between atoms: C_3  and  N_1 
REMARK    1  A    between atoms: C_4  and  N_1 
REMARK    2  A    between atoms: S_2  and  C_12 
REMARK    3  A    between atoms: C_6  and  C_3 
REMARK    4  A    between atoms: N_5  and  C_6 
REMARK       I    between atoms: C_7  and  N_5 
REMARK    5  A    between atoms: C_8  and  C_6 
REMARK    6  A    between atoms: C_12  and  C_8 
ROOT
ATOM      1  N   UNL d   1     -51.115  25.269  33.936  0.00  0.00    -0.207 NA
ATOM      2  C   UNL d   1     -51.469  25.828  34.429  0.00  0.00     0.297 C 
ATOM      3  O   UNL d   1     -52.237  25.698  34.714  0.00  0.00    -0.264 OA
ENDROOT
BRANCH   2   4
ATOM      4  C   UNL d   1     -51.057  26.518  34.640  0.00  0.00     0.143 C 
BRANCH   4   5
ATOM      5  N   UNL d   1     -50.991  27.138  34.099  0.00  0.00    -0.203 NA
ATOM      6  C   UNL d   1     -50.247  27.392  33.850  0.00  0.00     0.280 C 
ATOM      7  O   UNL d   1     -49.569  27.025  34.142  0.00  0.00    -0.265 OA
ATOM      8  C   UNL d   1     -50.181  28.012  33.308  0.00  0.00     0.068 C 
ENDBRANCH   4   5
BRANCH   4   9
ATOM      9  C   UNL d   1     -50.715  26.584  35.387  0.00  0.00     0.036 C 
BRANCH   9  10
ATOM     10  C   UNL d   1     -51.195  26.683  36.051  0.00  0.00     0.096 C 
BRANCH  10  11
ATOM     11  S   UNL d   1     -50.855  26.726  36.800  0.00  0.00     0.192 S 
ATOM     12  O   UNL d   1     -51.575  26.327  36.921  0.00  0.00    -0.222 OA
ATOM     13  O   UNL d   1     -50.694  26.664  37.616  0.00  0.00    -0.222 OA
ATOM     14  C   UNL d   1     -50.123  27.092  36.898  0.00  0.00     0.145 C 
ENDBRANCH  10  11
ENDBRANCH   9  10
ENDBRANCH   4   9
ENDBRANCH   2   4
BRANCH   1  15
ATOM     15  C   UNL d   1     -51.539  24.569  33.725  0.00  0.00     0.085 A 
ATOM     16  C   UNL d   1     -52.351  24.593  33.683  0.00  0.00     0.018 A 
ATOM     17  C   UNL d   1     -52.759  23.896  33.474  0.00  0.00     0.002 A 
ATOM     18  C   UNL d   1     -52.773  25.276  33.840  0.00  0.00     0.002 C 
ATOM     19  C   UNL d   1     -52.353  23.194  33.311  0.00  0.00     0.000 A 
ATOM     20  C   UNL d   1     -51.524  23.191  33.359  0.00  0.00     0.002 A 
ATOM     21  C   UNL d   1     -51.105  23.887  33.568  0.00  0.00     0.018 A 
ATOM     22  C   UNL d   1     -50.289  23.864  33.610  0.00  0.00     0.002 C 
ENDBRANCH   1  15
TORSDOF 6
ENDMDL
MODEL 3
REMARK VINA RESULT:      59.9      4.891      7.468
REMARK  6 active torsions:
REMARK  status: ('A' for Active; 'I' for Inactive)
REMARK       I    between atoms: C_3  and  N_1 
REMARK    1  A    between atoms: C_4  and  N_1 
REMARK    2  A    between atoms: S_2  and  C_12 
REMARK    3  A    between atoms: C_6  and  C_3 
REMARK    4  A    between atoms: N_5  and  C_6 
REMARK       I    between atoms: C_7  and  N_5 
REMARK    5  A    between atoms: C_8  and  C_6 
REMARK    6  A    between atoms: C_12  and  C_8 
ROOT
ATOM      1  N   UNL d   1     -51.589  25.267  33.306  0.00  0.00    -0.207 NA
ATOM      2  C   UNL d   1     -51.043  25.396  33.911  0.00  0.00     0.297 C 
ATOM      3  O   UNL d   1     -51.160  25.040  34.652  0.00  0.00    -0.264 OA
ENDROOT
BRANCH   2   4
ATOM      4  C   UNL d   1     -50.380  25.880  33.780  0.00  0.00     0.143 C 
BRANCH   4   5
ATOM      5  N   UNL d   1     -49.683  25.549  33.484  0.00  0.00    -0.203 NA
ATOM      6  C   UNL d   1     -49.523  24.750  33.602  0.00  0.00     0.280 C 
ATOM      7  O   UNL d   1     -50.060  24.279  34.015  0.00  0.00    -0.265 OA
ATOM      8  C   UNL d   1     -48.826  24.419  33.306  0.00  0.00     0.068 C 
ENDBRANCH   4   5
BRANCH   4   9
ATOM      9  C   UNL d   1     -50.418  26.686  33.944  0.00  0.00     0.036 C 
BRANCH   9  10
ATOM     10  C   UNL d   1     -49.801  27.052  34.351  0.00  0.00     0.096 C 
BRANCH  10  11
ATOM     11  S   UNL d   1     -49.558  27.809  34.134  0.00  0.00     0.192 S 
ATOM     12  O   UNL d   1     -49.399  27.764  34.949  0.00  0.00    -0.222 OA
ATOM     13  O   UNL d   1     -49.260  28.588  34.126  0.00  0.00    -0.222 OA
ATOM     14  C   UNL d   1     -49.632  28.054  33.351  0.00  0.00     0.145 C 
ENDBRANCH  10  11
ENDBRANCH   9  10
ENDBRANCH   4   9
ENDBRANCH   2   4
BRANCH   1  15
ATOM     15  C   UNL d   1     -52.261  24.775  33.444  0.00  0.00     0.085 A 
ATOM     16  C   UNL d   1     -52.156  23.972  33.527  0.00  0.00     0.018 A 
ATOM     17  C   UNL d   1     -52.826  23.495  33.664  0.00  0.00     0.002 A 
ATOM     18  C   UNL d   1     -51.416  23.625  33.479  0.00  0.00     0.002 C 
ATOM     19  C   UNL d   1     -53.583  23.824  33.716  0.00  0.00     0.000 A 
ATOM     20  C   UNL d   1     -53.669  24.645  33.629  0.00  0.00     0.002 A 
ATOM     21  C   UNL d   1     -53.000  25.133  33.491  0.00  0.00     0.018 A 
ATOM     22  C   UNL d   1     -53.106  25.940  33.408  0.00  0.00     0.002 C 
ENDBRANCH   1  15
TORSDOF 6
ENDMDL
