MODEL 1
REMARK VINA RESULT:      56.9      0.000      0.000
REMARK  5 active torsions:
REMARK  status: ('A' for Active; 'I' for Inactive)
REMARK    1  A    between atoms: C_12  and  N_3 
REMARK    2  A    between atoms: C_10  and  N_7 
REMARK    3  A    between atoms: C_11  and  C_10 
REMARK    4  A    between atoms: C_15  and  C_11 
REMARK    5  A    between atoms: C_16  and  C_12 
ROOT
ATOM      1  C   UNL d   1     -50.571  26.272  33.628  0.00  0.00     0.191 A 
ATOM      2  C   UNL d   1     -49.755  26.105  33.655  0.00  0.00     0.196 A 
ATOM      3  N   UNL d   1     -50.961  25.571  33.410  0.00  0.00    -0.191 N 
ATOM      4  N   UNL d   1     -50.836  27.025  33.802  0.00  0.00    -0.204 NA
ATOM      5  N   UNL d   1     -49.659  25.304  33.453  0.00  0.00    -0.122 NA
ATOM      6  N   UNL d   1     -50.393  24.992  33.308  0.00  0.00    -0.058 NA
ATOM      7  N   UNL d   1     -49.490  27.457  34.032  0.00  0.00    -0.251 N 
ATOM      8  C   UNL d   1     -49.227  26.696  33.856  0.00  0.00     0.289 A 
ATOM      9  C   UNL d   1     -50.307  27.625  34.005  0.00  0.00     0.187 A 
ATOM     10  O   UNL d   1     -48.410  26.528  33.883  0.00  0.00    -0.265 OA
ENDROOT
BRANCH   7  11
ATOM     11  C   UNL d   1     -48.959  28.063  34.237  0.00  0.00     0.127 C 
BRANCH  11  12
ATOM     12  C   UNL d   1     -48.855  28.282  35.035  0.00  0.00     0.213 C 
ATOM     13  O   UNL d   1     -49.228  27.850  35.631  0.00  0.00    -0.285 OA
BRANCH  12  14
ATOM     14  C   UNL d   1     -48.380  28.926  35.218  0.00  0.00     0.041 A 
ATOM     15  C   UNL d   1     -48.597  29.684  34.972  0.00  0.00     0.003 A 
ATOM     16  C   UNL d   1     -48.129  30.326  35.153  0.00  0.00     0.000 A 
ATOM     17  C   UNL d   1     -47.432  30.216  35.585  0.00  0.00     0.000 A 
ATOM     18  C   UNL d   1     -47.215  29.458  35.831  0.00  0.00     0.000 A 
ATOM     19  C   UNL d   1     -47.683  28.817  35.651  0.00  0.00     0.003 A 
ENDBRANCH  12  14
ENDBRANCH  11  12
ENDBRANCH   7  11
BRANCH   3  20
ATOM     20  C   UNL d   1     -51.787  25.473  33.312  0.00  0.00     0.104 C 
BRANCH  20  21
ATOM     21  C   UNL d   1     -52.134  24.728  33.451  0.00  0.00     0.019 A 
ATOM     22  C   UNL d   1     -51.709  24.036  33.311  0.00  0.00     0.002 A 
ATOM     23  C   UNL d   1     -52.065  23.320  33.452  0.00  0.00     0.000 A 
ATOM     24  C   UNL d   1     -52.830  23.267  33.728  0.00  0.00     0.000 A 
ATOM     25  C   UNL d   1     -53.266  23.980  33.871  0.00  0.00     0.000 A 
ATOM     26  C   UNL d   1     -52.909  24.704  33.729  0.00  0.00     0.002 A 
ENDBRANCH  20  21
ENDBRANCH   3  20
TORSDOF 5
ENDMDL
