MODEL 1
REMARK VINA RESULT:      -6.8      0.000      0.000
REMARK  3 active torsions:
REMARK  status: ('A' for Active; 'I' for Inactive)
REMARK    1  A    between atoms: S_7  and  C_4 
REMARK    2  A    between atoms: C_9  and  S_7 
REMARK    3  A    between atoms: C_10  and  C_9 
ROOT
ATOM      1  S   UNL d   1     -48.330  14.236  22.685  0.00  0.00    -0.046 SA
ENDROOT
BRANCH   1   2
ATOM      2  C   UNL d   1     -49.013  14.633  22.921  0.00  0.00     0.217 A 
ATOM      3  N   UNL d   1     -49.668  14.206  23.191  0.00  0.00    -0.180 NA
ATOM      4  C   UNL d   1     -50.351  14.603  23.428  0.00  0.00     0.300 A 
ATOM      5  C   UNL d   1     -50.380  15.426  23.395  0.00  0.00     0.161 A 
ATOM      6  O   UNL d   1     -51.006  14.176  23.697  0.00  0.00    -0.263 OA
ATOM      7  C   UNL d   1     -51.064  15.824  23.632  0.00  0.00     0.028 C 
ATOM      8  N   UNL d   1     -49.725  15.853  23.126  0.00  0.00    -0.141 NA
ATOM      9  N   UNL d   1     -49.042  15.457  22.889  0.00  0.00    -0.121 NA
ENDBRANCH   1   2
BRANCH   1  10
ATOM     10  C   UNL d   1     -47.735  14.072  23.235  0.00  0.00     0.038 C 
BRANCH  10  11
ATOM     11  C   UNL d   1     -47.032  13.717  22.990  0.00  0.00     0.007 A 
ATOM     12  C   UNL d   1     -46.475  14.152  22.562  0.00  0.00     0.001 A 
ATOM     13  C   UNL d   1     -45.771  13.797  22.317  0.00  0.00     0.000 A 
ATOM     14  C   UNL d   1     -45.626  13.006  22.501  0.00  0.00     0.000 A 
ATOM     15  C   UNL d   1     -46.182  12.570  22.929  0.00  0.00     0.000 A 
ATOM     16  C   UNL d   1     -44.922  12.651  22.256  0.00  0.00     0.000 C 
ATOM     17  C   UNL d   1     -46.886  12.925  23.174  0.00  0.00     0.001 A 
ENDBRANCH  10  11
ENDBRANCH   1  10
TORSDOF 3
ENDMDL
MODEL 2
REMARK VINA RESULT:      -5.4      9.014      9.608
REMARK  3 active torsions:
REMARK  status: ('A' for Active; 'I' for Inactive)
REMARK    1  A    between atoms: S_7  and  C_4 
REMARK    2  A    between atoms: C_9  and  S_7 
REMARK    3  A    between atoms: C_10  and  C_9 
ROOT
ATOM      1  S   UNL d   1     -39.811  14.290  18.994  0.00  0.00    -0.046 SA
ENDROOT
BRANCH   1   2
ATOM      2  C   UNL d   1     -40.163  14.609  18.320  0.00  0.00     0.217 A 
ATOM      3  N   UNL d   1     -39.728  15.106  17.821  0.00  0.00    -0.180 NA
ATOM      4  C   UNL d   1     -40.079  15.425  17.147  0.00  0.00     0.300 A 
ATOM      5  C   UNL d   1     -40.865  15.249  16.972  0.00  0.00     0.161 A 
ATOM      6  O   UNL d   1     -39.644  15.921  16.649  0.00  0.00    -0.263 OA
ATOM      7  C   UNL d   1     -41.217  15.569  16.297  0.00  0.00     0.028 C 
ATOM      8  N   UNL d   1     -41.300  14.753  17.470  0.00  0.00    -0.141 NA
ATOM      9  N   UNL d   1     -40.949  14.434  18.144  0.00  0.00    -0.121 NA
ENDBRANCH   1   2
BRANCH   1  10
ATOM     10  C   UNL d   1     -39.753  14.741  19.684  0.00  0.00     0.038 C 
BRANCH  10  11
ATOM     11  C   UNL d   1     -39.458  14.403  20.377  0.00  0.00     0.007 A 
ATOM     12  C   UNL d   1     -38.703  14.068  20.386  0.00  0.00     0.001 A 
ATOM     13  C   UNL d   1     -38.408  13.730  21.078  0.00  0.00     0.000 A 
ATOM     14  C   UNL d   1     -38.870  13.726  21.762  0.00  0.00     0.000 A 
ATOM     15  C   UNL d   1     -39.625  14.061  21.753  0.00  0.00     0.000 A 
ATOM     16  C   UNL d   1     -38.575  13.388  22.454  0.00  0.00     0.000 C 
ATOM     17  C   UNL d   1     -39.920  14.399  21.061  0.00  0.00     0.001 A 
ENDBRANCH  10  11
ENDBRANCH   1  10
TORSDOF 3
ENDMDL
MODEL 3
REMARK VINA RESULT:      -5.2      9.109      9.694
REMARK  3 active torsions:
REMARK  status: ('A' for Active; 'I' for Inactive)
REMARK    1  A    between atoms: S_7  and  C_4 
REMARK    2  A    between atoms: C_9  and  S_7 
REMARK    3  A    between atoms: C_10  and  C_9 
ROOT
ATOM      1  S   UNL d   1     -39.403  14.619  20.216  0.00  0.00    -0.046 SA
ENDROOT
BRANCH   1   2
ATOM      2  C   UNL d   1     -39.197  14.310  20.952  0.00  0.00     0.217 A 
ATOM      3  N   UNL d   1     -38.672  13.673  21.002  0.00  0.00    -0.180 NA
ATOM      4  C   UNL d   1     -38.466  13.364  21.738  0.00  0.00     0.300 A 
ATOM      5  C   UNL d   1     -38.785  13.691  22.424  0.00  0.00     0.161 A 
ATOM      6  O   UNL d   1     -37.940  12.728  21.788  0.00  0.00    -0.263 OA
ATOM      7  C   UNL d   1     -38.579  13.382  23.162  0.00  0.00     0.028 C 
ATOM      8  N   UNL d   1     -39.310  14.328  22.375  0.00  0.00    -0.141 NA
ATOM      9  N   UNL d   1     -39.516  14.637  21.639  0.00  0.00    -0.121 NA
ENDBRANCH   1   2
BRANCH   1  10
ATOM     10  C   UNL d   1     -40.164  14.500  19.914  0.00  0.00     0.038 C 
BRANCH  10  11
ATOM     11  C   UNL d   1     -40.355  14.762  19.156  0.00  0.00     0.007 A 
ATOM     12  C   UNL d   1     -40.496  15.565  19.018  0.00  0.00     0.001 A 
ATOM     13  C   UNL d   1     -40.687  15.828  18.260  0.00  0.00     0.000 A 
ATOM     14  C   UNL d   1     -40.736  15.286  17.639  0.00  0.00     0.000 A 
ATOM     15  C   UNL d   1     -40.595  14.484  17.776  0.00  0.00     0.000 A 
ATOM     16  C   UNL d   1     -40.927  15.549  16.880  0.00  0.00     0.000 C 
ATOM     17  C   UNL d   1     -40.404  14.221  18.534  0.00  0.00     0.001 A 
ENDBRANCH  10  11
ENDBRANCH   1  10
TORSDOF 3
ENDMDL
MODEL 4
REMARK VINA RESULT:      -5.2      8.305      9.926
REMARK  3 active torsions:
REMARK  status: ('A' for Active; 'I' for Inactive)
REMARK    1  A    between atoms: S_7  and  C_4 
REMARK    2  A    between atoms: C_9  and  S_7 
REMARK    3  A    between atoms: C_10  and  C_9 
ROOT
ATOM      1  S   UNL d   1     -39.913  14.426  18.292  0.00  0.00    -0.046 SA
ENDROOT
BRANCH   1   2
ATOM      2  C   UNL d   1     -40.237  14.761  18.972  0.00  0.00     0.217 A 
ATOM      3  N   UNL d   1     -40.510  14.275  19.583  0.00  0.00    -0.180 NA
ATOM      4  C   UNL d   1     -40.835  14.609  20.263  0.00  0.00     0.300 A 
ATOM      5  C   UNL d   1     -40.887  15.429  20.333  0.00  0.00     0.161 A 
ATOM      6  O   UNL d   1     -41.108  14.123  20.874  0.00  0.00    -0.263 OA
ATOM      7  C   UNL d   1     -41.212  15.764  21.014  0.00  0.00     0.028 C 
ATOM      8  N   UNL d   1     -40.614  15.915  19.722  0.00  0.00    -0.141 NA
ATOM      9  N   UNL d   1     -40.290  15.581  19.042  0.00  0.00    -0.121 NA
ENDBRANCH   1   2
BRANCH   1  10
ATOM     10  C   UNL d   1     -39.184  14.693  18.006  0.00  0.00     0.038 C 
BRANCH  10  11
ATOM     11  C   UNL d   1     -38.873  14.381  17.309  0.00  0.00     0.007 A 
ATOM     12  C   UNL d   1     -38.574  13.611  17.297  0.00  0.00     0.001 A 
ATOM     13  C   UNL d   1     -38.262  13.298  16.600  0.00  0.00     0.000 A 
ATOM     14  C   UNL d   1     -38.251  13.757  15.914  0.00  0.00     0.000 A 
ATOM     15  C   UNL d   1     -38.550  14.527  15.925  0.00  0.00     0.000 A 
ATOM     16  C   UNL d   1     -37.940  13.444  15.216  0.00  0.00     0.000 C 
ATOM     17  C   UNL d   1     -38.861  14.840  16.623  0.00  0.00     0.001 A 
ENDBRANCH  10  11
ENDBRANCH   1  10
TORSDOF 3
ENDMDL
MODEL 5
REMARK VINA RESULT:      -4.9      9.111     10.689
REMARK  3 active torsions:
REMARK  status: ('A' for Active; 'I' for Inactive)
REMARK    1  A    between atoms: S_7  and  C_4 
REMARK    2  A    between atoms: C_9  and  S_7 
REMARK    3  A    between atoms: C_10  and  C_9 
ROOT
ATOM      1  S   UNL d   1     -39.794  14.519  18.091  0.00  0.00    -0.046 SA
ENDROOT
BRANCH   1   2
ATOM      2  C   UNL d   1     -39.331  14.315  17.440  0.00  0.00     0.217 A 
ATOM      3  N   UNL d   1     -39.055  14.903  16.928  0.00  0.00    -0.180 NA
ATOM      4  C   UNL d   1     -38.592  14.700  16.277  0.00  0.00     0.300 A 
ATOM      5  C   UNL d   1     -38.404  13.910  16.137  0.00  0.00     0.161 A 
ATOM      6  O   UNL d   1     -38.316  15.288  15.765  0.00  0.00    -0.263 OA
ATOM      7  C   UNL d   1     -37.940  13.706  15.486  0.00  0.00     0.028 C 
ATOM      8  N   UNL d   1     -38.679  13.322  16.649  0.00  0.00    -0.141 NA
ATOM      9  N   UNL d   1     -39.142  13.525  17.300  0.00  0.00    -0.121 NA
ENDBRANCH   1   2
BRANCH   1  10
ATOM     10  C   UNL d   1     -39.498  14.421  18.857  0.00  0.00     0.038 C 
BRANCH  10  11
ATOM     11  C   UNL d   1     -39.865  14.796  19.494  0.00  0.00     0.007 A 
ATOM     12  C   UNL d   1     -40.592  14.522  19.773  0.00  0.00     0.001 A 
ATOM     13  C   UNL d   1     -40.960  14.897  20.410  0.00  0.00     0.000 A 
ATOM     14  C   UNL d   1     -40.598  15.547  20.767  0.00  0.00     0.000 A 
ATOM     15  C   UNL d   1     -39.870  15.821  20.488  0.00  0.00     0.000 A 
ATOM     16  C   UNL d   1     -40.965  15.922  21.404  0.00  0.00     0.000 C 
ATOM     17  C   UNL d   1     -39.503  15.446  19.851  0.00  0.00     0.001 A 
ENDBRANCH  10  11
ENDBRANCH   1  10
TORSDOF 3
ENDMDL
