MODEL 1
REMARK VINA RESULT:      -7.2      0.000      0.000
REMARK  9 active torsions:
REMARK  status: ('A' for Active; 'I' for Inactive)
REMARK    1  A    between atoms: C_3  and  C_1 
REMARK    2  A    between atoms: C_4  and  C_1 
REMARK    3  A    between atoms: C_2  and  C_4 
REMARK    4  A    between atoms: O_9  and  C_2 
REMARK       I    between atoms: N_6  and  C_3 
REMARK    5  A    between atoms: N_5  and  C_4 
REMARK    6  A    between atoms: C_10  and  N_5 
REMARK    7  A    between atoms: C_11  and  N_6 
REMARK    8  A    between atoms: C_12  and  C_10 
REMARK    9  A    between atoms: C_13  and  C_11 
ROOT
ATOM      1  C   UNK d   1      54.104  33.304  54.653  0.00  0.00     0.124 C 
ENDROOT
BRANCH   1   2
ATOM      2  C   UNK d   1      54.814  33.448  55.072  0.00  0.00     0.194 C 
ATOM      3  O   UNK d   1      54.844  33.337  55.882  0.00  0.00    -0.645 OA
BRANCH   2   4
ATOM      4  O   UNK d   1      55.495  33.705  54.665  0.00  0.00    -0.772 OA
ATOM      5  H   UNK d   1      55.953  33.161  54.244  0.00  0.00     0.167 HD
ENDBRANCH   2   4
ENDBRANCH   1   2
BRANCH   1   6
ATOM      6  C   UNK d   1      53.735  32.569  54.703  0.00  0.00     0.084 C 
BRANCH   6   7
ATOM      7  C   UNK d   1      53.882  32.003  54.130  0.00  0.00     0.259 C 
ATOM      8  N   UNK d   1      53.472  31.287  54.149  0.00  0.00    -0.320 N 
ATOM      9  H   UNK d   1      52.910  31.141  54.750  0.00  0.00     0.169 HD
ATOM     10  O   UNK d   1      54.441  32.148  53.531  0.00  0.00    -0.267 OA
BRANCH   8  11
ATOM     11  C   UNK d   1      53.616  30.713  53.574  0.00  0.00     0.075 C 
BRANCH  11  12
ATOM     12  C   UNK d   1      53.183  30.004  53.569  0.00  0.00     0.017 C 
ATOM     13  C   UNK d   1      53.354  29.406  54.111  0.00  0.00     0.002 C 
ATOM     14  C   UNK d   1      52.576  29.898  53.015  0.00  0.00     0.002 C 
ENDBRANCH  11  12
ENDBRANCH   8  11
ENDBRANCH   6   7
ENDBRANCH   1   6
BRANCH   1  15
ATOM     15  N   UNK d   1      53.769  33.895  54.188  0.00  0.00    -0.347 N 
ATOM     16  H   UNK d   1      54.089  34.043  53.433  0.00  0.00     0.166 HD
BRANCH  15  17
ATOM     17  C   UNK d   0      53.124  34.334  54.466  0.00  0.00     0.073 C 
BRANCH  17  18
ATOM     18  C   UNK d   0      52.839  34.964  54.030  0.00  0.00     0.017 C 
ATOM     19  C   UNK d   0      52.437  34.829  53.323  0.00  0.00     0.002 C 
ATOM     20  C   UNK d   0      52.955  35.735  54.298  0.00  0.00     0.002 C 
ENDBRANCH  17  18
ENDBRANCH  15  17
ENDBRANCH   1  15
TORSDOF 9
ENDMDL
MODEL 2
REMARK VINA RESULT:      -6.9      1.627      2.264
REMARK  9 active torsions:
REMARK  status: ('A' for Active; 'I' for Inactive)
REMARK    1  A    between atoms: C_3  and  C_1 
REMARK    2  A    between atoms: C_4  and  C_1 
REMARK    3  A    between atoms: C_2  and  C_4 
REMARK    4  A    between atoms: O_9  and  C_2 
REMARK       I    between atoms: N_6  and  C_3 
REMARK    5  A    between atoms: N_5  and  C_4 
REMARK    6  A    between atoms: C_10  and  N_5 
REMARK    7  A    between atoms: C_11  and  N_6 
REMARK    8  A    between atoms: C_12  and  C_10 
REMARK    9  A    between atoms: C_13  and  C_11 
ROOT
ATOM      1  C   UNK d   1      52.803  33.697  53.714  0.00  0.00     0.124 C 
ENDROOT
BRANCH   1   2
ATOM      2  C   UNK d   1      52.484  34.433  53.477  0.00  0.00     0.194 C 
ATOM      3  O   UNK d   1      52.849  34.872  52.891  0.00  0.00    -0.645 OA
BRANCH   2   4
ATOM      4  O   UNK d   1      51.791  34.724  53.839  0.00  0.00    -0.772 OA
ATOM      5  H   UNK d   1      51.050  34.465  53.579  0.00  0.00     0.167 HD
ENDBRANCH   2   4
ENDBRANCH   1   2
BRANCH   1   6
ATOM      6  C   UNK d   1      52.334  33.019  53.700  0.00  0.00     0.084 C 
BRANCH   6   7
ATOM      7  C   UNK d   1      52.502  32.423  53.165  0.00  0.00     0.259 C 
ATOM      8  N   UNK d   1      52.602  31.649  53.434  0.00  0.00    -0.320 N 
ATOM      9  H   UNK d   1      52.532  31.476  54.249  0.00  0.00     0.169 HD
ATOM     10  O   UNK d   1      52.571  32.595  52.353  0.00  0.00    -0.267 OA
BRANCH   8  11
ATOM     11  C   UNK d   1      52.771  31.044  52.899  0.00  0.00     0.075 C 
BRANCH  11  12
ATOM     12  C   UNK d   1      52.945  30.278  53.171  0.00  0.00     0.017 C 
ATOM     13  C   UNK d   1      52.351  29.708  53.224  0.00  0.00     0.002 C 
ATOM     14  C   UNK d   1      53.721  30.088  53.390  0.00  0.00     0.002 C 
ENDBRANCH  11  12
ENDBRANCH   8  11
ENDBRANCH   6   7
ENDBRANCH   1   6
BRANCH   1  15
ATOM     15  N   UNK d   1      53.586  33.643  53.962  0.00  0.00    -0.347 N 
ATOM     16  H   UNK d   1      54.151  33.316  53.445  0.00  0.00     0.166 HD
BRANCH  15  17
ATOM     17  C   UNK d   0      53.808  33.910  54.715  0.00  0.00     0.073 C 
BRANCH  17  18
ATOM     18  C   UNK d   0      54.539  33.711  55.021  0.00  0.00     0.017 C 
ATOM     19  C   UNK d   0      55.225  33.879  54.595  0.00  0.00     0.002 C 
ATOM     20  C   UNK d   0      54.590  33.341  55.756  0.00  0.00     0.002 C 
ENDBRANCH  17  18
ENDBRANCH  15  17
ENDBRANCH   1  15
TORSDOF 9
ENDMDL
MODEL 3
REMARK VINA RESULT:      -6.9      1.390      3.609
REMARK  9 active torsions:
REMARK  status: ('A' for Active; 'I' for Inactive)
REMARK    1  A    between atoms: C_3  and  C_1 
REMARK    2  A    between atoms: C_4  and  C_1 
REMARK    3  A    between atoms: C_2  and  C_4 
REMARK    4  A    between atoms: O_9  and  C_2 
REMARK       I    between atoms: N_6  and  C_3 
REMARK    5  A    between atoms: N_5  and  C_4 
REMARK    6  A    between atoms: C_10  and  N_5 
REMARK    7  A    between atoms: C_11  and  N_6 
REMARK    8  A    between atoms: C_12  and  C_10 
REMARK    9  A    between atoms: C_13  and  C_11 
ROOT
ATOM      1  C   UNK d   1      53.654  32.499  54.015  0.00  0.00     0.124 C 
ENDROOT
BRANCH   1   2
ATOM      2  C   UNK d   1      54.255  32.712  54.556  0.00  0.00     0.194 C 
ATOM      3  O   UNK d   1      54.140  32.619  55.360  0.00  0.00    -0.645 OA
BRANCH   2   4
ATOM      4  O   UNK d   1      54.977  33.022  54.275  0.00  0.00    -0.772 OA
ATOM      5  H   UNK d   1      54.975  33.640  53.726  0.00  0.00     0.167 HD
ENDBRANCH   2   4
ENDBRANCH   1   2
BRANCH   1   6
ATOM      6  C   UNK d   1      53.373  33.048  53.470  0.00  0.00     0.084 C 
BRANCH   6   7
ATOM      7  C   UNK d   1      52.690  33.469  53.634  0.00  0.00     0.259 C 
ATOM      8  N   UNK d   1      52.175  33.667  53.021  0.00  0.00    -0.320 N 
ATOM      9  H   UNK d   1      52.349  33.439  52.236  0.00  0.00     0.169 HD
ATOM     10  O   UNK d   1      52.516  33.697  54.416  0.00  0.00    -0.267 OA
BRANCH   8  11
ATOM     11  C   UNK d   1      51.485  34.091  53.181  0.00  0.00     0.075 C 
BRANCH  11  12
ATOM     12  C   UNK d   1      50.929  34.234  52.580  0.00  0.00     0.017 C 
ATOM     13  C   UNK d   1      51.159  34.228  51.788  0.00  0.00     0.002 C 
ATOM     14  C   UNK d   1      50.139  34.384  52.780  0.00  0.00     0.002 C 
ENDBRANCH  11  12
ENDBRANCH   8  11
ENDBRANCH   6   7
ENDBRANCH   1   6
BRANCH   1  15
ATOM     15  N   UNK d   1      53.337  31.738  54.024  0.00  0.00    -0.347 N 
ATOM     16  H   UNK d   1      52.681  31.581  54.513  0.00  0.00     0.166 HD
BRANCH  15  17
ATOM     17  C   UNK d   0      53.666  31.141  53.554  0.00  0.00     0.073 C 
BRANCH  17  18
ATOM     18  C   UNK d   0      53.300  30.412  53.503  0.00  0.00     0.017 C 
ATOM     19  C   UNK d   0      53.430  29.842  54.084  0.00  0.00     0.002 C 
ATOM     20  C   UNK d   0      52.800  30.247  52.868  0.00  0.00     0.002 C 
ENDBRANCH  17  18
ENDBRANCH  15  17
ENDBRANCH   1  15
TORSDOF 9
ENDMDL
MODEL 4
REMARK VINA RESULT:      -6.7      1.631      3.311
REMARK  9 active torsions:
REMARK  status: ('A' for Active; 'I' for Inactive)
REMARK    1  A    between atoms: C_3  and  C_1 
REMARK    2  A    between atoms: C_4  and  C_1 
REMARK    3  A    between atoms: C_2  and  C_4 
REMARK    4  A    between atoms: O_9  and  C_2 
REMARK       I    between atoms: N_6  and  C_3 
REMARK    5  A    between atoms: N_5  and  C_4 
REMARK    6  A    between atoms: C_10  and  N_5 
REMARK    7  A    between atoms: C_11  and  N_6 
REMARK    8  A    between atoms: C_12  and  C_10 
REMARK    9  A    between atoms: C_13  and  C_11 
ROOT
ATOM      1  C   UNK d   1      52.806  31.867  53.095  0.00  0.00     0.124 C 
ENDROOT
BRANCH   1   2
ATOM      2  C   UNK d   1      52.632  31.095  52.823  0.00  0.00     0.194 C 
ATOM      3  O   UNK d   1      52.113  30.618  53.238  0.00  0.00    -0.645 OA
BRANCH   2   4
ATOM      4  O   UNK d   1      52.990  30.808  52.126  0.00  0.00    -0.772 OA
ATOM      5  H   UNK d   1      53.728  30.439  52.163  0.00  0.00     0.167 HD
ENDBRANCH   2   4
ENDBRANCH   1   2
BRANCH   1   6
ATOM      6  C   UNK d   1      53.587  32.094  53.229  0.00  0.00     0.084 C 
BRANCH   6   7
ATOM      7  C   UNK d   1      53.851  32.204  53.995  0.00  0.00     0.259 C 
ATOM      8  N   UNK d   1      54.236  32.905  54.198  0.00  0.00    -0.320 N 
ATOM      9  H   UNK d   1      54.356  33.500  53.622  0.00  0.00     0.169 HD
ATOM     10  O   UNK d   1      53.732  31.613  54.569  0.00  0.00    -0.267 OA
BRANCH   8  11
ATOM     11  C   UNK d   1      54.504  33.022  54.969  0.00  0.00     0.075 C 
BRANCH  11  12
ATOM     12  C   UNK d   1      54.792  33.764  55.207  0.00  0.00     0.017 C 
ATOM     13  C   UNK d   1      55.598  33.935  55.160  0.00  0.00     0.002 C 
ATOM     14  C   UNK d   1      54.265  34.335  55.495  0.00  0.00     0.002 C 
ENDBRANCH  11  12
ENDBRANCH   8  11
ENDBRANCH   6   7
ENDBRANCH   1   6
BRANCH   1  15
ATOM     15  N   UNK d   1      52.199  32.406  53.232  0.00  0.00    -0.347 N 
ATOM     16  H   UNK d   1      51.905  32.493  54.007  0.00  0.00     0.166 HD
BRANCH  15  17
ATOM     17  C   UNK d   0      51.886  32.854  52.609  0.00  0.00     0.073 C 
BRANCH  17  18
ATOM     18  C   UNK d   0      51.387  33.483  52.767  0.00  0.00     0.017 C 
ATOM     19  C   UNK d   0      50.757  33.389  53.291  0.00  0.00     0.002 C 
ATOM     20  C   UNK d   0      51.516  34.210  52.402  0.00  0.00     0.002 C 
ENDBRANCH  17  18
ENDBRANCH  15  17
ENDBRANCH   1  15
TORSDOF 9
ENDMDL
MODEL 5
REMARK VINA RESULT:      -6.5      1.940      3.357
REMARK  9 active torsions:
REMARK  status: ('A' for Active; 'I' for Inactive)
REMARK    1  A    between atoms: C_3  and  C_1 
REMARK    2  A    between atoms: C_4  and  C_1 
REMARK    3  A    between atoms: C_2  and  C_4 
REMARK    4  A    between atoms: O_9  and  C_2 
REMARK       I    between atoms: N_6  and  C_3 
REMARK    5  A    between atoms: N_5  and  C_4 
REMARK    6  A    between atoms: C_10  and  N_5 
REMARK    7  A    between atoms: C_11  and  N_6 
REMARK    8  A    between atoms: C_12  and  C_10 
REMARK    9  A    between atoms: C_13  and  C_11 
ROOT
ATOM      1  C   UNK d   1      53.464  31.794  53.620  0.00  0.00     0.124 C 
ENDROOT
BRANCH   1   2
ATOM      2  C   UNK d   1      53.628  30.974  53.622  0.00  0.00     0.194 C 
ATOM      3  O   UNK d   1      53.337  30.496  54.219  0.00  0.00    -0.645 OA
BRANCH   2   4
ATOM      4  O   UNK d   1      54.089  30.639  53.013  0.00  0.00    -0.772 OA
ATOM      5  H   UNK d   1      54.908  30.750  53.008  0.00  0.00     0.167 HD
ENDBRANCH   2   4
ENDBRANCH   1   2
BRANCH   1   6
ATOM      6  C   UNK d   1      53.087  32.140  52.974  0.00  0.00     0.084 C 
BRANCH   6   7
ATOM      7  C   UNK d   1      52.294  32.335  53.026  0.00  0.00     0.259 C 
ATOM      8  N   UNK d   1      52.041  33.082  52.785  0.00  0.00    -0.320 N 
ATOM      9  H   UNK d   1      52.592  33.638  52.490  0.00  0.00     0.169 HD
ATOM     10  O   UNK d   1      51.744  31.783  53.320  0.00  0.00    -0.267 OA
BRANCH   8  11
ATOM     11  C   UNK d   1      51.242  33.285  52.835  0.00  0.00     0.075 C 
BRANCH  11  12
ATOM     12  C   UNK d   1      50.980  34.031  52.582  0.00  0.00     0.017 C 
ATOM     13  C   UNK d   1      51.342  34.407  51.943  0.00  0.00     0.002 C 
ATOM     14  C   UNK d   1      50.351  34.400  52.975  0.00  0.00     0.002 C 
ENDBRANCH  11  12
ENDBRANCH   8  11
ENDBRANCH   6   7
ENDBRANCH   1   6
BRANCH   1  15
ATOM     15  N   UNK d   1      53.678  32.262  54.263  0.00  0.00    -0.347 N 
ATOM     16  H   UNK d   1      53.130  32.374  54.880  0.00  0.00     0.166 HD
BRANCH  15  17
ATOM     17  C   UNK d   0      54.427  32.616  54.294  0.00  0.00     0.073 C 
BRANCH  17  18
ATOM     18  C   UNK d   0      54.604  33.147  54.890  0.00  0.00     0.017 C 
ATOM     19  C   UNK d   0      54.272  33.053  55.640  0.00  0.00     0.002 C 
ATOM     20  C   UNK d   0      55.115  33.777  54.742  0.00  0.00     0.002 C 
ENDBRANCH  17  18
ENDBRANCH  15  17
ENDBRANCH   1  15
TORSDOF 9
ENDMDL
MODEL 6
REMARK VINA RESULT:      -6.5      2.303      3.835
REMARK  9 active torsions:
REMARK  status: ('A' for Active; 'I' for Inactive)
REMARK    1  A    between atoms: C_3  and  C_1 
REMARK    2  A    between atoms: C_4  and  C_1 
REMARK    3  A    between atoms: C_2  and  C_4 
REMARK    4  A    between atoms: O_9  and  C_2 
REMARK       I    between atoms: N_6  and  C_3 
REMARK    5  A    between atoms: N_5  and  C_4 
REMARK    6  A    between atoms: C_10  and  N_5 
REMARK    7  A    between atoms: C_11  and  N_6 
REMARK    8  A    between atoms: C_12  and  C_10 
REMARK    9  A    between atoms: C_13  and  C_11 
ROOT
ATOM      1  C   UNK d   1      52.930  34.694  54.119  0.00  0.00     0.124 C 
ENDROOT
BRANCH   1   2
ATOM      2  C   UNK d   1      52.927  35.425  54.527  0.00  0.00     0.194 C 
ATOM      3  O   UNK d   1      53.221  36.098  54.168  0.00  0.00    -0.645 OA
BRANCH   2   4
ATOM      4  O   UNK d   1      52.623  35.468  55.303  0.00  0.00    -0.772 OA
ATOM      5  H   UNK d   1      52.468  34.774  55.724  0.00  0.00     0.167 HD
ENDBRANCH   2   4
ENDBRANCH   1   2
BRANCH   1   6
ATOM      6  C   UNK d   1      52.529  34.618  53.403  0.00  0.00     0.084 C 
BRANCH   6   7
ATOM      7  C   UNK d   1      51.796  34.253  53.387  0.00  0.00     0.259 C 
ATOM      8  N   UNK d   1      51.168  34.614  52.992  0.00  0.00    -0.320 N 
ATOM      9  H   UNK d   1      51.280  35.351  52.612  0.00  0.00     0.169 HD
ATOM     10  O   UNK d   1      51.684  33.520  53.765  0.00  0.00    -0.267 OA
BRANCH   8  11
ATOM     11  C   UNK d   1      50.428  34.251  52.972  0.00  0.00     0.075 C 
BRANCH  11  12
ATOM     12  C   UNK d   1      49.798  34.601  52.558  0.00  0.00     0.017 C 
ATOM     13  C   UNK d   1      49.286  35.124  52.939  0.00  0.00     0.002 C 
ATOM     14  C   UNK d   1      49.685  34.421  51.757  0.00  0.00     0.002 C 
ENDBRANCH  11  12
ENDBRANCH   8  11
ENDBRANCH   6   7
ENDBRANCH   1   6
BRANCH   1  15
ATOM     15  N   UNK d   1      53.332  34.046  54.429  0.00  0.00    -0.347 N 
ATOM     16  H   UNK d   1      52.893  33.423  54.766  0.00  0.00     0.166 HD
BRANCH  15  17
ATOM     17  C   UNK d   0      54.160  34.015  54.406  0.00  0.00     0.073 C 
BRANCH  17  18
ATOM     18  C   UNK d   0      54.549  33.327  54.615  0.00  0.00     0.017 C 
ATOM     19  C   UNK d   0      54.584  33.095  55.406  0.00  0.00     0.002 C 
ATOM     20  C   UNK d   0      54.908  32.865  54.034  0.00  0.00     0.002 C 
ENDBRANCH  17  18
ENDBRANCH  15  17
ENDBRANCH   1  15
TORSDOF 9
ENDMDL
