MODEL 1
REMARK VINA RESULT:      -3.5      0.000      0.000
REMARK  3 active torsions:
REMARK  status: ('A' for Active; 'I' for Inactive)
REMARK       I    between atoms: N_2  and  C_1 
REMARK    1  A    between atoms: C_9  and  C_1 
REMARK    2  A    between atoms: C_6  and  N_5 
REMARK    3  A    between atoms: N_8  and  C_7 
ROOT
ATOM      1  C   UNL d   1      32.942  18.332 -24.341  0.00  0.00     0.265 C 
ATOM      2  N   UNL d   1      32.936  18.911 -23.755  0.00  0.00    -0.269 N 
ATOM      3  N   UNL d   1      32.922  20.066 -22.580  0.00  0.00    -0.285 N 
ATOM      4  C   UNL d   1      32.636  18.727 -23.002  0.00  0.00     0.102 A 
ATOM      5  C   UNL d   1      33.225  19.666 -23.914  0.00  0.00     0.102 A 
ATOM      6  C   UNL d   1      32.630  19.309 -22.413  0.00  0.00     0.101 A 
ATOM      7  C   UNL d   1      33.223  20.250 -23.334  0.00  0.00     0.101 A 
ATOM      8  O   UNL d   1      33.241  18.507 -25.097  0.00  0.00    -0.267 OA
ENDROOT
BRANCH   3   9
ATOM      9  C   UNL d   1      32.916  20.647 -21.992  0.00  0.00     0.170 A 
ATOM     10  N   UNL d   1      32.780  21.431 -22.193  0.00  0.00    -0.129 NA
ATOM     11  N   UNL d   1      32.774  22.010 -21.607  0.00  0.00    -0.129 NA
ATOM     12  C   UNL d   1      32.905  21.808 -20.811  0.00  0.00     0.170 A 
ATOM     13  C   UNL d   1      33.041  21.016 -20.619  0.00  0.00     0.042 A 
ATOM     14  C   UNL d   1      33.047  20.438 -21.205  0.00  0.00     0.042 A 
BRANCH  12  15
ATOM     15  N   UNL d   1      32.899  22.386 -20.225  0.00  0.00    -0.284 N 
ATOM     16  C   UNL d   1      32.556  23.122 -20.371  0.00  0.00     0.108 A 
ATOM     17  C   UNL d   1      32.550  23.700 -19.785  0.00  0.00     0.142 A 
ATOM     18  O   UNL d   1      32.886  23.541 -19.056  0.00  0.00    -0.300 OA
ATOM     19  C   UNL d   1      33.228  22.812 -18.905  0.00  0.00     0.142 A 
ATOM     20  C   UNL d   1      33.241  22.223 -19.485  0.00  0.00     0.108 A 
ENDBRANCH  12  15
ENDBRANCH   3   9
BRANCH   1  21
ATOM     21  C   UNL d   1      32.653  17.572 -24.187  0.00  0.00     0.057 A 
ATOM     22  C   UNL d   1      31.869  17.374 -24.365  0.00  0.00     0.005 A 
ATOM     23  C   UNL d   1      31.586  16.620 -24.211  0.00  0.00     0.000 A 
ATOM     24  C   UNL d   1      30.804  16.434 -24.391  0.00  0.00     0.000 C 
ATOM     25  C   UNL d   1      32.096  16.062 -23.877  0.00  0.00     0.000 A 
ATOM     26  C   UNL d   1      32.881  16.252 -23.696  0.00  0.00     0.000 A 
ATOM     27  C   UNL d   1      33.151  17.007 -23.854  0.00  0.00     0.005 A 
ENDBRANCH   1  21
TORSDOF 3
ENDMDL
