MODEL 1
REMARK VINA RESULT:      18.8      0.000      0.000
REMARK  7 active torsions:
REMARK  status: ('A' for Active; 'I' for Inactive)
REMARK    1  A    between atoms: S_10  and  C_9 
REMARK    2  A    between atoms: C_15  and  S_10 
REMARK    3  A    between atoms: C_11  and  C_15 
REMARK       I    between atoms: N_16  and  C_11 
REMARK    4  A    between atoms: C_24  and  N_16 
REMARK    5  A    between atoms: C_21  and  C_24 
REMARK    6  A    between atoms: C_25  and  C_21 
REMARK    7  A    between atoms: O_23  and  C_25 
ROOT
ATOM      1  C   UNL d   1      46.198 -18.267  43.493  0.00  0.00     0.004 A 
ATOM      2  C   UNL d   1      46.232 -17.844  42.795  0.00  0.00     0.000 A 
ATOM      3  C   UNL d   1      46.298 -19.089  43.500  0.00  0.00     0.039 A 
ATOM      4  C   UNL d   1      46.433 -19.504  42.810  0.00  0.00     0.196 A 
ATOM      5  C   UNL d   1      46.369 -18.259  42.088  0.00  0.00     0.003 A 
ATOM      6  C   UNL d   1      46.471 -19.103  42.096  0.00  0.00     0.039 A 
ATOM      7  C   UNL d   1      46.060 -17.853  44.201  0.00  0.00     0.006 A 
ATOM      8  C   UNL d   1      46.132 -17.023  42.788  0.00  0.00     0.001 A 
ATOM      9  C   UNL d   1      45.961 -17.032  44.194  0.00  0.00     0.030 A 
ATOM     10  O   UNL d   1      46.533 -20.330  42.817  0.00  0.00    -0.287 OA
ATOM     11  C   UNL d   1      45.999 -16.631  43.479  0.00  0.00     0.006 A 
ATOM     12  C   UNL d   1      46.262 -19.512  44.215  0.00  0.00     0.003 A 
ATOM     13  C   UNL d   1      46.405 -17.836  41.374  0.00  0.00     0.000 A 
ATOM     14  C   UNL d   1      46.606 -19.495  41.388  0.00  0.00     0.003 A 
ATOM     15  C   UNL d   1      46.025 -18.276  44.915  0.00  0.00     0.001 A 
ATOM     16  C   UNL d   1      46.117 -19.070  44.955  0.00  0.00     0.000 A 
ATOM     17  C   UNL d   1      46.645 -19.094  40.668  0.00  0.00     0.000 A 
ATOM     18  C   UNL d   1      46.539 -18.217  40.661  0.00  0.00     0.000 A 
ENDROOT
BRANCH   9  19
ATOM     19  S   UNL d   1      45.822 -16.606  44.901  0.00  0.00    -0.081 SA
BRANCH  19  20
ATOM     20  C   UNL d   1      46.038 -15.807  44.953  0.00  0.00     0.098 C 
BRANCH  20  21
ATOM     21  C   UNL d   1      45.491 -15.231  44.909  0.00  0.00     0.286 C 
ATOM     22  O   UNL d   1      44.697 -15.421  44.822  0.00  0.00    -0.265 OA
ATOM     23  N   UNL d   1      45.710 -14.441  44.949  0.00  0.00    -0.206 NA
BRANCH  23  24
ATOM     24  C   UNL d   1      45.154 -13.827  44.905  0.00  0.00     0.104 C 
BRANCH  24  25
ATOM     25  C   UNL d   1      45.359 -13.135  44.530  0.00  0.00     0.047 C 
BRANCH  25  26
ATOM     26  C   UNL d   1      45.113 -13.018  43.757  0.00  0.00     0.118 C 
BRANCH  26  27
ATOM     27  O   UNL d   1      45.330 -12.360  43.346  0.00  0.00    -0.326 OA
ATOM     28  C   UNL d   1      45.361 -12.363  42.526  0.00  0.00     0.181 C 
ENDBRANCH  26  27
ENDBRANCH  25  26
ENDBRANCH  24  25
ENDBRANCH  23  24
ENDBRANCH  20  21
ENDBRANCH  19  20
ENDBRANCH   9  19
TORSDOF 7
ENDMDL
