MODEL 1
REMARK VINA RESULT:       0.6      0.000      0.000
REMARK  2 active torsions:
REMARK  status: ('A' for Active; 'I' for Inactive)
REMARK    1  A    between atoms: C_4  and  S_1 
REMARK    2  A    between atoms: C_6  and  C_4 
ROOT
ATOM      1  C   UNL d   1      45.242 -15.276  36.595  0.00  0.00     0.013 A 
ATOM      2  C   UNL d   1      46.012 -15.500  36.392  0.00  0.00     0.001 A 
ATOM      3  C   UNL d   1      45.108 -14.595  37.025  0.00  0.00     0.001 A 
ATOM      4  C   UNL d   1      45.738 -14.126  37.259  0.00  0.00     0.000 A 
ATOM      5  C   UNL d   1      46.647 -15.032  36.625  0.00  0.00     0.000 A 
ATOM      6  C   UNL d   1      46.515 -14.342  37.060  0.00  0.00     0.000 A 
ENDROOT
BRANCH   1   7
ATOM      7  C   UNL d   1      44.608 -15.748  36.358  0.00  0.00     0.119 C 
BRANCH   7   8
ATOM      8  S   UNL d   1      43.917 -15.771  36.811  0.00  0.00     0.303 S 
ATOM      9  O   UNL d   1      44.283 -16.401  37.317  0.00  0.00    -0.197 OA
ATOM     10  O   UNL d   1      43.487 -15.130  36.330  0.00  0.00    -0.197 OA
ATOM     11  N   UNL d   1      43.266 -15.806  37.252  0.00  0.00    -0.043 N 
ENDBRANCH   7   8
ENDBRANCH   1   7
TORSDOF 2
ENDMDL
MODEL 2
REMARK VINA RESULT:       1.2      7.764      8.029
REMARK  2 active torsions:
REMARK  status: ('A' for Active; 'I' for Inactive)
REMARK    1  A    between atoms: C_4  and  S_1 
REMARK    2  A    between atoms: C_6  and  C_4 
ROOT
ATOM      1  C   UNL d   1      46.174 -19.753  42.899  0.00  0.00     0.013 A 
ATOM      2  C   UNL d   1      46.178 -18.946  42.719  0.00  0.00     0.001 A 
ATOM      3  C   UNL d   1      46.391 -20.304  42.336  0.00  0.00     0.001 A 
ATOM      4  C   UNL d   1      46.616 -20.059  41.587  0.00  0.00     0.000 A 
ATOM      5  C   UNL d   1      46.403 -18.697  41.968  0.00  0.00     0.000 A 
ATOM      6  C   UNL d   1      46.623 -19.251  41.397  0.00  0.00     0.000 A 
ENDROOT
BRANCH   1   7
ATOM      7  C   UNL d   1      45.948 -19.999  43.654  0.00  0.00     0.119 C 
BRANCH   7   8
ATOM      8  S   UNL d   1      46.301 -19.665  44.322  0.00  0.00     0.303 S 
ATOM      9  O   UNL d   1      46.612 -19.007  43.813  0.00  0.00    -0.197 OA
ATOM     10  O   UNL d   1      46.014 -20.309  44.894  0.00  0.00    -0.197 OA
ATOM     11  N   UNL d   1      46.645 -19.333  44.947  0.00  0.00    -0.043 N 
ENDBRANCH   7   8
ENDBRANCH   1   7
TORSDOF 2
ENDMDL
MODEL 3
REMARK VINA RESULT:       2.4      7.257      7.462
REMARK  2 active torsions:
REMARK  status: ('A' for Active; 'I' for Inactive)
REMARK    1  A    between atoms: C_4  and  S_1 
REMARK    2  A    between atoms: C_6  and  C_4 
ROOT
ATOM      1  C   UNL d   1      46.548 -19.060  42.939  0.00  0.00     0.013 A 
ATOM      2  C   UNL d   1      46.631 -18.587  43.612  0.00  0.00     0.001 A 
ATOM      3  C   UNL d   1      46.382 -19.857  43.009  0.00  0.00     0.001 A 
ATOM      4  C   UNL d   1      46.296 -20.194  43.751  0.00  0.00     0.000 A 
ATOM      5  C   UNL d   1      46.544 -18.923  44.358  0.00  0.00     0.000 A 
ATOM      6  C   UNL d   1      46.376 -19.728  44.433  0.00  0.00     0.000 A 
ENDROOT
BRANCH   1   7
ATOM      7  C   UNL d   1      46.636 -18.720  42.192  0.00  0.00     0.119 C 
BRANCH   7   8
ATOM      8  S   UNL d   1      46.051 -18.824  41.617  0.00  0.00     0.303 S 
ATOM      9  O   UNL d   1      45.581 -18.173  41.995  0.00  0.00    -0.197 OA
ATOM     10  O   UNL d   1      46.484 -19.497  41.186  0.00  0.00    -0.197 OA
ATOM     11  N   UNL d   1      45.484 -18.911  41.078  0.00  0.00    -0.043 N 
ENDBRANCH   7   8
ENDBRANCH   1   7
TORSDOF 2
ENDMDL
