MODEL 1
REMARK VINA RESULT:      -2.2      0.000      0.000
REMARK  1 active torsions:
REMARK  status: ('A' for Active; 'I' for Inactive)
REMARK    1  A    between atoms: C_12  and  N_1 
ROOT
ATOM      1  N   UNL d   1      32.835  22.268 -20.752  0.00  0.00    -0.244 N 
ATOM      2  C   UNL d   1      32.878  21.476 -20.879  0.00  0.00     0.251 A 
ATOM      3  C   UNL d   1      32.905  22.584 -21.517  0.00  0.00     0.260 A 
ATOM      4  C   UNL d   1      32.984  22.003 -22.057  0.00  0.00     0.033 A 
ATOM      5  C   UNL d   1      32.967  21.309 -21.661  0.00  0.00     0.125 A 
ATOM      6  C   UNL d   1      33.241  20.762 -24.043  0.00  0.00     0.068 A 
ATOM      7  C   UNL d   1      33.056  21.293 -22.487  0.00  0.00    -0.010 A 
ATOM      8  C   UNL d   1      33.100  21.836 -23.089  0.00  0.00    -0.007 A 
ATOM      9  C   UNL d   1      33.192  21.567 -23.864  0.00  0.00    -0.015 A 
ATOM     10  C   UNL d   1      33.193  20.237 -23.408  0.00  0.00    -0.015 A 
ATOM     11  C   UNL d   1      33.101  20.499 -22.635  0.00  0.00    -0.007 A 
ATOM     12  O   UNL d   1      32.839  21.060 -20.369  0.00  0.00    -0.271 OA
ATOM     13  O   UNL d   1      32.886  23.277 -21.576  0.00  0.00    -0.267 OA
ATOM     14  C   UNL d   1      33.055  19.958 -22.019  0.00  0.00    -0.001 A 
ATOM     15  C   UNL d   1      33.053  22.635 -22.929  0.00  0.00    -0.001 A 
ATOM     16  C   UNL d   1      33.239  22.117 -24.496  0.00  0.00    -0.004 A 
ATOM     17  C   UNL d   1      33.239  19.433 -23.566  0.00  0.00    -0.004 A 
ATOM     18  C   UNL d   1      33.103  19.148 -22.190  0.00  0.00    -0.000 A 
ATOM     19  C   UNL d   1      33.101  23.191 -23.568  0.00  0.00    -0.000 A 
ATOM     20  C   UNL d   1      33.193  22.920 -24.346  0.00  0.00    -0.000 A 
ATOM     21  C   UNL d   1      33.193  18.895 -22.947  0.00  0.00    -0.000 A 
ENDROOT
BRANCH   1  22
ATOM     22  C   UNL d   1      32.740  22.670 -19.995  0.00  0.00     0.089 A 
ATOM     23  C   UNL d   1      33.241  22.447 -19.326  0.00  0.00     0.117 A 
ATOM     24  N   UNL d   1      33.149  22.851 -18.557  0.00  0.00    -0.241 NA
ATOM     25  C   UNL d   1      32.548  23.484 -18.459  0.00  0.00     0.099 A 
ATOM     26  C   UNL d   1      32.050  23.701 -19.133  0.00  0.00     0.022 A 
ATOM     27  C   UNL d   1      32.147  23.292 -19.904  0.00  0.00     0.021 A 
ENDBRANCH   1  22
TORSDOF 1
ENDMDL
MODEL 2
REMARK VINA RESULT:      -1.7      1.568      3.852
REMARK  1 active torsions:
REMARK  status: ('A' for Active; 'I' for Inactive)
REMARK    1  A    between atoms: C_12  and  N_1 
ROOT
ATOM      1  N   UNL d   1      33.235  19.877 -22.762  0.00  0.00    -0.244 N 
ATOM      2  C   UNL d   1      33.232  20.100 -21.990  0.00  0.00     0.251 A 
ATOM      3  C   UNL d   1      33.237  20.602 -23.167  0.00  0.00     0.260 A 
ATOM      4  C   UNL d   1      33.235  21.213 -22.654  0.00  0.00     0.033 A 
ATOM      5  C   UNL d   1      33.232  20.902 -21.917  0.00  0.00     0.125 A 
ATOM      6  C   UNL d   1      33.232  23.347 -21.657  0.00  0.00     0.068 A 
ATOM      7  C   UNL d   1      33.233  21.729 -22.000  0.00  0.00    -0.010 A 
ATOM      8  C   UNL d   1      33.235  22.263 -22.610  0.00  0.00    -0.007 A 
ATOM      9  C   UNL d   1      33.235  23.070 -22.435  0.00  0.00    -0.015 A 
ATOM     10  C   UNL d   1      33.229  22.777 -21.060  0.00  0.00    -0.015 A 
ATOM     11  C   UNL d   1      33.230  21.974 -21.229  0.00  0.00    -0.007 A 
ATOM     12  O   UNL d   1      33.230  19.642 -21.517  0.00  0.00    -0.271 OA
ATOM     13  O   UNL d   1      33.240  20.577 -23.863  0.00  0.00    -0.267 OA
ATOM     14  C   UNL d   1      33.227  21.424 -20.619  0.00  0.00    -0.001 A 
ATOM     15  C   UNL d   1      33.238  22.006 -23.385  0.00  0.00    -0.001 A 
ATOM     16  C   UNL d   1      33.237  23.634 -23.057  0.00  0.00    -0.004 A 
ATOM     17  C   UNL d   1      33.226  23.033 -20.281  0.00  0.00    -0.004 A 
ATOM     18  C   UNL d   1      33.224  21.694 -19.834  0.00  0.00    -0.000 A 
ATOM     19  C   UNL d   1      33.241  22.577 -24.013  0.00  0.00    -0.000 A 
ATOM     20  C   UNL d   1      33.240  23.387 -23.837  0.00  0.00    -0.000 A 
ATOM     21  C   UNL d   1      33.224  22.481 -19.673  0.00  0.00    -0.000 A 
ENDROOT
BRANCH   1  22
ATOM     22  C   UNL d   1      33.236  19.072 -23.071  0.00  0.00     0.089 A 
ATOM     23  C   UNL d   1      33.235  18.942 -23.927  0.00  0.00     0.117 A 
ATOM     24  N   UNL d   1      33.236  18.129 -24.245  0.00  0.00    -0.241 NA
ATOM     25  C   UNL d   1      33.239  17.441 -23.701  0.00  0.00     0.099 A 
ATOM     26  C   UNL d   1      33.240  17.578 -22.846  0.00  0.00     0.022 A 
ATOM     27  C   UNL d   1      33.239  18.398 -22.531  0.00  0.00     0.021 A 
ENDBRANCH   1  22
TORSDOF 1
ENDMDL
MODEL 3
REMARK VINA RESULT:      -0.2      0.738      2.408
REMARK  1 active torsions:
REMARK  status: ('A' for Active; 'I' for Inactive)
REMARK    1  A    between atoms: C_12  and  N_1 
ROOT
ATOM      1  N   UNL d   1      33.107  21.527 -20.967  0.00  0.00    -0.244 N 
ATOM      2  C   UNL d   1      33.122  21.872 -21.693  0.00  0.00     0.251 A 
ATOM      3  C   UNL d   1      33.130  20.716 -21.146  0.00  0.00     0.260 A 
ATOM      4  C   UNL d   1      33.156  20.600 -21.935  0.00  0.00     0.033 A 
ATOM      5  C   UNL d   1      33.151  21.322 -22.279  0.00  0.00     0.125 A 
ATOM      6  C   UNL d   1      33.240  19.667 -24.096  0.00  0.00     0.068 A 
ATOM      7  C   UNL d   1      33.180  20.649 -22.766  0.00  0.00    -0.010 A 
ATOM      8  C   UNL d   1      33.193  19.844 -22.664  0.00  0.00    -0.007 A 
ATOM      9  C   UNL d   1      33.223  19.357 -23.330  0.00  0.00    -0.015 A 
ATOM     10  C   UNL d   1      33.225  20.489 -24.164  0.00  0.00    -0.015 A 
ATOM     11  C   UNL d   1      33.195  20.978 -23.505  0.00  0.00    -0.007 A 
ATOM     12  O   UNL d   1      33.110  22.529 -21.742  0.00  0.00    -0.271 OA
ATOM     13  O   UNL d   1      33.123  20.273 -20.609  0.00  0.00    -0.267 OA
ATOM     14  C   UNL d   1      33.181  21.794 -23.596  0.00  0.00    -0.001 A 
ATOM     15  C   UNL d   1      33.178  19.522 -21.914  0.00  0.00    -0.001 A 
ATOM     16  C   UNL d   1      33.238  18.523 -23.239  0.00  0.00    -0.004 A 
ATOM     17  C   UNL d   1      33.241  20.815 -24.916  0.00  0.00    -0.004 A 
ATOM     18  C   UNL d   1      33.197  22.113 -24.362  0.00  0.00    -0.000 A 
ATOM     19  C   UNL d   1      33.192  18.678 -21.823  0.00  0.00    -0.000 A 
ATOM     20  C   UNL d   1      33.223  18.190 -22.492  0.00  0.00    -0.000 A 
ATOM     21  C   UNL d   1      33.226  21.631 -25.004  0.00  0.00    -0.000 A 
ENDROOT
BRANCH   1  22
ATOM     22  C   UNL d   1      33.076  21.923 -20.202  0.00  0.00     0.089 A 
ATOM     23  C   UNL d   1      32.888  22.767 -20.164  0.00  0.00     0.117 A 
ATOM     24  N   UNL d   1      32.855  23.173 -19.392  0.00  0.00    -0.241 NA
ATOM     25  C   UNL d   1      33.013  22.729 -18.651  0.00  0.00     0.099 A 
ATOM     26  C   UNL d   1      33.201  21.885 -18.697  0.00  0.00     0.022 A 
ATOM     27  C   UNL d   1      33.233  21.481 -19.476  0.00  0.00     0.021 A 
ENDBRANCH   1  22
TORSDOF 1
ENDMDL
MODEL 4
REMARK VINA RESULT:      -0.1      2.511      4.686
REMARK  1 active torsions:
REMARK  status: ('A' for Active; 'I' for Inactive)
REMARK    1  A    between atoms: C_12  and  N_1 
ROOT
ATOM      1  N   UNL d   1      32.690  17.962 -23.520  0.00  0.00    -0.244 N 
ATOM      2  C   UNL d   1      32.747  18.274 -22.782  0.00  0.00     0.251 A 
ATOM      3  C   UNL d   1      32.786  18.624 -24.012  0.00  0.00     0.260 A 
ATOM      4  C   UNL d   1      32.893  19.286 -23.579  0.00  0.00     0.033 A 
ATOM      5  C   UNL d   1      32.869  19.070 -22.809  0.00  0.00     0.125 A 
ATOM      6  C   UNL d   1      33.241  21.500 -22.855  0.00  0.00     0.068 A 
ATOM      7  C   UNL d   1      32.989  19.871 -22.994  0.00  0.00    -0.010 A 
ATOM      8  C   UNL d   1      33.050  20.321 -23.666  0.00  0.00    -0.007 A 
ATOM      9  C   UNL d   1      33.176  21.134 -23.593  0.00  0.00    -0.015 A 
ATOM     10  C   UNL d   1      33.174  21.013 -22.192  0.00  0.00    -0.015 A 
ATOM     11  C   UNL d   1      33.049  20.204 -22.260  0.00  0.00    -0.007 A 
ATOM     12  O   UNL d   1      32.693  17.883 -22.256  0.00  0.00    -0.271 OA
ATOM     13  O   UNL d   1      32.761  18.515 -24.699  0.00  0.00    -0.267 OA
ATOM     14  C   UNL d   1      32.986  19.739 -21.586  0.00  0.00    -0.001 A 
ATOM     15  C   UNL d   1      32.988  19.975 -24.403  0.00  0.00    -0.001 A 
ATOM     16  C   UNL d   1      33.241  21.612 -24.280  0.00  0.00    -0.004 A 
ATOM     17  C   UNL d   1      33.236  21.359 -21.451  0.00  0.00    -0.004 A 
ATOM     18  C   UNL d   1      33.050  20.099 -20.841  0.00  0.00    -0.000 A 
ATOM     19  C   UNL d   1      33.054  20.459 -25.097  0.00  0.00    -0.000 A 
ATOM     20  C   UNL d   1      33.180  21.275 -25.023  0.00  0.00    -0.000 A 
ATOM     21  C   UNL d   1      33.173  20.891 -20.779  0.00  0.00    -0.000 A 
ENDROOT
BRANCH   1  22
ATOM     22  C   UNL d   1      32.561  17.135 -23.726  0.00  0.00     0.089 A 
ATOM     23  C   UNL d   1      33.239  16.606 -23.824  0.00  0.00     0.117 A 
ATOM     24  N   UNL d   1      33.114  15.768 -24.033  0.00  0.00    -0.241 NA
ATOM     25  C   UNL d   1      32.301  15.457 -24.145  0.00  0.00     0.099 A 
ATOM     26  C   UNL d   1      31.627  15.991 -24.046  0.00  0.00     0.022 A 
ATOM     27  C   UNL d   1      31.758  16.834 -23.835  0.00  0.00     0.021 A 
ENDBRANCH   1  22
TORSDOF 1
ENDMDL
MODEL 5
REMARK VINA RESULT:       0.2      5.245      6.577
REMARK  1 active torsions:
REMARK  status: ('A' for Active; 'I' for Inactive)
REMARK    1  A    between atoms: C_12  and  N_1 
ROOT
ATOM      1  N   UNL d   1      29.301  16.354 -23.760  0.00  0.00    -0.244 N 
ATOM      2  C   UNL d   1      29.896  15.986 -23.365  0.00  0.00     0.251 A 
ATOM      3  C   UNL d   1      29.689  16.982 -24.141  0.00  0.00     0.260 A 
ATOM      4  C   UNL d   1      30.469  16.976 -23.973  0.00  0.00     0.033 A 
ATOM      5  C   UNL d   1      30.601  16.354 -23.489  0.00  0.00     0.125 A 
ATOM      6  C   UNL d   1      32.772  17.453 -23.843  0.00  0.00     0.068 A 
ATOM      7  C   UNL d   1      31.245  16.833 -23.706  0.00  0.00    -0.010 A 
ATOM      8  C   UNL d   1      31.365  17.491 -24.165  0.00  0.00    -0.007 A 
ATOM      9  C   UNL d   1      32.129  17.798 -24.231  0.00  0.00    -0.015 A 
ATOM     10  C   UNL d   1      32.615  16.785 -23.385  0.00  0.00    -0.015 A 
ATOM     11  C   UNL d   1      31.857  16.476 -23.316  0.00  0.00    -0.007 A 
ATOM     12  O   UNL d   1      29.766  15.453 -23.001  0.00  0.00    -0.271 OA
ATOM     13  O   UNL d   1      29.299  17.405 -24.533  0.00  0.00    -0.267 OA
ATOM     14  C   UNL d   1      31.724  15.810 -22.854  0.00  0.00    -0.001 A 
ATOM     15  C   UNL d   1      30.740  17.843 -24.554  0.00  0.00    -0.001 A 
ATOM     16  C   UNL d   1      32.268  18.478 -24.702  0.00  0.00    -0.004 A 
ATOM     17  C   UNL d   1      33.241  16.429 -22.992  0.00  0.00    -0.004 A 
ATOM     18  C   UNL d   1      32.364  15.458 -22.461  0.00  0.00    -0.000 A 
ATOM     19  C   UNL d   1      30.882  18.531 -25.030  0.00  0.00    -0.000 A 
ATOM     20  C   UNL d   1      31.648  18.839 -25.097  0.00  0.00    -0.000 A 
ATOM     21  C   UNL d   1      33.104  15.764 -22.531  0.00  0.00    -0.000 A 
ENDROOT
BRANCH   1  22
ATOM     22  C   UNL d   1      28.468  16.132 -23.771  0.00  0.00     0.089 A 
ATOM     23  C   UNL d   1      28.153  15.683 -24.441  0.00  0.00     0.117 A 
ATOM     24  N   UNL d   1      27.311  15.456 -24.458  0.00  0.00    -0.241 NA
ATOM     25  C   UNL d   1      26.779  15.680 -23.796  0.00  0.00     0.099 A 
ATOM     26  C   UNL d   1      27.100  16.129 -23.130  0.00  0.00     0.022 A 
ATOM     27  C   UNL d   1      27.949  16.356 -23.118  0.00  0.00     0.021 A 
ENDBRANCH   1  22
TORSDOF 1
ENDMDL
