MODEL 1
REMARK VINA RESULT:      -5.0      0.000      0.000
REMARK  4 active torsions:
REMARK  status: ('A' for Active; 'I' for Inactive)
REMARK    1  A    between atoms: C_2  and  S_1 
REMARK    2  A    between atoms: N_11  and  S_1 
REMARK    3  A    between atoms: C_7  and  C_19 
REMARK    4  A    between atoms: C_19  and  N_11 
ROOT
ATOM      1  C   UNL d   1      57.732  -0.076  31.382  0.00  0.00     0.133 C 
ENDROOT
BRANCH   1   2
ATOM      2  C   UNL d   1      57.092  -0.101  31.909  0.00  0.00     0.120 A 
ATOM      3  N   UNL d   1      56.706   0.548  32.199  0.00  0.00    -0.225 NA
ATOM      4  C   UNL d   1      56.098   0.280  32.709  0.00  0.00     0.148 A 
ATOM      5  C   UNL d   1      55.533   0.681  33.156  0.00  0.00     0.037 A 
ATOM      6  N   UNL d   1      56.126  -0.543  32.721  0.00  0.00    -0.288 N 
ATOM      7  C   UNL d   1      54.995   0.259  33.616  0.00  0.00     0.004 A 
ATOM      8  C   UNL d   1      54.433   0.668  34.060  0.00  0.00     0.000 C 
ATOM      9  C   UNL d   1      55.023  -0.563  33.627  0.00  0.00     0.019 A 
ATOM     10  C   UNL d   1      55.588  -0.964  33.180  0.00  0.00     0.082 A 
ATOM     11  C   UNL d   1      56.745  -0.785  32.222  0.00  0.00     0.102 A 
ENDBRANCH   1   2
BRANCH   1  12
ATOM     12  N   UNL d   1      57.604   0.104  30.587  0.00  0.00    -0.155 NA
BRANCH  12  13
ATOM     13  S   UNL d   1      58.241   0.102  30.058  0.00  0.00     0.291 S 
ATOM     14  O   UNL d   1      58.767   0.230  30.693  0.00  0.00    -0.198 OA
ATOM     15  O   UNL d   1      57.711  -0.027  29.426  0.00  0.00    -0.198 OA
BRANCH  13  16
ATOM     16  C   UNL d   1      58.875   0.098  29.529  0.00  0.00     0.135 A 
ATOM     17  S   UNL d   1      59.564   0.530  29.599  0.00  0.00    -0.062 SA
ATOM     18  C   UNL d   1      60.047   0.364  28.951  0.00  0.00     0.088 A 
ATOM     19 CL   UNL d   1      60.791   0.682  28.808  0.00  0.00    -0.075 Cl
ATOM     20  C   UNL d   1      59.642  -0.185  28.472  0.00  0.00     0.019 A 
ATOM     21  C   UNL d   1      58.919  -0.348  28.830  0.00  0.00     0.021 A 
ENDBRANCH  13  16
ENDBRANCH  12  13
ENDBRANCH   1  12
TORSDOF 4
ENDMDL
MODEL 2
REMARK VINA RESULT:      -4.8      2.576      5.100
REMARK  4 active torsions:
REMARK  status: ('A' for Active; 'I' for Inactive)
REMARK    1  A    between atoms: C_2  and  S_1 
REMARK    2  A    between atoms: N_11  and  S_1 
REMARK    3  A    between atoms: C_7  and  C_19 
REMARK    4  A    between atoms: C_19  and  N_11 
ROOT
ATOM      1  C   UNL d   1      57.111  -0.177  31.333  0.00  0.00     0.133 C 
ENDROOT
BRANCH   1   2
ATOM      2  C   UNL d   1      57.619  -0.463  30.742  0.00  0.00     0.120 A 
ATOM      3  N   UNL d   1      57.674  -1.237  30.514  0.00  0.00    -0.225 NA
ATOM      4  C   UNL d   1      58.248  -1.287  29.907  0.00  0.00     0.148 A 
ATOM      5  C   UNL d   1      58.537  -1.923  29.467  0.00  0.00     0.037 A 
ATOM      6  N   UNL d   1      58.538  -0.527  29.773  0.00  0.00    -0.288 N 
ATOM      7  C   UNL d   1      59.114  -1.799  28.893  0.00  0.00     0.004 A 
ATOM      8  C   UNL d   1      59.397  -2.440  28.458  0.00  0.00     0.000 C 
ATOM      9  C   UNL d   1      59.404  -1.040  28.760  0.00  0.00     0.019 A 
ATOM     10  C   UNL d   1      59.115  -0.405  29.199  0.00  0.00     0.082 A 
ATOM     11  C   UNL d   1      58.147  -0.010  30.292  0.00  0.00     0.102 A 
ENDBRANCH   1   2
BRANCH   1  12
ATOM     12  N   UNL d   1      57.011  -0.604  32.031  0.00  0.00    -0.155 NA
BRANCH  12  13
ATOM     13  S   UNL d   1      56.484  -0.329  32.608  0.00  0.00     0.291 S 
ATOM     14  O   UNL d   1      56.163  -1.095  32.677  0.00  0.00    -0.198 OA
ATOM     15  O   UNL d   1      56.808   0.437  32.534  0.00  0.00    -0.198 OA
BRANCH  13  16
ATOM     16  C   UNL d   1      55.959  -0.053  33.181  0.00  0.00     0.135 A 
ATOM     17  S   UNL d   1      56.151   0.174  33.942  0.00  0.00    -0.062 SA
ATOM     18  C   UNL d   1      55.463   0.412  34.329  0.00  0.00     0.088 A 
ATOM     19 CL   UNL d   1      55.412   0.682  35.103  0.00  0.00    -0.075 Cl
ATOM     20  C   UNL d   1      54.832   0.330  33.790  0.00  0.00     0.019 A 
ATOM     21  C   UNL d   1      55.140   0.043  33.083  0.00  0.00     0.021 A 
ENDBRANCH  13  16
ENDBRANCH  12  13
ENDBRANCH   1  12
TORSDOF 4
ENDMDL
MODEL 3
REMARK VINA RESULT:      -2.8      1.070      1.439
REMARK  4 active torsions:
REMARK  status: ('A' for Active; 'I' for Inactive)
REMARK    1  A    between atoms: C_2  and  S_1 
REMARK    2  A    between atoms: N_11  and  S_1 
REMARK    3  A    between atoms: C_7  and  C_19 
REMARK    4  A    between atoms: C_19  and  N_11 
ROOT
ATOM      1  C   UNL d   1      58.331   0.681  30.862  0.00  0.00     0.133 C 
ENDROOT
BRANCH   1   2
ATOM      2  C   UNL d   1      57.823   0.564  31.508  0.00  0.00     0.120 A 
ATOM      3  N   UNL d   1      57.055   0.315  31.454  0.00  0.00    -0.225 NA
ATOM      4  C   UNL d   1      56.744   0.270  32.230  0.00  0.00     0.148 A 
ATOM      5  C   UNL d   1      56.002   0.054  32.518  0.00  0.00     0.037 A 
ATOM      6  N   UNL d   1      57.339   0.497  32.753  0.00  0.00    -0.288 N 
ATOM      7  C   UNL d   1      55.855   0.063  33.329  0.00  0.00     0.004 A 
ATOM      8  C   UNL d   1      55.110  -0.155  33.608  0.00  0.00     0.000 C 
ATOM      9  C   UNL d   1      56.450   0.289  33.850  0.00  0.00     0.019 A 
ATOM     10  C   UNL d   1      57.192   0.506  33.562  0.00  0.00     0.082 A 
ATOM     11  C   UNL d   1      58.015   0.681  32.305  0.00  0.00     0.102 A 
ENDBRANCH   1   2
BRANCH   1  12
ATOM     12  N   UNL d   1      58.168   0.315  30.140  0.00  0.00    -0.155 NA
BRANCH  12  13
ATOM     13  S   UNL d   1      58.785  -0.027  29.706  0.00  0.00     0.291 S 
ATOM     14  O   UNL d   1      58.230  -0.355  29.178  0.00  0.00    -0.198 OA
ATOM     15  O   UNL d   1      59.337   0.304  30.238  0.00  0.00    -0.198 OA
BRANCH  13  16
ATOM     16  C   UNL d   1      59.402  -0.366  29.276  0.00  0.00     0.135 A 
ATOM     17  S   UNL d   1      59.609  -1.156  29.270  0.00  0.00    -0.062 SA
ATOM     18  C   UNL d   1      60.255  -1.256  28.767  0.00  0.00     0.088 A 
ATOM     19 CL   UNL d   1      60.636  -1.966  28.604  0.00  0.00    -0.075 Cl
ATOM     20  C   UNL d   1      60.448  -0.507  28.456  0.00  0.00     0.019 A 
ATOM     21  C   UNL d   1      59.921   0.041  28.771  0.00  0.00     0.021 A 
ENDBRANCH  13  16
ENDBRANCH  12  13
ENDBRANCH   1  12
TORSDOF 4
ENDMDL
