MODEL 1
REMARK VINA RESULT:      27.5      0.000      0.000
REMARK  4 active torsions:
REMARK  status: ('A' for Active; 'I' for Inactive)
REMARK       I    between atoms: C_7  and  N_9 
REMARK    1  A    between atoms: C_15  and  C_7 
REMARK    2  A    between atoms: N_9  and  C_12 
REMARK    3  A    between atoms: C_16  and  C_15 
REMARK    4  A    between atoms: C_17  and  C_16 
ROOT
ATOM      1  N   UNL d   1     -52.457  23.474  33.423  0.00  0.00    -0.169 NA
ATOM      2  C   UNL d   1     -52.913  24.156  33.446  0.00  0.00     0.282 A 
ATOM      3  C   UNL d   1     -51.671  23.696  33.367  0.00  0.00     0.282 A 
ATOM      4  C   UNL d   1     -52.401  24.807  33.404  0.00  0.00     0.064 A 
ATOM      5  C   UNL d   1     -51.639  24.515  33.355  0.00  0.00     0.063 A 
ATOM      6  C   UNL d   1     -51.005  25.041  33.306  0.00  0.00     0.006 A 
ATOM      7  C   UNL d   1     -52.547  25.619  33.404  0.00  0.00     0.024 A 
ATOM      8  O   UNL d   1     -53.733  24.170  33.502  0.00  0.00    -0.265 OA
ATOM      9  O   UNL d   1     -51.022  23.191  33.329  0.00  0.00    -0.265 OA
ATOM     10  C   UNL d   1     -51.917  26.140  33.355  0.00  0.00     0.085 A 
ATOM     11  C   UNL d   1     -51.140  25.854  33.306  0.00  0.00     0.019 A 
ENDROOT
BRANCH  10  12
ATOM     12  N   UNL d   1     -52.062  26.952  33.355  0.00  0.00    -0.208 NA
ATOM     13  C   UNL d   1     -51.437  27.479  33.426  0.00  0.00     0.279 C 
ATOM     14  O   UNL d   1     -51.587  28.286  33.426  0.00  0.00    -0.265 OA
BRANCH  13  15
ATOM     15  C   UNL d   1     -50.672  27.207  33.497  0.00  0.00     0.062 C 
BRANCH  15  16
ATOM     16  C   UNL d   1     -50.123  27.655  33.921  0.00  0.00     0.005 C 
BRANCH  16  17
ATOM     17  C   UNL d   1     -50.041  27.541  34.736  0.00  0.00     0.000 C 
ATOM     18  C   UNL d   1     -49.396  27.120  35.033  0.00  0.00     0.000 C 
ENDBRANCH  16  17
ENDBRANCH  15  16
ENDBRANCH  13  15
ENDBRANCH  10  12
TORSDOF 4
ENDMDL
