MODEL 1
REMARK VINA RESULT:      -4.8      0.000      0.000
REMARK  7 active torsions:
REMARK  status: ('A' for Active; 'I' for Inactive)
REMARK    1  A    between atoms: C_11  and  C_1 
REMARK    2  A    between atoms: C_12  and  C_3 
REMARK    3  A    between atoms: C_10  and  C_5 
REMARK    4  A    between atoms: O_21  and  C_11 
REMARK    5  A    between atoms: O_22  and  C_12 
REMARK    6  A    between atoms: O_23  and  C_14 
REMARK    7  A    between atoms: O_24  and  C_17 
ROOT
ATOM      1  C   UNL d   1     -46.984  12.702  22.776  0.00  0.00     0.075 A 
ATOM      2  C   UNL d   1     -47.015  14.346  22.799  0.00  0.00     0.121 A 
ATOM      3  C   UNL d   1     -46.281  13.137  22.717  0.00  0.00     0.099 A 
ATOM      4  C   UNL d   1     -47.721  13.919  22.858  0.00  0.00     0.058 A 
ATOM      5  C   UNL d   1     -47.699  13.092  22.846  0.00  0.00     0.014 A 
ATOM      6  S   UNL d   1     -46.299  13.956  22.728  0.00  0.00    -0.062 SA
ATOM      7  N   UNL d   1     -47.207  15.146  22.826  0.00  0.00    -0.195 NA
ATOM      8  C   UNL d   1     -48.020  15.218  22.901  0.00  0.00     0.311 A 
ATOM      9  S   UNL d   1     -48.342  14.458  22.921  0.00  0.00    -0.024 SA
ATOM     10  O   UNL d   1     -48.450  15.921  22.949  0.00  0.00    -0.258 OA
ENDROOT
BRANCH   5  11
ATOM     11  C   UNL d   1     -48.403  12.668  22.905  0.00  0.00     0.003 A 
ATOM     12  C   UNL d   1     -48.886  12.585  22.253  0.00  0.00     0.026 A 
ATOM     13  C   UNL d   1     -49.591  12.159  22.317  0.00  0.00     0.116 A 
ATOM     14  C   UNL d   1     -49.804  11.821  23.040  0.00  0.00     0.116 A 
ATOM     15  C   UNL d   1     -49.311  11.909  23.696  0.00  0.00     0.026 A 
ATOM     16  C   UNL d   1     -48.614  12.330  23.631  0.00  0.00     0.002 A 
BRANCH  13  17
ATOM     17  O   UNL d   1     -50.081  12.073  21.659  0.00  0.00    -0.326 OA
ATOM     18  C   UNL d   1     -50.312  12.740  21.228  0.00  0.00     0.181 C 
ENDBRANCH  13  17
BRANCH  14  19
ATOM     19  O   UNL d   1     -50.510  11.395  23.104  0.00  0.00    -0.326 OA
ATOM     20  C   UNL d   1     -50.592  10.821  23.690  0.00  0.00     0.181 C 
ENDBRANCH  14  19
ENDBRANCH   5  11
BRANCH   1  21
ATOM     21  C   UNL d   1     -46.963  11.880  22.764  0.00  0.00     0.296 C 
ATOM     22  O   UNL d   1     -46.940  11.476  22.044  0.00  0.00    -0.259 OA
BRANCH  21  23
ATOM     23  O   UNL d   1     -46.964  11.457  23.472  0.00  0.00    -0.296 OA
ATOM     24  C   UNL d   1     -46.599  10.722  23.508  0.00  0.00     0.185 C 
ENDBRANCH  21  23
ENDBRANCH   1  21
BRANCH   3  25
ATOM     25  C   UNL d   1     -45.565  12.747  22.647  0.00  0.00     0.302 C 
ATOM     26  O   UNL d   1     -45.182  12.448  23.313  0.00  0.00    -0.259 OA
BRANCH  25  27
ATOM     27  O   UNL d   1     -45.220  12.650  21.903  0.00  0.00    -0.295 OA
ATOM     28  C   UNL d   1     -44.411  12.788  21.806  0.00  0.00     0.185 C 
ENDBRANCH  25  27
ENDBRANCH   3  25
TORSDOF 7
ENDMDL
MODEL 2
REMARK VINA RESULT:      -4.8      1.511      4.123
REMARK  7 active torsions:
REMARK  status: ('A' for Active; 'I' for Inactive)
REMARK    1  A    between atoms: C_11  and  C_1 
REMARK    2  A    between atoms: C_12  and  C_3 
REMARK    3  A    between atoms: C_10  and  C_5 
REMARK    4  A    between atoms: O_21  and  C_11 
REMARK    5  A    between atoms: O_22  and  C_12 
REMARK    6  A    between atoms: O_23  and  C_14 
REMARK    7  A    between atoms: O_24  and  C_17 
ROOT
ATOM      1  C   UNL d   1     -48.760  14.105  22.749  0.00  0.00     0.075 A 
ATOM      2  C   UNL d   1     -49.847  12.986  23.268  0.00  0.00     0.121 A 
ATOM      3  C   UNL d   1     -49.534  14.329  22.942  0.00  0.00     0.099 A 
ATOM      4  C   UNL d   1     -49.076  12.754  23.078  0.00  0.00     0.058 A 
ATOM      5  C   UNL d   1     -48.533  13.322  22.817  0.00  0.00     0.014 A 
ATOM      6  S   UNL d   1     -50.075  13.769  23.200  0.00  0.00    -0.062 SA
ATOM      7  N   UNL d   1     -50.255  12.311  23.506  0.00  0.00    -0.195 NA
ATOM      8  C   UNL d   1     -49.747  11.669  23.466  0.00  0.00     0.311 A 
ATOM      9  S   UNL d   1     -49.015  11.942  23.200  0.00  0.00    -0.024 SA
ATOM     10  O   UNL d   1     -49.928  10.886  23.655  0.00  0.00    -0.258 OA
ENDROOT
BRANCH   5  11
ATOM     11  C   UNL d   1     -47.766  13.090  22.628  0.00  0.00     0.003 A 
ATOM     12  C   UNL d   1     -47.263  12.825  23.214  0.00  0.00     0.026 A 
ATOM     13  C   UNL d   1     -46.494  12.594  23.019  0.00  0.00     0.116 A 
ATOM     14  C   UNL d   1     -46.238  12.631  22.235  0.00  0.00     0.116 A 
ATOM     15  C   UNL d   1     -46.751  12.901  21.647  0.00  0.00     0.026 A 
ATOM     16  C   UNL d   1     -47.512  13.129  21.841  0.00  0.00     0.002 A 
BRANCH  13  17
ATOM     17  O   UNL d   1     -45.984  12.325  23.610  0.00  0.00    -0.326 OA
ATOM     18  C   UNL d   1     -45.845  11.515  23.696  0.00  0.00     0.181 C 
ENDBRANCH  13  17
BRANCH  14  19
ATOM     19  O   UNL d   1     -45.468  12.400  22.040  0.00  0.00    -0.326 OA
ATOM     20  C   UNL d   1     -45.033  12.837  21.494  0.00  0.00     0.181 C 
ENDBRANCH  14  19
ENDBRANCH   5  11
BRANCH   1  21
ATOM     21  C   UNL d   1     -48.220  14.669  22.490  0.00  0.00     0.296 C 
ATOM     22  O   UNL d   1     -48.182  14.869  21.690  0.00  0.00    -0.259 OA
BRANCH  21  23
ATOM     23  O   UNL d   1     -47.716  15.035  23.030  0.00  0.00    -0.296 OA
ATOM     24  C   UNL d   1     -47.124  15.537  22.759  0.00  0.00     0.185 C 
ENDBRANCH  21  23
ENDBRANCH   1  21
BRANCH   3  25
ATOM     25  C   UNL d   1     -49.762  15.111  22.874  0.00  0.00     0.302 C 
ATOM     26  O   UNL d   1     -49.879  15.452  22.133  0.00  0.00    -0.259 OA
BRANCH  25  27
ATOM     27  O   UNL d   1     -49.875  15.567  23.553  0.00  0.00    -0.295 OA
ATOM     28  C   UNL d   1     -50.612  15.912  23.696  0.00  0.00     0.185 C 
ENDBRANCH  25  27
ENDBRANCH   3  25
TORSDOF 7
ENDMDL
MODEL 3
REMARK VINA RESULT:      -4.1      1.377      1.932
REMARK  7 active torsions:
REMARK  status: ('A' for Active; 'I' for Inactive)
REMARK    1  A    between atoms: C_11  and  C_1 
REMARK    2  A    between atoms: C_12  and  C_3 
REMARK    3  A    between atoms: C_10  and  C_5 
REMARK    4  A    between atoms: O_21  and  C_11 
REMARK    5  A    between atoms: O_22  and  C_12 
REMARK    6  A    between atoms: O_23  and  C_14 
REMARK    7  A    between atoms: O_24  and  C_17 
ROOT
ATOM      1  C   UNL d   1     -47.495  12.540  22.927  0.00  0.00     0.075 A 
ATOM      2  C   UNL d   1     -46.496  13.845  22.960  0.00  0.00     0.121 A 
ATOM      3  C   UNL d   1     -46.729  12.476  23.237  0.00  0.00     0.099 A 
ATOM      4  C   UNL d   1     -47.259  13.918  22.648  0.00  0.00     0.058 A 
ATOM      5  C   UNL d   1     -47.758  13.257  22.634  0.00  0.00     0.014 A 
ATOM      6  S   UNL d   1     -46.233  13.128  23.252  0.00  0.00    -0.062 SA
ATOM      7  N   UNL d   1     -46.135  14.583  22.900  0.00  0.00    -0.195 NA
ATOM      8  C   UNL d   1     -46.664  15.107  22.558  0.00  0.00     0.311 A 
ATOM      9  S   UNL d   1     -47.363  14.697  22.400  0.00  0.00    -0.024 SA
ATOM     10  O   UNL d   1     -46.530  15.906  22.395  0.00  0.00    -0.258 OA
ENDROOT
BRANCH   5  11
ATOM     11  C   UNL d   1     -48.517  13.330  22.324  0.00  0.00     0.003 A 
ATOM     12  C   UNL d   1     -49.116  13.648  22.778  0.00  0.00     0.026 A 
ATOM     13  C   UNL d   1     -49.876  13.719  22.463  0.00  0.00     0.116 A 
ATOM     14  C   UNL d   1     -50.026  13.469  21.690  0.00  0.00     0.116 A 
ATOM     15  C   UNL d   1     -49.417  13.149  21.235  0.00  0.00     0.026 A 
ATOM     16  C   UNL d   1     -48.665  13.079  21.548  0.00  0.00     0.002 A 
BRANCH  13  17
ATOM     17  O   UNL d   1     -50.482  14.040  22.920  0.00  0.00    -0.326 OA
ATOM     18  C   UNL d   1     -50.330  14.278  23.698  0.00  0.00     0.181 C 
ENDBRANCH  13  17
BRANCH  14  19
ATOM     19  O   UNL d   1     -50.787  13.541  21.374  0.00  0.00    -0.326 OA
ATOM     20  C   UNL d   1     -50.920  13.370  20.579  0.00  0.00     0.181 C 
ENDBRANCH  14  19
ENDBRANCH   5  11
BRANCH   1  21
ATOM     21  C   UNL d   1     -47.991  11.883  22.913  0.00  0.00     0.296 C 
ATOM     22  O   UNL d   1     -48.495  11.731  23.549  0.00  0.00    -0.259 OA
BRANCH  21  23
ATOM     23  O   UNL d   1     -47.984  11.375  22.263  0.00  0.00    -0.296 OA
ATOM     24  C   UNL d   1     -48.439  10.691  22.277  0.00  0.00     0.185 C 
ENDBRANCH  21  23
ENDBRANCH   1  21
BRANCH   3  25
ATOM     25  C   UNL d   1     -46.466  11.759  23.530  0.00  0.00     0.302 C 
ATOM     26  O   UNL d   1     -46.999  11.153  23.698  0.00  0.00    -0.259 OA
BRANCH  25  27
ATOM     27  O   UNL d   1     -45.660  11.637  23.659  0.00  0.00    -0.295 OA
ATOM     28  C   UNL d   1     -45.338  10.883  23.555  0.00  0.00     0.185 C 
ENDBRANCH  25  27
ENDBRANCH   3  25
TORSDOF 7
ENDMDL
MODEL 4
REMARK VINA RESULT:      -4.0      6.147      8.719
REMARK  7 active torsions:
REMARK  status: ('A' for Active; 'I' for Inactive)
REMARK    1  A    between atoms: C_11  and  C_1 
REMARK    2  A    between atoms: C_12  and  C_3 
REMARK    3  A    between atoms: C_10  and  C_5 
REMARK    4  A    between atoms: O_21  and  C_11 
REMARK    5  A    between atoms: O_22  and  C_12 
REMARK    6  A    between atoms: O_23  and  C_14 
REMARK    7  A    between atoms: O_24  and  C_17 
ROOT
ATOM      1  C   UNL d   1     -39.884  14.665  20.697  0.00  0.00     0.075 A 
ATOM      2  C   UNL d   1     -41.102  13.802  21.386  0.00  0.00     0.121 A 
ATOM      3  C   UNL d   1     -39.839  14.435  21.492  0.00  0.00     0.099 A 
ATOM      4  C   UNL d   1     -41.155  14.027  20.592  0.00  0.00     0.058 A 
ATOM      5  C   UNL d   1     -40.538  14.462  20.250  0.00  0.00     0.014 A 
ATOM      6  S   UNL d   1     -40.448  14.004  21.833  0.00  0.00    -0.062 SA
ATOM      7  N   UNL d   1     -41.787  13.382  21.568  0.00  0.00    -0.195 NA
ATOM      8  C   UNL d   1     -42.259  13.346  20.899  0.00  0.00     0.311 A 
ATOM      9  S   UNL d   1     -41.869  13.746  20.291  0.00  0.00    -0.024 SA
ATOM     10  O   UNL d   1     -42.995  12.978  20.835  0.00  0.00    -0.258 OA
ENDROOT
BRANCH   5  11
ATOM     11  C   UNL d   1     -40.592  14.686  19.459  0.00  0.00     0.003 A 
ATOM     12  C   UNL d   1     -40.443  14.143  18.869  0.00  0.00     0.026 A 
ATOM     13  C   UNL d   1     -40.498  14.372  18.077  0.00  0.00     0.116 A 
ATOM     14  C   UNL d   1     -40.703  15.149  17.887  0.00  0.00     0.116 A 
ATOM     15  C   UNL d   1     -40.853  15.695  18.489  0.00  0.00     0.026 A 
ATOM     16  C   UNL d   1     -40.799  15.466  19.271  0.00  0.00     0.002 A 
BRANCH  13  17
ATOM     17  O   UNL d   1     -40.347  13.825  17.479  0.00  0.00    -0.326 OA
ATOM     18  C   UNL d   1     -39.569  13.682  17.238  0.00  0.00     0.181 C 
ENDBRANCH  13  17
BRANCH  14  19
ATOM     19  O   UNL d   1     -40.759  15.379  17.095  0.00  0.00    -0.326 OA
ATOM     20  C   UNL d   1     -41.334  15.922  16.863  0.00  0.00     0.181 C 
ENDBRANCH  14  19
ENDBRANCH   5  11
BRANCH   1  21
ATOM     21  C   UNL d   1     -39.272  15.097  20.357  0.00  0.00     0.296 C 
ATOM     22  O   UNL d   1     -39.317  15.920  20.320  0.00  0.00    -0.259 OA
BRANCH  21  23
ATOM     23  O   UNL d   1     -38.612  14.707  20.053  0.00  0.00    -0.296 OA
ATOM     24  C   UNL d   1     -37.947  15.140  19.840  0.00  0.00     0.185 C 
ENDBRANCH  21  23
ENDBRANCH   1  21
BRANCH   3  25
ATOM     25  C   UNL d   1     -39.185  14.638  21.939  0.00  0.00     0.302 C 
ATOM     26  O   UNL d   1     -39.055  15.420  22.161  0.00  0.00    -0.259 OA
BRANCH  25  27
ATOM     27  O   UNL d   1     -38.648  14.055  22.170  0.00  0.00    -0.295 OA
ATOM     28  C   UNL d   1     -38.312  14.085  22.925  0.00  0.00     0.185 C 
ENDBRANCH  25  27
ENDBRANCH   3  25
TORSDOF 7
ENDMDL
MODEL 5
REMARK VINA RESULT:      -3.8      1.033      3.415
REMARK  7 active torsions:
REMARK  status: ('A' for Active; 'I' for Inactive)
REMARK    1  A    between atoms: C_11  and  C_1 
REMARK    2  A    between atoms: C_12  and  C_3 
REMARK    3  A    between atoms: C_10  and  C_5 
REMARK    4  A    between atoms: O_21  and  C_11 
REMARK    5  A    between atoms: O_22  and  C_12 
REMARK    6  A    between atoms: O_23  and  C_14 
REMARK    7  A    between atoms: O_24  and  C_17 
ROOT
ATOM      1  C   UNL d   1     -48.371  12.778  22.652  0.00  0.00     0.075 A 
ATOM      2  C   UNL d   1     -48.250  14.414  22.532  0.00  0.00     0.121 A 
ATOM      3  C   UNL d   1     -49.045  13.241  22.516  0.00  0.00     0.099 A 
ATOM      4  C   UNL d   1     -47.573  13.959  22.668  0.00  0.00     0.058 A 
ATOM      5  C   UNL d   1     -47.639  13.136  22.727  0.00  0.00     0.014 A 
ATOM      6  S   UNL d   1     -48.982  14.056  22.457  0.00  0.00    -0.062 SA
ATOM      7  N   UNL d   1     -48.016  15.202  22.500  0.00  0.00    -0.195 NA
ATOM      8  C   UNL d   1     -47.205  15.240  22.614  0.00  0.00     0.311 A 
ATOM      9  S   UNL d   1     -46.927  14.469  22.718  0.00  0.00    -0.024 SA
ATOM     10  O   UNL d   1     -46.740  15.922  22.624  0.00  0.00    -0.258 OA
ENDROOT
BRANCH   5  11
ATOM     11  C   UNL d   1     -46.964  12.685  22.862  0.00  0.00     0.003 A 
ATOM     12  C   UNL d   1     -46.357  12.684  22.317  0.00  0.00     0.026 A 
ATOM     13  C   UNL d   1     -45.681  12.230  22.457  0.00  0.00     0.116 A 
ATOM     14  C   UNL d   1     -45.623  11.779  23.146  0.00  0.00     0.116 A 
ATOM     15  C   UNL d   1     -46.240  11.784  23.694  0.00  0.00     0.026 A 
ATOM     16  C   UNL d   1     -46.908  12.234  23.555  0.00  0.00     0.002 A 
BRANCH  13  17
ATOM     17  O   UNL d   1     -45.066  12.228  21.907  0.00  0.00    -0.326 OA
ATOM     18  C   UNL d   1     -44.520  12.849  21.898  0.00  0.00     0.181 C 
ENDBRANCH  13  17
BRANCH  14  19
ATOM     19  O   UNL d   1     -44.947  11.324  23.286  0.00  0.00    -0.326 OA
ATOM     20  C   UNL d   1     -45.008  10.612  23.697  0.00  0.00     0.181 C 
ENDBRANCH  14  19
ENDBRANCH   5  11
BRANCH   1  21
ATOM     21  C   UNL d   1     -48.437  11.960  22.711  0.00  0.00     0.296 C 
ATOM     22  O   UNL d   1     -48.451  11.599  23.453  0.00  0.00    -0.259 OA
BRANCH  21  23
ATOM     23  O   UNL d   1     -48.489  11.500  22.028  0.00  0.00    -0.296 OA
ATOM     24  C   UNL d   1     -48.542  10.683  22.092  0.00  0.00     0.185 C 
ENDBRANCH  21  23
ENDBRANCH   1  21
BRANCH   3  25
ATOM     25  C   UNL d   1     -49.777  12.883  22.441  0.00  0.00     0.302 C 
ATOM     26  O   UNL d   1     -50.174  12.596  23.103  0.00  0.00    -0.259 OA
BRANCH  25  27
ATOM     27  O   UNL d   1     -50.123  12.808  21.695  0.00  0.00    -0.295 OA
ATOM     28  C   UNL d   1     -50.933  12.657  21.634  0.00  0.00     0.185 C 
ENDBRANCH  25  27
ENDBRANCH   3  25
TORSDOF 7
ENDMDL
MODEL 6
REMARK VINA RESULT:      -2.2      8.872     10.090
REMARK  7 active torsions:
REMARK  status: ('A' for Active; 'I' for Inactive)
REMARK    1  A    between atoms: C_11  and  C_1 
REMARK    2  A    between atoms: C_12  and  C_3 
REMARK    3  A    between atoms: C_10  and  C_5 
REMARK    4  A    between atoms: O_21  and  C_11 
REMARK    5  A    between atoms: O_22  and  C_12 
REMARK    6  A    between atoms: O_23  and  C_14 
REMARK    7  A    between atoms: O_24  and  C_17 
ROOT
ATOM      1  C   UNL d   1     -38.929  14.504  19.794  0.00  0.00     0.075 A 
ATOM      2  C   UNL d   1     -38.215  13.105  19.307  0.00  0.00     0.121 A 
ATOM      3  C   UNL d   1     -38.452  14.072  20.316  0.00  0.00     0.099 A 
ATOM      4  C   UNL d   1     -38.690  13.531  18.780  0.00  0.00     0.058 A 
ATOM      5  C   UNL d   1     -39.047  14.235  19.031  0.00  0.00     0.014 A 
ATOM      6  S   UNL d   1     -38.097  13.375  20.070  0.00  0.00    -0.062 SA
ATOM      7  N   UNL d   1     -37.940  12.440  18.908  0.00  0.00    -0.195 NA
ATOM      8  C   UNL d   1     -38.238  12.450  18.144  0.00  0.00     0.311 A 
ATOM      9  S   UNL d   1     -38.704  13.127  18.062  0.00  0.00    -0.024 SA
ATOM     10  O   UNL d   1     -38.101  11.888  17.555  0.00  0.00    -0.258 OA
ENDROOT
BRANCH   5  11
ATOM     11  C   UNL d   1     -39.519  14.658  18.505  0.00  0.00     0.003 A 
ATOM     12  C   UNL d   1     -39.178  15.068  17.887  0.00  0.00     0.026 A 
ATOM     13  C   UNL d   1     -39.656  15.491  17.363  0.00  0.00     0.116 A 
ATOM     14  C   UNL d   1     -40.475  15.498  17.466  0.00  0.00     0.116 A 
ATOM     15  C   UNL d   1     -40.815  15.082  18.093  0.00  0.00     0.026 A 
ATOM     16  C   UNL d   1     -40.341  14.664  18.611  0.00  0.00     0.002 A 
BRANCH  13  17
ATOM     17  O   UNL d   1     -39.313  15.905  16.737  0.00  0.00    -0.326 OA
ATOM     18  C   UNL d   1     -38.490  15.921  16.657  0.00  0.00     0.181 C 
ENDBRANCH  13  17
BRANCH  14  19
ATOM     19  O   UNL d   1     -40.953  15.921  16.941  0.00  0.00    -0.326 OA
ATOM     20  C   UNL d   1     -41.508  15.524  16.478  0.00  0.00     0.181 C 
ENDBRANCH  14  19
ENDBRANCH   5  11
BRANCH   1  21
ATOM     21  C   UNL d   1     -39.284  15.204  20.043  0.00  0.00     0.296 C 
ATOM     22  O   UNL d   1     -38.884  15.922  19.963  0.00  0.00    -0.259 OA
BRANCH  21  23
ATOM     23  O   UNL d   1     -40.039  15.188  20.373  0.00  0.00    -0.296 OA
ATOM     24  C   UNL d   1     -40.274  15.790  20.882  0.00  0.00     0.185 C 
ENDBRANCH  21  23
ENDBRANCH   1  21
BRANCH   3  25
ATOM     25  C   UNL d   1     -38.334  14.341  21.079  0.00  0.00     0.302 C 
ATOM     26  O   UNL d   1     -38.395  15.144  21.256  0.00  0.00    -0.259 OA
BRANCH  25  27
ATOM     27  O   UNL d   1     -38.152  13.806  21.681  0.00  0.00    -0.295 OA
ATOM     28  C   UNL d   1     -38.515  13.881  22.419  0.00  0.00     0.185 C 
ENDBRANCH  25  27
ENDBRANCH   3  25
TORSDOF 7
ENDMDL
