MODEL 1
REMARK VINA RESULT:      -5.2      0.000      0.000
REMARK  5 active torsions:
REMARK  status: ('A' for Active; 'I' for Inactive)
REMARK    1  A    between atoms: N_2  and  S_1 
REMARK    2  A    between atoms: C_10  and  S_1 
REMARK    3  A    between atoms: C_4  and  N_12 
REMARK    4  A    between atoms: C_8  and  C_17 
REMARK       I    between atoms: N_11  and  C_8 
REMARK    5  A    between atoms: N_12  and  N_11 
ROOT
ATOM      1  C   UNL d   1     -45.786  13.122  22.450  0.00  0.00     0.104 A 
ATOM      2  C   UNL d   1     -44.395  12.253  22.323  0.00  0.00     0.059 A 
ATOM      3  C   UNL d   1     -45.434  13.017  21.710  0.00  0.00     0.013 A 
ATOM      4  C   UNL d   1     -45.442  12.792  23.123  0.00  0.00     0.013 A 
ATOM      5  C   UNL d   1     -44.743  12.584  21.658  0.00  0.00     0.006 A 
ATOM      6  C   UNL d   1     -44.744  12.357  23.055  0.00  0.00     0.006 A 
ENDROOT
BRANCH   2   7
ATOM      7  C   UNL d   1     -43.701  11.818  22.263  0.00  0.00     0.297 C 
ATOM      8  N   UNL d   1     -43.082  12.223  21.911  0.00  0.00    -0.104 NA
ATOM      9  O   UNL d   1     -43.775  11.050  22.577  0.00  0.00    -0.264 OA
BRANCH   8  10
ATOM     10  N   UNL d   1     -43.195  12.994  21.656  0.00  0.00    -0.118 NA
BRANCH  10  11
ATOM     11  C   UNL d   1     -42.552  13.445  21.384  0.00  0.00     0.215 A 
ATOM     12  N   UNL d   1     -42.510  14.264  21.364  0.00  0.00    -0.219 NA
ATOM     13  C   UNL d   1     -41.783  14.486  21.057  0.00  0.00     0.090 A 
ATOM     14  C   UNL d   1     -41.439  15.216  20.910  0.00  0.00     0.018 A 
ATOM     15  C   UNL d   1     -41.367  13.787  20.884  0.00  0.00     0.050 A 
ATOM     16  C   UNL d   1     -40.679  15.256  20.590  0.00  0.00     0.002 A 
ATOM     17  C   UNL d   1     -41.857  15.911  21.084  0.00  0.00     0.002 C 
ATOM     18  C   UNL d   1     -40.270  14.564  20.419  0.00  0.00     0.001 A 
ATOM     19  C   UNL d   1     -40.607  13.818  20.563  0.00  0.00     0.008 A 
ATOM     20  S   UNL d   1     -41.844  13.150  21.087  0.00  0.00    -0.045 SA
ENDBRANCH  10  11
ENDBRANCH   8  10
ENDBRANCH   2   7
BRANCH   1  21
ATOM     21  S   UNL d   1     -46.481  13.556  22.519  0.00  0.00     0.271 S 
ATOM     22  O   UNL d   1     -46.766  13.222  21.822  0.00  0.00    -0.200 OA
ATOM     23  O   UNL d   1     -46.199  13.891  23.218  0.00  0.00    -0.200 OA
BRANCH  21  24
ATOM     24  N   UNL d   1     -47.178  13.992  22.591  0.00  0.00    -0.229 N 
ATOM     25  C   UNL d   1     -47.879  13.614  22.806  0.00  0.00     0.092 A 
ATOM     26  C   UNL d   1     -48.575  14.050  22.878  0.00  0.00     0.018 A 
ATOM     27  C   UNL d   1     -49.277  13.673  23.093  0.00  0.00     0.002 A 
ATOM     28  C   UNL d   1     -48.578  14.865  22.737  0.00  0.00     0.003 A 
ATOM     29  C   UNL d   1     -49.972  14.109  23.165  0.00  0.00     0.000 A 
ATOM     30  C   UNL d   1     -49.967  14.923  23.022  0.00  0.00     0.000 A 
ATOM     31  C   UNL d   1     -49.267  15.297  22.808  0.00  0.00     0.000 A 
ATOM     32  C   UNL d   1     -47.869  15.242  22.521  0.00  0.00     0.020 A 
ATOM     33  C   UNL d   1     -47.173  14.806  22.448  0.00  0.00     0.092 A 
ENDBRANCH  21  24
ENDBRANCH   1  21
TORSDOF 5
ENDMDL
MODEL 2
REMARK VINA RESULT:      -4.8      1.627      6.349
REMARK  5 active torsions:
REMARK  status: ('A' for Active; 'I' for Inactive)
REMARK    1  A    between atoms: N_2  and  S_1 
REMARK    2  A    between atoms: C_10  and  S_1 
REMARK    3  A    between atoms: C_4  and  N_12 
REMARK    4  A    between atoms: C_8  and  C_17 
REMARK       I    between atoms: N_11  and  C_8 
REMARK    5  A    between atoms: N_12  and  N_11 
ROOT
ATOM      1  C   UNL d   1     -42.247  13.420  21.008  0.00  0.00     0.104 A 
ATOM      2  C   UNL d   1     -43.234  12.419  21.864  0.00  0.00     0.059 A 
ATOM      3  C   UNL d   1     -42.894  13.065  20.636  0.00  0.00     0.013 A 
ATOM      4  C   UNL d   1     -42.096  13.274  21.806  0.00  0.00     0.013 A 
ATOM      5  C   UNL d   1     -43.378  12.570  21.070  0.00  0.00     0.006 A 
ATOM      6  C   UNL d   1     -42.593  12.771  22.231  0.00  0.00     0.006 A 
ENDROOT
BRANCH   2   7
ATOM      7  C   UNL d   1     -43.724  11.920  22.293  0.00  0.00     0.297 C 
ATOM      8  N   UNL d   1     -44.477  12.216  22.417  0.00  0.00    -0.104 NA
ATOM      9  O   UNL d   1     -43.346  11.211  22.514  0.00  0.00    -0.264 OA
BRANCH   8  10
ATOM     10  N   UNL d   1     -44.677  12.953  22.118  0.00  0.00    -0.118 NA
BRANCH  10  11
ATOM     11  C   UNL d   1     -45.436  13.268  22.249  0.00  0.00     0.215 A 
ATOM     12  N   UNL d   1     -46.147  12.917  22.040  0.00  0.00    -0.219 NA
ATOM     13  C   UNL d   1     -46.763  13.408  22.268  0.00  0.00     0.090 A 
ATOM     14  C   UNL d   1     -47.578  13.346  22.203  0.00  0.00     0.018 A 
ATOM     15  C   UNL d   1     -46.423  14.077  22.626  0.00  0.00     0.050 A 
ATOM     16  C   UNL d   1     -48.061  13.949  22.494  0.00  0.00     0.002 A 
ATOM     17  C   UNL d   1     -47.914  12.677  21.845  0.00  0.00     0.002 C 
ATOM     18  C   UNL d   1     -47.723  14.610  22.847  0.00  0.00     0.001 A 
ATOM     19  C   UNL d   1     -46.898  14.685  22.919  0.00  0.00     0.008 A 
ATOM     20  S   UNL d   1     -45.606  13.986  22.612  0.00  0.00    -0.045 SA
ENDBRANCH  10  11
ENDBRANCH   8  10
ENDBRANCH   2   7
BRANCH   1  21
ATOM     21  S   UNL d   1     -41.751  13.921  20.585  0.00  0.00     0.271 S 
ATOM     22  O   UNL d   1     -41.856  14.511  21.150  0.00  0.00    -0.200 OA
ATOM     23  O   UNL d   1     -41.644  13.332  20.018  0.00  0.00    -0.200 OA
BRANCH  21  24
ATOM     24  N   UNL d   1     -41.253  14.422  20.160  0.00  0.00    -0.229 N 
ATOM     25  C   UNL d   1     -41.056  14.240  19.380  0.00  0.00     0.092 A 
ATOM     26  C   UNL d   1     -40.557  14.741  18.954  0.00  0.00     0.018 A 
ATOM     27  C   UNL d   1     -40.360  14.559  18.174  0.00  0.00     0.002 A 
ATOM     28  C   UNL d   1     -40.252  15.426  19.302  0.00  0.00     0.003 A 
ATOM     29  C   UNL d   1     -39.862  15.059  17.749  0.00  0.00     0.000 A 
ATOM     30  C   UNL d   1     -39.561  15.743  18.104  0.00  0.00     0.000 A 
ATOM     31  C   UNL d   1     -39.759  15.922  18.881  0.00  0.00     0.000 A 
ATOM     32  C   UNL d   1     -40.453  15.606  20.088  0.00  0.00     0.020 A 
ATOM     33  C   UNL d   1     -40.951  15.106  20.514  0.00  0.00     0.092 A 
ENDBRANCH  21  24
ENDBRANCH   1  21
TORSDOF 5
ENDMDL
MODEL 3
REMARK VINA RESULT:      -3.5      3.483      8.004
REMARK  5 active torsions:
REMARK  status: ('A' for Active; 'I' for Inactive)
REMARK    1  A    between atoms: N_2  and  S_1 
REMARK    2  A    between atoms: C_10  and  S_1 
REMARK    3  A    between atoms: C_4  and  N_12 
REMARK    4  A    between atoms: C_8  and  C_17 
REMARK       I    between atoms: N_11  and  C_8 
REMARK    5  A    between atoms: N_12  and  N_11 
ROOT
ATOM      1  C   UNL d   1     -39.662  14.422  19.110  0.00  0.00     0.104 A 
ATOM      2  C   UNL d   1     -40.321  14.920  20.533  0.00  0.00     0.059 A 
ATOM      3  C   UNL d   1     -40.270  14.981  19.107  0.00  0.00     0.013 A 
ATOM      4  C   UNL d   1     -39.386  14.114  19.824  0.00  0.00     0.013 A 
ATOM      5  C   UNL d   1     -40.591  15.222  19.819  0.00  0.00     0.006 A 
ATOM      6  C   UNL d   1     -39.719  14.367  20.535  0.00  0.00     0.006 A 
ENDROOT
BRANCH   2   7
ATOM      7  C   UNL d   1     -40.648  15.166  21.245  0.00  0.00     0.297 C 
ATOM      8  N   UNL d   1     -41.298  14.730  21.483  0.00  0.00    -0.104 NA
ATOM      9  O   UNL d   1     -40.243  15.815  21.576  0.00  0.00    -0.264 OA
BRANCH   8  10
ATOM     10  N   UNL d   1     -41.563  14.110  21.017  0.00  0.00    -0.118 NA
BRANCH  10  11
ATOM     11  C   UNL d   1     -42.232  13.671  21.243  0.00  0.00     0.215 A 
ATOM     12  N   UNL d   1     -42.229  12.972  21.672  0.00  0.00    -0.219 NA
ATOM     13  C   UNL d   1     -43.002  12.719  21.776  0.00  0.00     0.090 A 
ATOM     14  C   UNL d   1     -43.331  12.070  22.153  0.00  0.00     0.018 A 
ATOM     15  C   UNL d   1     -43.494  13.276  21.402  0.00  0.00     0.050 A 
ATOM     16  C   UNL d   1     -44.150  11.969  22.161  0.00  0.00     0.002 A 
ATOM     17  C   UNL d   1     -42.838  11.516  22.525  0.00  0.00     0.002 C 
ATOM     18  C   UNL d   1     -44.634  12.520  21.791  0.00  0.00     0.001 A 
ATOM     19  C   UNL d   1     -44.314  13.184  21.405  0.00  0.00     0.008 A 
ATOM     20  S   UNL d   1     -43.015  13.859  21.075  0.00  0.00    -0.045 SA
ENDBRANCH  10  11
ENDBRANCH   8  10
ENDBRANCH   2   7
BRANCH   1  21
ATOM     21  S   UNL d   1     -39.329  14.170  18.402  0.00  0.00     0.271 S 
ATOM     22  O   UNL d   1     -40.045  13.828  18.181  0.00  0.00    -0.200 OA
ATOM     23  O   UNL d   1     -38.611  14.512  18.621  0.00  0.00    -0.200 OA
BRANCH  21  24
ATOM     24  N   UNL d   1     -38.992  13.918  17.692  0.00  0.00    -0.229 N 
ATOM     25  C   UNL d   1     -38.950  14.435  17.051  0.00  0.00     0.092 A 
ATOM     26  C   UNL d   1     -38.613  14.183  16.341  0.00  0.00     0.018 A 
ATOM     27  C   UNL d   1     -38.571  14.699  15.700  0.00  0.00     0.002 A 
ATOM     28  C   UNL d   1     -38.316  13.414  16.266  0.00  0.00     0.003 A 
ATOM     29  C   UNL d   1     -38.234  14.447  14.991  0.00  0.00     0.000 A 
ATOM     30  C   UNL d   1     -37.940  13.677  14.923  0.00  0.00     0.000 A 
ATOM     31  C   UNL d   1     -37.983  13.164  15.564  0.00  0.00     0.000 A 
ATOM     32  C   UNL d   1     -38.361  12.896  16.915  0.00  0.00     0.020 A 
ATOM     33  C   UNL d   1     -38.698  13.148  17.624  0.00  0.00     0.092 A 
ENDBRANCH  21  24
ENDBRANCH   1  21
TORSDOF 5
ENDMDL
MODEL 4
REMARK VINA RESULT:      -3.4      3.083      5.241
REMARK  5 active torsions:
REMARK  status: ('A' for Active; 'I' for Inactive)
REMARK    1  A    between atoms: N_2  and  S_1 
REMARK    2  A    between atoms: C_10  and  S_1 
REMARK    3  A    between atoms: C_4  and  N_12 
REMARK    4  A    between atoms: C_8  and  C_17 
REMARK       I    between atoms: N_11  and  C_8 
REMARK    5  A    between atoms: N_12  and  N_11 
ROOT
ATOM      1  C   UNL d   1     -41.317  14.159  20.868  0.00  0.00     0.104 A 
ATOM      2  C   UNL d   1     -39.966  14.955  20.370  0.00  0.00     0.059 A 
ATOM      3  C   UNL d   1     -41.389  14.854  20.428  0.00  0.00     0.013 A 
ATOM      4  C   UNL d   1     -40.570  13.864  21.058  0.00  0.00     0.013 A 
ATOM      5  C   UNL d   1     -40.712  15.242  20.185  0.00  0.00     0.006 A 
ATOM      6  C   UNL d   1     -39.894  14.267  20.806  0.00  0.00     0.006 A 
ENDROOT
BRANCH   2   7
ATOM      7  C   UNL d   1     -39.290  15.350  20.123  0.00  0.00     0.297 C 
ATOM      8  N   UNL d   1     -39.011  15.111  19.391  0.00  0.00    -0.104 NA
ATOM      9  O   UNL d   1     -39.028  15.916  20.676  0.00  0.00    -0.264 OA
BRANCH   8  10
ATOM     10  N   UNL d   1     -39.408  14.524  18.979  0.00  0.00    -0.118 NA
BRANCH  10  11
ATOM     11  C   UNL d   1     -39.102  14.235  18.261  0.00  0.00     0.215 A 
ATOM     12  N   UNL d   1     -38.750  13.504  18.145  0.00  0.00    -0.219 NA
ATOM     13  C   UNL d   1     -38.526  13.437  17.360  0.00  0.00     0.090 A 
ATOM     14  C   UNL d   1     -38.157  12.841  16.934  0.00  0.00     0.018 A 
ATOM     15  C   UNL d   1     -38.746  14.145  16.982  0.00  0.00     0.050 A 
ATOM     16  C   UNL d   1     -38.004  12.944  16.129  0.00  0.00     0.002 A 
ATOM     17  C   UNL d   1     -37.940  12.137  17.313  0.00  0.00     0.002 C 
ATOM     18  C   UNL d   1     -38.222  13.645  15.757  0.00  0.00     0.001 A 
ATOM     19  C   UNL d   1     -38.596  14.257  16.178  0.00  0.00     0.008 A 
ATOM     20  S   UNL d   1     -39.100  14.632  17.541  0.00  0.00    -0.045 SA
ENDBRANCH  10  11
ENDBRANCH   8  10
ENDBRANCH   2   7
BRANCH   1  21
ATOM     21  S   UNL d   1     -41.988  13.757  21.120  0.00  0.00     0.271 S 
ATOM     22  O   UNL d   1     -41.959  14.149  21.843  0.00  0.00    -0.200 OA
ATOM     23  O   UNL d   1     -42.020  13.363  20.396  0.00  0.00    -0.200 OA
BRANCH  21  24
ATOM     24  N   UNL d   1     -42.662  13.352  21.370  0.00  0.00    -0.229 N 
ATOM     25  C   UNL d   1     -43.373  13.759  21.470  0.00  0.00     0.092 A 
ATOM     26  C   UNL d   1     -44.047  13.354  21.720  0.00  0.00     0.018 A 
ATOM     27  C   UNL d   1     -44.757  13.761  21.820  0.00  0.00     0.002 A 
ATOM     28  C   UNL d   1     -44.017  12.542  21.872  0.00  0.00     0.003 A 
ATOM     29  C   UNL d   1     -45.430  13.356  22.070  0.00  0.00     0.000 A 
ATOM     30  C   UNL d   1     -45.393  12.544  22.220  0.00  0.00     0.000 A 
ATOM     31  C   UNL d   1     -44.684  12.141  22.119  0.00  0.00     0.000 A 
ATOM     32  C   UNL d   1     -43.299  12.135  21.770  0.00  0.00     0.020 A 
ATOM     33  C   UNL d   1     -42.625  12.540  21.520  0.00  0.00     0.092 A 
ENDBRANCH  21  24
ENDBRANCH   1  21
TORSDOF 5
ENDMDL
MODEL 5
REMARK VINA RESULT:      -3.1      2.314      3.613
REMARK  5 active torsions:
REMARK  status: ('A' for Active; 'I' for Inactive)
REMARK    1  A    between atoms: N_2  and  S_1 
REMARK    2  A    between atoms: C_10  and  S_1 
REMARK    3  A    between atoms: C_4  and  N_12 
REMARK    4  A    between atoms: C_8  and  C_17 
REMARK       I    between atoms: N_11  and  C_8 
REMARK    5  A    between atoms: N_12  and  N_11 
ROOT
ATOM      1  C   UNL d   1     -42.724  13.555  21.414  0.00  0.00     0.104 A 
ATOM      2  C   UNL d   1     -41.127  13.846  21.141  0.00  0.00     0.059 A 
ATOM      3  C   UNL d   1     -42.216  12.927  21.243  0.00  0.00     0.013 A 
ATOM      4  C   UNL d   1     -42.432  14.327  21.448  0.00  0.00     0.013 A 
ATOM      5  C   UNL d   1     -41.425  13.081  21.109  0.00  0.00     0.006 A 
ATOM      6  C   UNL d   1     -41.630  14.468  21.310  0.00  0.00     0.006 A 
ENDROOT
BRANCH   2   7
ATOM      7  C   UNL d   1     -40.331  13.994  21.005  0.00  0.00     0.297 C 
ATOM      8  N   UNL d   1     -40.155  14.192  20.230  0.00  0.00    -0.104 NA
ATOM      9  O   UNL d   1     -39.867  13.910  21.692  0.00  0.00    -0.264 OA
BRANCH   8  10
ATOM     10  N   UNL d   1     -40.757  14.226  19.674  0.00  0.00    -0.118 NA
BRANCH  10  11
ATOM     11  C   UNL d   1     -40.592  14.448  18.890  0.00  0.00     0.215 A 
ATOM     12  N   UNL d   1     -41.041  14.953  18.426  0.00  0.00    -0.219 NA
ATOM     13  C   UNL d   1     -40.687  15.025  17.690  0.00  0.00     0.090 A 
ATOM     14  C   UNL d   1     -40.884  15.448  17.015  0.00  0.00     0.018 A 
ATOM     15  C   UNL d   1     -40.002  14.554  17.701  0.00  0.00     0.050 A 
ATOM     16  C   UNL d   1     -40.402  15.404  16.347  0.00  0.00     0.002 A 
ATOM     17  C   UNL d   1     -41.568  15.917  17.008  0.00  0.00     0.002 C 
ATOM     18  C   UNL d   1     -39.726  14.937  16.359  0.00  0.00     0.001 A 
ATOM     19  C   UNL d   1     -39.515  14.504  17.037  0.00  0.00     0.008 A 
ATOM     20  S   UNL d   1     -39.949  14.201  18.442  0.00  0.00    -0.045 SA
ENDBRANCH  10  11
ENDBRANCH   8  10
ENDBRANCH   2   7
BRANCH   1  21
ATOM     21  S   UNL d   1     -43.522  13.417  21.552  0.00  0.00     0.271 S 
ATOM     22  O   UNL d   1     -43.371  12.613  21.651  0.00  0.00    -0.200 OA
ATOM     23  O   UNL d   1     -43.676  14.221  21.453  0.00  0.00    -0.200 OA
BRANCH  21  24
ATOM     24  N   UNL d   1     -44.324  13.280  21.689  0.00  0.00    -0.229 N 
ATOM     25  C   UNL d   1     -44.743  13.771  22.203  0.00  0.00     0.092 A 
ATOM     26  C   UNL d   1     -45.544  13.635  22.341  0.00  0.00     0.018 A 
ATOM     27  C   UNL d   1     -45.963  14.126  22.855  0.00  0.00     0.002 A 
ATOM     28  C   UNL d   1     -45.935  13.009  21.968  0.00  0.00     0.003 A 
ATOM     29  C   UNL d   1     -46.764  13.989  22.992  0.00  0.00     0.000 A 
ATOM     30  C   UNL d   1     -47.147  13.361  22.615  0.00  0.00     0.000 A 
ATOM     31  C   UNL d   1     -46.728  12.873  22.103  0.00  0.00     0.000 A 
ATOM     32  C   UNL d   1     -45.510  12.516  21.450  0.00  0.00     0.020 A 
ATOM     33  C   UNL d   1     -44.708  12.652  21.313  0.00  0.00     0.092 A 
ENDBRANCH  21  24
ENDBRANCH   1  21
TORSDOF 5
ENDMDL
MODEL 6
REMARK VINA RESULT:      -2.8      1.455      6.284
REMARK  5 active torsions:
REMARK  status: ('A' for Active; 'I' for Inactive)
REMARK    1  A    between atoms: N_2  and  S_1 
REMARK    2  A    between atoms: C_10  and  S_1 
REMARK    3  A    between atoms: C_4  and  N_12 
REMARK    4  A    between atoms: C_8  and  C_17 
REMARK       I    between atoms: N_11  and  C_8 
REMARK    5  A    between atoms: N_12  and  N_11 
ROOT
ATOM      1  C   UNL d   1     -45.787  12.200  22.623  0.00  0.00     0.104 A 
ATOM      2  C   UNL d   1     -47.299  11.838  23.163  0.00  0.00     0.059 A 
ATOM      3  C   UNL d   1     -45.938  12.174  23.434  0.00  0.00     0.013 A 
ATOM      4  C   UNL d   1     -46.393  12.046  22.084  0.00  0.00     0.013 A 
ATOM      5  C   UNL d   1     -46.691  11.993  23.693  0.00  0.00     0.006 A 
ATOM      6  C   UNL d   1     -47.150  11.864  22.359  0.00  0.00     0.006 A 
ENDROOT
BRANCH   2   7
ATOM      7  C   UNL d   1     -48.054  11.656  23.429  0.00  0.00     0.297 C 
ATOM      8  N   UNL d   1     -48.585  12.277  23.377  0.00  0.00    -0.104 NA
ATOM      9  O   UNL d   1     -48.119  10.871  23.698  0.00  0.00    -0.264 OA
BRANCH   8  10
ATOM     10  N   UNL d   1     -48.336  12.999  23.077  0.00  0.00    -0.118 NA
BRANCH  10  11
ATOM     11  C   UNL d   1     -48.865  13.639  23.032  0.00  0.00     0.215 A 
ATOM     12  N   UNL d   1     -49.549  13.670  22.579  0.00  0.00    -0.219 NA
ATOM     13  C   UNL d   1     -49.910  14.397  22.691  0.00  0.00     0.090 A 
ATOM     14  C   UNL d   1     -50.595  14.732  22.388  0.00  0.00     0.018 A 
ATOM     15  C   UNL d   1     -49.438  14.825  23.225  0.00  0.00     0.050 A 
ATOM     16  C   UNL d   1     -50.815  15.495  22.614  0.00  0.00     0.002 A 
ATOM     17  C   UNL d   1     -51.064  14.302  21.856  0.00  0.00     0.002 C 
ATOM     18  C   UNL d   1     -50.347  15.916  23.142  0.00  0.00     0.001 A 
ATOM     19  C   UNL d   1     -49.650  15.589  23.456  0.00  0.00     0.008 A 
ATOM     20  S   UNL d   1     -48.797  14.354  23.431  0.00  0.00    -0.045 SA
ENDBRANCH  10  11
ENDBRANCH   8  10
ENDBRANCH   2   7
BRANCH   1  21
ATOM     21  S   UNL d   1     -45.034  12.381  22.347  0.00  0.00     0.271 S 
ATOM     22  O   UNL d   1     -44.760  11.647  22.600  0.00  0.00    -0.200 OA
ATOM     23  O   UNL d   1     -45.307  13.117  22.093  0.00  0.00    -0.200 OA
BRANCH  21  24
ATOM     24  N   UNL d   1     -44.279  12.565  22.069  0.00  0.00    -0.229 N 
ATOM     25  C   UNL d   1     -44.126  13.315  21.762  0.00  0.00     0.092 A 
ATOM     26  C   UNL d   1     -43.371  13.499  21.485  0.00  0.00     0.018 A 
ATOM     27  C   UNL d   1     -43.217  14.249  21.178  0.00  0.00     0.002 A 
ATOM     28  C   UNL d   1     -42.764  12.937  21.511  0.00  0.00     0.003 A 
ATOM     29  C   UNL d   1     -42.463  14.432  20.901  0.00  0.00     0.000 A 
ATOM     30  C   UNL d   1     -41.861  13.865  20.930  0.00  0.00     0.000 A 
ATOM     31  C   UNL d   1     -42.018  13.119  21.237  0.00  0.00     0.000 A 
ATOM     32  C   UNL d   1     -42.923  12.182  21.821  0.00  0.00     0.020 A 
ATOM     33  C   UNL d   1     -43.678  11.998  22.099  0.00  0.00     0.092 A 
ENDBRANCH  21  24
ENDBRANCH   1  21
TORSDOF 5
ENDMDL
