MODEL 1
REMARK VINA RESULT:      -4.2      0.000      0.000
REMARK  8 active torsions:
REMARK  status: ('A' for Active; 'I' for Inactive)
REMARK    1  A    between atoms: C_3  and  C_1 
REMARK    2  A    between atoms: N_4  and  C_2 
REMARK    3  A    between atoms: O_21  and  C_3 
REMARK       I    between atoms: C_11  and  N_4 
REMARK    4  A    between atoms: C_6  and  C_7 
REMARK    5  A    between atoms: O_22  and  C_6 
REMARK    6  A    between atoms: C_10  and  C_20 
REMARK    7  A    between atoms: C_19  and  C_11 
REMARK    8  A    between atoms: C_20  and  C_19 
ROOT
ATOM      1  C   UNL d   1      59.472  -0.730  29.190  0.00  0.00     0.081 A 
ATOM      2  C   UNL d   1      58.813  -1.066  29.552  0.00  0.00     0.090 A 
ATOM      3  C   UNL d   1      59.076  -2.309  28.909  0.00  0.00     0.065 A 
ATOM      4  C   UNL d   1      58.612  -1.851  29.415  0.00  0.00     0.025 A 
ATOM      5  C   UNL d   1      59.936  -1.187  28.684  0.00  0.00     0.007 A 
ATOM      6  C   UNL d   1      59.737  -1.977  28.544  0.00  0.00     0.006 A 
ENDROOT
BRANCH   2   7
ATOM      7  N   UNL d   1      58.354  -0.606  30.056  0.00  0.00    -0.208 NA
ATOM      8  C   UNL d   1      57.749  -0.959  30.501  0.00  0.00     0.279 C 
ATOM      9  O   UNL d   1      57.615  -1.772  30.433  0.00  0.00    -0.265 OA
BRANCH   8  10
ATOM     10  C   UNL d   1      57.290  -0.502  31.004  0.00  0.00     0.065 C 
BRANCH  10  11
ATOM     11  C   UNL d   1      56.968  -0.839  31.690  0.00  0.00     0.030 C 
BRANCH  11  12
ATOM     12  C   UNL d   1      56.634  -0.357  32.265  0.00  0.00     0.100 A 
ATOM     13  O   UNL d   1      55.860  -0.401  32.550  0.00  0.00    -0.307 OA
ATOM     14  C   UNL d   1      55.769   0.181  33.113  0.00  0.00     0.100 A 
ATOM     15  C   UNL d   1      55.080   0.335  33.542  0.00  0.00     0.027 C 
ATOM     16  C   UNL d   1      56.474   0.591  33.186  0.00  0.00     0.027 A 
ATOM     17  C   UNL d   1      57.010   0.267  32.669  0.00  0.00     0.027 A 
ENDBRANCH  11  12
ENDBRANCH  10  11
ENDBRANCH   8  10
ENDBRANCH   2   7
BRANCH   1  18
ATOM     18  C   UNL d   1      59.663   0.058  29.334  0.00  0.00     0.297 C 
ATOM     19  O   UNL d   1      59.337   0.654  28.877  0.00  0.00    -0.259 OA
BRANCH  18  20
ATOM     20  O   UNL d   1      60.185   0.248  29.944  0.00  0.00    -0.296 OA
ATOM     21  C   UNL d   1      60.871   0.682  29.776  0.00  0.00     0.185 C 
ENDBRANCH  18  20
ENDBRANCH   1  18
BRANCH   3  22
ATOM     22  C   UNL d   1      58.878  -3.098  28.769  0.00  0.00     0.296 C 
ATOM     23  O   UNL d   1      58.114  -3.302  28.532  0.00  0.00    -0.259 OA
BRANCH  22  24
ATOM     24  O   UNL d   1      59.447  -3.690  28.864  0.00  0.00    -0.296 OA
ATOM     25  C   UNL d   1      59.376  -4.403  28.455  0.00  0.00     0.185 C 
ENDBRANCH  22  24
ENDBRANCH   3  22
TORSDOF 8
ENDMDL
