MODEL 1
REMARK VINA RESULT:      24.9      0.000      0.000
REMARK  5 active torsions:
REMARK  status: ('A' for Active; 'I' for Inactive)
REMARK    1  A    between atoms: C_2  and  S_1 
REMARK    2  A    between atoms: N_3  and  S_1 
REMARK    3  A    between atoms: C_10  and  N_3 
REMARK    4  A    between atoms: C_9  and  C_5 
REMARK    5  A    between atoms: O_14  and  C_8 
ROOT
ATOM      1  C   UNL d   1      45.749 -15.400  44.345  0.00  0.00     0.127 A 
ATOM      2  C   UNL d   1      46.146 -16.077  44.089  0.00  0.00     0.011 A 
ATOM      3  C   UNL d   1      45.798 -16.817  44.179  0.00  0.00    -0.022 A 
ATOM      4  C   UNL d   1      45.009 -15.472  44.688  0.00  0.00     0.106 A 
ATOM      5  C   UNL d   1      45.054 -16.882  44.525  0.00  0.00    -0.002 A 
ATOM      6  C   UNL d   1      44.657 -16.205  44.781  0.00  0.00     0.025 A 
ENDROOT
BRANCH   1   7
ATOM      7  S   UNL d   1      46.100 -14.667  44.252  0.00  0.00     0.287 S 
ATOM      8  O   UNL d   1      45.689 -14.566  43.546  0.00  0.00    -0.198 OA
ATOM      9  O   UNL d   1      46.510 -14.761  44.952  0.00  0.00    -0.198 OA
BRANCH   7  10
ATOM     10  N   UNL d   1      46.450 -13.927  44.153  0.00  0.00    -0.157 NA
BRANCH  10  11
ATOM     11  C   UNL d   1      46.019 -13.313  43.815  0.00  0.00     0.113 A 
ATOM     12  C   UNL d   1      45.755 -12.695  44.278  0.00  0.00     0.119 A 
ATOM     13  N   UNL d   1      45.324 -12.080  43.939  0.00  0.00    -0.241 NA
ATOM     14  C   UNL d   1      45.157 -12.087  43.125  0.00  0.00     0.099 A 
ATOM     15  C   UNL d   1      45.428 -12.716  42.664  0.00  0.00     0.022 A 
ATOM     16  C   UNL d   1      45.858 -13.330  43.003  0.00  0.00     0.023 A 
ENDBRANCH  10  11
ENDBRANCH   7  10
ENDBRANCH   1   7
BRANCH   4  17
ATOM     17  O   UNL d   1      44.612 -14.795  44.944  0.00  0.00    -0.327 OA
ATOM     18  C   UNL d   1      43.789 -14.762  44.912  0.00  0.00     0.181 C 
ENDBRANCH   4  17
BRANCH   3  19
ATOM     19  C   UNL d   1      46.195 -17.494  43.923  0.00  0.00     0.019 C 
ATOM     20  C   UNL d   1      46.592 -18.171  43.668  0.00  0.00     0.004 C 
ATOM     21  C   UNL d   1      46.510 -17.595  44.679  0.00  0.00     0.004 C 
ATOM     22  C   UNL d   1      45.879 -17.393  43.168  0.00  0.00     0.004 C 
ENDBRANCH   3  19
TORSDOF 5
ENDMDL
