MODEL 1
REMARK VINA RESULT:     113.4      0.000      0.000
REMARK  3 active torsions:
REMARK  status: ('A' for Active; 'I' for Inactive)
REMARK       I    between atoms: C_3  and  N_1 
REMARK    1  A    between atoms: C_9  and  C_3 
REMARK    2  A    between atoms: C_15  and  C_4 
REMARK    3  A    between atoms: N_5  and  C_8 
ROOT
ATOM      1  N   UNL d   1      59.274  49.221  50.988  0.00  0.00    -0.269 N 
ATOM      2  C   UNL d   1      60.289  49.385  51.860  0.00  0.00     0.036 A 
ATOM      3  C   UNL d   1      59.126  49.050  50.192  0.00  0.00     0.265 C 
ATOM      4  C   UNL d   1      60.056  49.250  51.220  0.00  0.00     0.069 A 
ATOM      5  C   UNL d   1      59.928  49.557  52.598  0.00  0.00     0.086 A 
ATOM      6  N   UNL d   1      59.240  49.622  52.810  0.00  0.00    -0.207 NA
ATOM      7  C   UNL d   1      58.582  49.536  52.332  0.00  0.00     0.297 A 
ATOM      8  C   UNL d   1      58.594  49.350  51.491  0.00  0.00     0.146 A 
ATOM      9  C   UNL d   1      61.122  49.352  51.816  0.00  0.00     0.033 A 
ATOM     10  O   UNL d   1      59.757  48.917  49.665  0.00  0.00    -0.267 OA
ATOM     11  O   UNL d   1      57.839  49.635  52.691  0.00  0.00    -0.264 OA
ATOM     12  C   UNL d   1      60.398  49.692  53.272  0.00  0.00     0.022 A 
ATOM     13  C   UNL d   1      61.596  49.487  52.488  0.00  0.00     0.140 A 
ATOM     14  C   UNL d   1      61.226  49.658  53.220  0.00  0.00     0.031 A 
ATOM     15  F   UNL d   1      62.411  49.451  52.430  0.00  0.00    -0.204 F 
ENDROOT
BRANCH   3  16
ATOM     16  C   UNL d   1      58.353  49.010  49.914  0.00  0.00     0.058 A 
ATOM     17  C   UNL d   1      58.004  48.281  49.748  0.00  0.00     0.028 A 
ATOM     18  C   UNL d   1      57.241  48.255  49.475  0.00  0.00     0.127 A 
ATOM     19  C   UNL d   1      56.809  48.949  49.361  0.00  0.00     0.022 A 
ATOM     20  C   UNL d   1      57.148  49.670  49.523  0.00  0.00     0.002 A 
ATOM     21  C   UNL d   1      56.033  48.906  49.081  0.00  0.00     0.002 C 
ATOM     22  C   UNL d   1      57.923  49.701  49.801  0.00  0.00     0.005 A 
BRANCH  18  23
ATOM     23  N   UNL d   1      56.892  47.526  49.309  0.00  0.00    -0.114 N 
ATOM     24  O   UNL d   1      57.257  46.841  49.551  0.00  0.00    -0.532 OA
ATOM     25  O   UNL d   1      56.181  47.499  48.901  0.00  0.00    -0.532 OA
ENDBRANCH  18  23
ENDBRANCH   3  16
BRANCH   4  26
ATOM     26  C   UNL d   1      60.618  49.108  50.643  0.00  0.00     0.016 A 
ATOM     27  C   UNL d   1      60.766  49.679  50.060  0.00  0.00     0.004 A 
ATOM     28  C   UNL d   1      61.336  49.525  49.483  0.00  0.00     0.030 A 
ATOM     29  C   UNL d   1      61.747  48.831  49.480  0.00  0.00     0.140 A 
ATOM     30  C   UNL d   1      61.596  48.266  50.063  0.00  0.00     0.030 A 
ATOM     31  F   UNL d   1      62.313  48.683  48.903  0.00  0.00    -0.204 F 
ATOM     32  C   UNL d   1      61.036  48.400  50.642  0.00  0.00     0.004 A 
ENDBRANCH   4  26
TORSDOF 3
ENDMDL
