MODEL 1
REMARK VINA RESULT:      19.8      0.000      0.000
REMARK  6 active torsions:
REMARK  status: ('A' for Active; 'I' for Inactive)
REMARK    1  A    between atoms: C_9  and  C_3 
REMARK    2  A    between atoms: C_8  and  C_5 
REMARK    3  A    between atoms: O_19  and  C_9 
REMARK    4  A    between atoms: C_22  and  O_19 
REMARK    5  A    between atoms: O_21  and  C_23 
REMARK    6  A    between atoms: C_23  and  C_22 
ROOT
ATOM      1  N   UNL d   1      46.362 -18.985  42.581  0.00  0.00    -0.254 N 
ATOM      2  C   UNL d   1      46.497 -18.450  41.965  0.00  0.00     0.182 A 
ATOM      3  C   UNL d   1      46.317 -17.900  43.510  0.00  0.00     0.098 A 
ATOM      4  N   UNL d   1      46.540 -17.642  42.125  0.00  0.00    -0.222 NA
ATOM      5  C   UNL d   1      46.272 -18.713  43.355  0.00  0.00     0.081 A 
ATOM      6  C   UNL d   1      46.451 -17.363  42.896  0.00  0.00     0.090 A 
ATOM      7  C   UNL d   1      46.319 -19.792  42.421  0.00  0.00     0.267 A 
ATOM      8  S   UNL d   1      46.587 -18.718  41.193  0.00  0.00    -0.049 SA
ATOM      9  C   UNL d   1      46.409 -20.063  41.647  0.00  0.00     0.068 A 
ATOM     10  O   UNL d   1      46.185 -20.330  43.035  0.00  0.00    -0.267 OA
ATOM     11  C   UNL d   1      46.544 -19.526  41.033  0.00  0.00     0.043 A 
ATOM     12  C   UNL d   1      46.495 -16.555  43.050  0.00  0.00     0.021 C 
ENDROOT
BRANCH   3  13
ATOM     13  C   UNL d   1      46.227 -17.627  44.280  0.00  0.00     0.303 C 
ATOM     14  O   UNL d   1      46.021 -18.148  44.889  0.00  0.00    -0.259 OA
BRANCH  13  15
ATOM     15  O   UNL d   1      46.342 -16.828  44.452  0.00  0.00    -0.269 OA
BRANCH  15  16
ATOM     16  C   UNL d   1      45.819 -16.425  44.953  0.00  0.00     0.152 C 
BRANCH  16  17
ATOM     17  C   UNL d   1      45.621 -15.636  44.803  0.00  0.00     0.143 C 
BRANCH  17  18
ATOM     18  O   UNL d   1      44.824 -15.418  44.733  0.00  0.00    -0.324 OA
ATOM     19  C   UNL d   1      44.592 -14.643  44.893  0.00  0.00     0.182 C 
ENDBRANCH  17  18
ENDBRANCH  16  17
ENDBRANCH  15  16
ENDBRANCH  13  15
ENDBRANCH   3  13
BRANCH   5  20
ATOM     20  C   UNL d   1      46.138 -19.251  43.969  0.00  0.00     0.046 A 
ATOM     21  S   UNL d   1      46.646 -19.748  44.387  0.00  0.00    -0.085 SA
ATOM     22  C   UNL d   1      46.195 -20.160  44.940  0.00  0.00     0.035 A 
ATOM     23  C   UNL d   1      45.412 -19.918  44.863  0.00  0.00     0.007 A 
ATOM     24  C   UNL d   1      45.375 -19.358  44.265  0.00  0.00     0.009 A 
ENDBRANCH   5  20
TORSDOF 6
ENDMDL
