MODEL 1
REMARK VINA RESULT:      -4.5      0.000      0.000
REMARK  5 active torsions:
REMARK  status: ('A' for Active; 'I' for Inactive)
REMARK    1  A    between atoms: N_5  and  S_1 
REMARK    2  A    between atoms: C_9  and  S_1 
REMARK    3  A    between atoms: C_2  and  N_4 
REMARK    4  A    between atoms: C_7  and  C_3 
REMARK       I    between atoms: N_4  and  C_6 
REMARK    5  A    between atoms: C_6  and  C_14 
ROOT
ATOM      1  C   UNL d   1      56.775   0.091  32.278  0.00  0.00     0.104 A 
ATOM      2  C   UNL d   1      57.757  -0.155  30.974  0.00  0.00     0.058 A 
ATOM      3  C   UNL d   1      56.753  -0.628  31.870  0.00  0.00     0.013 A 
ATOM      4  C   UNL d   1      57.288   0.682  32.031  0.00  0.00     0.013 A 
ATOM      5  C   UNL d   1      57.244  -0.746  31.221  0.00  0.00     0.005 A 
ATOM      6  C   UNL d   1      57.778   0.565  31.383  0.00  0.00     0.005 A 
ENDROOT
BRANCH   2   7
ATOM      7  C   UNL d   1      58.251  -0.276  30.319  0.00  0.00     0.280 C 
ATOM      8  N   UNL d   1      58.488  -1.038  30.117  0.00  0.00    -0.201 NA
ATOM      9  O   UNL d   1      58.495   0.366  29.885  0.00  0.00    -0.265 OA
BRANCH   8  10
ATOM     10  C   UNL d   1      58.979  -1.152  29.467  0.00  0.00     0.119 A 
ATOM     11  C   UNL d   1      59.111  -1.871  29.079  0.00  0.00     0.084 A 
ATOM     12  C   UNL d   1      59.643  -1.731  28.455  0.00  0.00     0.014 A 
ATOM     13  C   UNL d   1      59.833  -0.927  28.464  0.00  0.00     0.037 A 
ATOM     14  S   UNL d   1      59.423  -0.578  29.086  0.00  0.00    -0.067 SA
BRANCH  11  15
ATOM     15  C   UNL d   1      58.780  -2.600  29.270  0.00  0.00     0.299 C 
ATOM     16  O   UNL d   1      58.006  -2.771  29.028  0.00  0.00    -0.264 OA
ATOM     17  N   UNL d   1      59.213  -3.156  29.699  0.00  0.00    -0.102 N 
ENDBRANCH  11  15
ENDBRANCH   8  10
ENDBRANCH   2   7
BRANCH   1  18
ATOM     18  S   UNL d   1      56.284   0.208  32.926  0.00  0.00     0.271 S 
ATOM     19  O   UNL d   1      56.898  -0.018  33.434  0.00  0.00    -0.200 OA
ATOM     20  O   UNL d   1      55.674   0.433  32.425  0.00  0.00    -0.200 OA
BRANCH  18  21
ATOM     21  N   UNL d   1      55.790   0.327  33.577  0.00  0.00    -0.229 N 
ATOM     22  C   UNL d   1      54.976   0.400  33.471  0.00  0.00     0.092 A 
ATOM     23  C   UNL d   1      54.482   0.519  34.126  0.00  0.00     0.020 A 
ATOM     24  C   UNL d   1      54.803   0.563  34.877  0.00  0.00     0.003 A 
ATOM     25  C   UNL d   1      55.620   0.489  34.988  0.00  0.00     0.020 A 
ATOM     26  C   UNL d   1      56.112   0.372  34.342  0.00  0.00     0.092 A 
ENDBRANCH  18  21
ENDBRANCH   1  18
TORSDOF 5
ENDMDL
MODEL 2
REMARK VINA RESULT:      -3.1      1.321      1.541
REMARK  5 active torsions:
REMARK  status: ('A' for Active; 'I' for Inactive)
REMARK    1  A    between atoms: N_5  and  S_1 
REMARK    2  A    between atoms: C_9  and  S_1 
REMARK    3  A    between atoms: C_2  and  N_4 
REMARK    4  A    between atoms: C_7  and  C_3 
REMARK       I    between atoms: N_4  and  C_6 
REMARK    5  A    between atoms: C_6  and  C_14 
ROOT
ATOM      1  C   UNL d   1      56.746   0.396  32.734  0.00  0.00     0.104 A 
ATOM      2  C   UNL d   1      57.495   0.250  31.270  0.00  0.00     0.058 A 
ATOM      3  C   UNL d   1      56.352   0.043  32.098  0.00  0.00     0.013 A 
ATOM      4  C   UNL d   1      57.512   0.674  32.633  0.00  0.00     0.013 A 
ATOM      5  C   UNL d   1      56.729  -0.027  31.371  0.00  0.00     0.005 A 
ATOM      6  C   UNL d   1      57.889   0.604  31.907  0.00  0.00     0.005 A 
ENDROOT
BRANCH   2   7
ATOM      7  C   UNL d   1      57.873   0.179  30.535  0.00  0.00     0.280 C 
ATOM      8  N   UNL d   1      58.674  -0.011  30.501  0.00  0.00    -0.201 NA
ATOM      9  O   UNL d   1      57.443   0.298  29.856  0.00  0.00    -0.265 OA
BRANCH   8  10
ATOM     10  C   UNL d   1      59.044  -0.081  29.770  0.00  0.00     0.119 A 
ATOM     11  C   UNL d   1      59.861  -0.097  29.640  0.00  0.00     0.084 A 
ATOM     12  C   UNL d   1      59.987  -0.174  28.821  0.00  0.00     0.014 A 
ATOM     13  C   UNL d   1      59.247  -0.205  28.455  0.00  0.00     0.037 A 
ATOM     14  S   UNL d   1      58.673  -0.148  29.042  0.00  0.00    -0.067 SA
BRANCH  11  15
ATOM     15  C   UNL d   1      60.450  -0.046  30.212  0.00  0.00     0.299 C 
ATOM     16  O   UNL d   1      60.661  -0.724  30.640  0.00  0.00    -0.264 OA
ATOM     17  N   UNL d   1      60.828   0.672  30.358  0.00  0.00    -0.102 N 
ENDBRANCH  11  15
ENDBRANCH   8  10
ENDBRANCH   2   7
BRANCH   1  18
ATOM     18  S   UNL d   1      56.369   0.466  33.461  0.00  0.00     0.271 S 
ATOM     19  O   UNL d   1      57.099   0.401  33.847  0.00  0.00    -0.200 OA
ATOM     20  O   UNL d   1      55.645   0.531  33.079  0.00  0.00    -0.200 OA
BRANCH  18  21
ATOM     21  N   UNL d   1      55.990   0.537  34.190  0.00  0.00    -0.229 N 
ATOM     22  C   UNL d   1      55.167   0.535  34.230  0.00  0.00     0.092 A 
ATOM     23  C   UNL d   1      54.787   0.606  34.964  0.00  0.00     0.020 A 
ATOM     24  C   UNL d   1      55.231   0.678  35.648  0.00  0.00     0.003 A 
ATOM     25  C   UNL d   1      56.058   0.680  35.612  0.00  0.00     0.020 A 
ATOM     26  C   UNL d   1      56.436   0.610  34.887  0.00  0.00     0.092 A 
ENDBRANCH  18  21
ENDBRANCH   1  18
TORSDOF 5
ENDMDL
MODEL 3
REMARK VINA RESULT:      -2.3      1.113      5.540
REMARK  5 active torsions:
REMARK  status: ('A' for Active; 'I' for Inactive)
REMARK    1  A    between atoms: N_5  and  S_1 
REMARK    2  A    between atoms: C_9  and  S_1 
REMARK    3  A    between atoms: C_2  and  N_4 
REMARK    4  A    between atoms: C_7  and  C_3 
REMARK       I    between atoms: N_4  and  C_6 
REMARK    5  A    between atoms: C_6  and  C_14 
ROOT
ATOM      1  C   UNL d   1      57.632  -0.195  30.955  0.00  0.00     0.104 A 
ATOM      2  C   UNL d   1      56.463   0.039  32.097  0.00  0.00     0.058 A 
ATOM      3  C   UNL d   1      57.335  -0.837  31.385  0.00  0.00     0.013 A 
ATOM      4  C   UNL d   1      57.342   0.559  31.099  0.00  0.00     0.013 A 
ATOM      5  C   UNL d   1      56.753  -0.715  31.952  0.00  0.00     0.005 A 
ATOM      6  C   UNL d   1      56.760   0.681  31.666  0.00  0.00     0.005 A 
ENDROOT
BRANCH   2   7
ATOM      7  C   UNL d   1      55.876   0.160  32.670  0.00  0.00     0.280 C 
ATOM      8  N   UNL d   1      56.086   0.373  33.437  0.00  0.00    -0.201 NA
ATOM      9  O   UNL d   1      55.096   0.064  32.462  0.00  0.00    -0.265 OA
BRANCH   8  10
ATOM     10  C   UNL d   1      55.500   0.491  34.002  0.00  0.00     0.119 A 
ATOM     11  C   UNL d   1      55.620   0.568  34.816  0.00  0.00     0.084 A 
ATOM     12  C   UNL d   1      54.877   0.679  35.174  0.00  0.00     0.014 A 
ATOM     13  C   UNL d   1      54.307   0.668  34.577  0.00  0.00     0.037 A 
ATOM     14  S   UNL d   1      54.695   0.553  33.860  0.00  0.00    -0.067 SA
BRANCH  11  15
ATOM     15  C   UNL d   1      56.341   0.542  35.211  0.00  0.00     0.299 C 
ATOM     16  O   UNL d   1      57.045   0.539  34.773  0.00  0.00    -0.264 OA
ATOM     17  N   UNL d   1      56.365   0.518  36.035  0.00  0.00    -0.102 N 
ENDBRANCH  11  15
ENDBRANCH   8  10
ENDBRANCH   2   7
BRANCH   1  18
ATOM     18  S   UNL d   1      58.214  -0.317  30.387  0.00  0.00     0.271 S 
ATOM     19  O   UNL d   1      57.893  -1.062  30.217  0.00  0.00    -0.200 OA
ATOM     20  O   UNL d   1      58.532   0.421  30.555  0.00  0.00    -0.200 OA
BRANCH  18  21
ATOM     21  N   UNL d   1      58.798  -0.438  29.818  0.00  0.00    -0.229 N 
ATOM     22  C   UNL d   1      59.588  -0.287  29.997  0.00  0.00     0.092 A 
ATOM     23  C   UNL d   1      60.175  -0.410  29.424  0.00  0.00     0.020 A 
ATOM     24  C   UNL d   1      59.967  -0.681  28.679  0.00  0.00     0.003 A 
ATOM     25  C   UNL d   1      59.175  -0.833  28.495  0.00  0.00     0.020 A 
ATOM     26  C   UNL d   1      58.593  -0.713  29.061  0.00  0.00     0.092 A 
ENDBRANCH  18  21
ENDBRANCH   1  18
TORSDOF 5
ENDMDL
