MODEL 1
REMARK VINA RESULT:      -4.6      0.000      0.000
REMARK  4 active torsions:
REMARK  status: ('A' for Active; 'I' for Inactive)
REMARK    1  A    between atoms: C_15  and  C_2 
REMARK    2  A    between atoms: C_6  and  S_16 
REMARK    3  A    between atoms: N_8  and  C_11 
REMARK    4  A    between atoms: S_16  and  C_15 
ROOT
ATOM      1  C   UNL d   1      57.770   0.046  30.574  0.00  0.00     0.141 A 
ATOM      2  N   UNL d   1      57.851  -0.758  30.516  0.00  0.00    -0.232 NA
ATOM      3  S   UNL d   1      58.247   0.402  29.999  0.00  0.00    -0.060 SA
ATOM      4  C   UNL d   1      58.384  -0.922  29.899  0.00  0.00     0.090 A 
ATOM      5  C   UNL d   1      59.217  -1.626  28.958  0.00  0.00     0.128 A 
ATOM      6  C   UNL d   1      58.632  -0.215  29.577  0.00  0.00     0.049 A 
ATOM      7  C   UNL d   1      58.670  -1.639  29.598  0.00  0.00     0.043 A 
ATOM      8  C   UNL d   1      59.459  -0.919  28.641  0.00  0.00     0.024 A 
ATOM      9  C   UNL d   1      59.171  -0.209  28.946  0.00  0.00     0.010 A 
ENDROOT
BRANCH   1  10
ATOM     10  S   UNL d   1      57.285   0.439  31.123  0.00  0.00    -0.059 SA
BRANCH  10  11
ATOM     11  C   UNL d   1      57.493   0.455  31.914  0.00  0.00     0.059 C 
BRANCH  11  12
ATOM     12  C   UNL d   1      56.900   0.491  32.500  0.00  0.00     0.112 A 
ATOM     13  C   UNL d   1      57.050   0.598  33.320  0.00  0.00     0.119 A 
ATOM     14  N   UNL d   1      56.301   0.599  33.680  0.00  0.00    -0.284 N 
ATOM     15 BR   UNL d   1      57.792   0.681  33.676  0.00  0.00    -0.028 Br
ATOM     16  C   UNL d   1      55.727   0.498  33.105  0.00  0.00     0.148 A 
ATOM     17  C   UNL d   1      56.093   0.681  34.468  0.00  0.00     0.082 A 
ATOM     18  N   UNL d   1      56.106   0.432  32.375  0.00  0.00    -0.226 NA
ATOM     19  C   UNL d   1      54.930   0.478  33.304  0.00  0.00     0.037 A 
ATOM     20  C   UNL d   1      54.722   0.561  34.098  0.00  0.00     0.005 A 
ATOM     21  C   UNL d   1      55.296   0.661  34.673  0.00  0.00     0.019 A 
ENDBRANCH  11  12
ENDBRANCH  10  11
ENDBRANCH   1  10
BRANCH   5  22
ATOM     22  N   UNL d   1      59.506  -2.367  28.653  0.00  0.00    -0.114 N 
ATOM     23  O   UNL d   1      60.317  -2.490  28.553  0.00  0.00    -0.532 OA
ATOM     24  O   UNL d   1      58.970  -2.965  28.457  0.00  0.00    -0.532 OA
ENDBRANCH   5  22
TORSDOF 4
ENDMDL
MODEL 2
REMARK VINA RESULT:      -4.0      2.725      5.497
REMARK  4 active torsions:
REMARK  status: ('A' for Active; 'I' for Inactive)
REMARK    1  A    between atoms: C_15  and  C_2 
REMARK    2  A    between atoms: C_6  and  S_16 
REMARK    3  A    between atoms: N_8  and  C_11 
REMARK    4  A    between atoms: S_16  and  C_15 
ROOT
ATOM      1  C   UNL d   1      56.958  -0.208  31.415  0.00  0.00     0.141 A 
ATOM      2  N   UNL d   1      56.729   0.398  31.903  0.00  0.00    -0.232 NA
ATOM      3  S   UNL d   1      56.671  -0.919  31.725  0.00  0.00    -0.060 SA
ATOM      4  C   UNL d   1      56.291   0.074  32.531  0.00  0.00     0.090 A 
ATOM      5  C   UNL d   1      55.514  -0.053  33.737  0.00  0.00     0.128 A 
ATOM      6  C   UNL d   1      56.251  -0.734  32.430  0.00  0.00     0.049 A 
ATOM      7  C   UNL d   1      55.925   0.430  33.184  0.00  0.00     0.043 A 
ATOM      8  C   UNL d   1      55.478  -0.857  33.631  0.00  0.00     0.024 A 
ATOM      9  C   UNL d   1      55.844  -1.205  32.979  0.00  0.00     0.010 A 
ENDROOT
BRANCH   1  10
ATOM     10  S   UNL d   1      57.407  -0.119  30.722  0.00  0.00    -0.059 SA
BRANCH  10  11
ATOM     11  C   UNL d   1      58.206   0.052  30.770  0.00  0.00     0.059 C 
BRANCH  11  12
ATOM     12  C   UNL d   1      58.741  -0.301  30.237  0.00  0.00     0.112 A 
ATOM     13  C   UNL d   1      59.506   0.000  30.064  0.00  0.00     0.119 A 
ATOM     14  N   UNL d   1      59.829  -0.531  29.512  0.00  0.00    -0.284 N 
ATOM     15 BR   UNL d   1      59.849   0.681  30.384  0.00  0.00    -0.028 Br
ATOM     16  C   UNL d   1      59.285  -1.124  29.359  0.00  0.00     0.148 A 
ATOM     17  C   UNL d   1      60.558  -0.528  29.139  0.00  0.00     0.082 A 
ATOM     18  N   UNL d   1      58.612  -0.975  29.813  0.00  0.00    -0.226 NA
ATOM     19  C   UNL d   1      59.458  -1.727  28.830  0.00  0.00     0.037 A 
ATOM     20  C   UNL d   1      60.193  -1.723  28.455  0.00  0.00     0.005 A 
ATOM     21  C   UNL d   1      60.736  -1.130  28.608  0.00  0.00     0.019 A 
ENDBRANCH  11  12
ENDBRANCH  10  11
ENDBRANCH   1  10
BRANCH   5  22
ATOM     22  N   UNL d   1      55.140   0.320  34.407  0.00  0.00    -0.114 N 
ATOM     23  O   UNL d   1      55.512   0.322  35.145  0.00  0.00    -0.532 OA
ATOM     24  O   UNL d   1      54.403   0.680  34.313  0.00  0.00    -0.532 OA
ENDBRANCH   5  22
TORSDOF 4
ENDMDL
