MODEL 1
REMARK VINA RESULT:      -3.8      0.000      0.000
REMARK  4 active torsions:
REMARK  status: ('A' for Active; 'I' for Inactive)
REMARK    1  A    between atoms: C_11  and  C_4 
REMARK    2  A    between atoms: N_10  and  C_5 
REMARK    3  A    between atoms: C_13  and  N_10 
REMARK    4  A    between atoms: C_14  and  C_13 
ROOT
ATOM      1  N   UNL d   1     -41.578-122.538 -51.996  0.00  0.00    -0.195 N 
ATOM      2  C   UNL d   1     -41.560-122.005 -52.625  0.00  0.00     0.167 A 
ATOM      3  N   UNL d   1     -41.739-123.280 -52.302  0.00  0.00    -0.163 NA
ATOM      4  C   UNL d   1     -41.710-122.418 -53.318  0.00  0.00     0.055 A 
ATOM      5  C   UNL d   1     -41.446-122.274 -51.228  0.00  0.00     0.167 A 
ATOM      6  C   UNL d   1     -41.820-123.206 -53.121  0.00  0.00     0.104 A 
ATOM      7  N   UNL d   1     -41.410-121.208 -52.486  0.00  0.00    -0.227 NA
ATOM      8  C   UNL d   1     -41.293-121.472 -51.084  0.00  0.00     0.058 A 
ATOM      9  C   UNL d   1     -41.275-120.938 -51.713  0.00  0.00     0.086 A 
ATOM     10  C   UNL d   1     -41.985-123.817 -53.650  0.00  0.00     0.023 C 
ATOM     11  C   UNL d   1     -41.124-120.131 -51.580  0.00  0.00     0.021 C 
ENDROOT
BRANCH   5  12
ATOM     12  N   UNL d   1     -41.464-122.808 -50.599  0.00  0.00    -0.224 NA
BRANCH  12  13
ATOM     13  C   UNL d   1     -41.368-122.539 -49.828  0.00  0.00     0.120 C 
BRANCH  13  14
ATOM     14  C   UNL d   1     -41.690-122.964 -49.199  0.00  0.00     0.101 A 
ATOM     15  N   UNL d   1     -42.485-123.200 -49.225  0.00  0.00    -0.242 NA
ATOM     16  C   UNL d   1     -42.808-123.628 -48.593  0.00  0.00     0.099 A 
ATOM     17  C   UNL d   1     -42.335-123.817 -47.938  0.00  0.00     0.021 A 
ATOM     18  C   UNL d   1     -41.547-123.581 -47.916  0.00  0.00     0.003 A 
ATOM     19  C   UNL d   1     -41.224-123.153 -48.548  0.00  0.00     0.021 A 
ENDBRANCH  13  14
ENDBRANCH  12  13
ENDBRANCH   5  12
BRANCH   4  20
ATOM     20  C   UNL d   1     -41.761-122.183 -54.108  0.00  0.00     0.004 A 
ATOM     21  C   UNL d   1     -41.129-122.333 -54.624  0.00  0.00     0.000 A 
ATOM     22  C   UNL d   1     -41.180-122.097 -55.415  0.00  0.00     0.000 A 
ATOM     23  C   UNL d   1     -41.855-121.714 -55.691  0.00  0.00     0.000 A 
ATOM     24  C   UNL d   1     -42.487-121.565 -55.171  0.00  0.00     0.000 A 
ATOM     25  C   UNL d   1     -42.436-121.799 -54.385  0.00  0.00     0.000 A 
ENDBRANCH   4  20
TORSDOF 4
ENDMDL
