MODEL 1
REMARK VINA RESULT:      -7.6      0.000      0.000
REMARK  2 active torsions:
REMARK  status: ('A' for Active; 'I' for Inactive)
REMARK    1  A    between atoms: O_3  and  C_1 
REMARK       I    between atoms: N_6  and  C_1 
REMARK    2  A    between atoms: C_5  and  O_3 
ROOT
ATOM      1  C   UNL d   1     -47.827  13.260  22.927  0.00  0.00     0.105 A 
ATOM      2  C   UNL d   1     -47.359  12.650  23.221  0.00  0.00     0.030 A 
ATOM      3  C   UNL d   1     -48.648  13.140  22.811  0.00  0.00     0.122 A 
ATOM      4  N   UNL d   1     -47.488  13.995  22.745  0.00  0.00    -0.242 NA
ATOM      5  C   UNL d   1     -47.698  11.918  23.401  0.00  0.00     0.059 A 
ATOM      6  C   UNL d   1     -48.984  12.413  22.991  0.00  0.00     0.027 A 
ATOM      7  C   UNL d   1     -48.520  11.798  23.285  0.00  0.00     0.013 A 
ATOM      8 CL   UNL d   1     -47.230  11.299  23.698  0.00  0.00    -0.082 Cl
ATOM      9  C   UNL d   1     -46.551  12.768  23.335  0.00  0.00     0.004 A 
ATOM     10  C   UNL d   1     -46.680  14.113  22.859  0.00  0.00     0.099 A 
ATOM     11  C   UNL d   1     -46.210  13.495  23.156  0.00  0.00     0.021 A 
ENDROOT
BRANCH   3  12
ATOM     12  O   UNL d   1     -49.125  13.757  22.513  0.00  0.00    -0.257 OA
BRANCH  12  13
ATOM     13  C   UNL d   1     -49.776  13.589  22.018  0.00  0.00     0.378 C 
ATOM     14  N   UNL d   1     -50.424  14.087  21.995  0.00  0.00    -0.249 N 
ATOM     15  C   UNL d   1     -51.064  13.916  21.503  0.00  0.00     0.104 C 
ATOM     16  C   UNL d   1     -50.439  14.765  22.466  0.00  0.00     0.104 C 
ATOM     17  O   UNL d   1     -49.760  12.902  21.540  0.00  0.00    -0.237 OA
ENDBRANCH  12  13
ENDBRANCH   3  12
TORSDOF 2
ENDMDL
MODEL 2
REMARK VINA RESULT:      -7.2      1.735      3.401
REMARK  2 active torsions:
REMARK  status: ('A' for Active; 'I' for Inactive)
REMARK    1  A    between atoms: O_3  and  C_1 
REMARK       I    between atoms: N_6  and  C_1 
REMARK    2  A    between atoms: C_5  and  O_3 
ROOT
ATOM      1  C   UNL d   1     -49.299  12.670  22.724  0.00  0.00     0.105 A 
ATOM      2  C   UNL d   1     -50.058  12.739  22.415  0.00  0.00     0.030 A 
ATOM      3  C   UNL d   1     -48.668  13.109  22.390  0.00  0.00     0.122 A 
ATOM      4  N   UNL d   1     -49.155  12.167  23.369  0.00  0.00    -0.242 NA
ATOM      5  C   UNL d   1     -50.200  13.241  21.773  0.00  0.00     0.059 A 
ATOM      6  C   UNL d   1     -48.810  13.607  21.753  0.00  0.00     0.027 A 
ATOM      7  C   UNL d   1     -49.569  13.680  21.439  0.00  0.00     0.013 A 
ATOM      8 CL   UNL d   1     -50.965  13.314  21.458  0.00  0.00    -0.082 Cl
ATOM      9  C   UNL d   1     -50.679  12.307  22.744  0.00  0.00     0.004 A 
ATOM     10  C   UNL d   1     -49.776  11.735  23.698  0.00  0.00     0.099 A 
ATOM     11  C   UNL d   1     -50.541  11.807  23.383  0.00  0.00     0.021 A 
ENDROOT
BRANCH   3  12
ATOM     12  O   UNL d   1     -47.897  13.041  22.702  0.00  0.00    -0.257 OA
BRANCH  12  13
ATOM     13  C   UNL d   1     -47.408  13.714  22.777  0.00  0.00     0.378 C 
ATOM     14  N   UNL d   1     -46.594  13.642  22.776  0.00  0.00    -0.249 N 
ATOM     15  C   UNL d   1     -46.116  14.310  22.850  0.00  0.00     0.104 C 
ATOM     16  C   UNL d   1     -46.246  12.897  22.700  0.00  0.00     0.104 C 
ATOM     17  O   UNL d   1     -47.761  14.469  22.853  0.00  0.00    -0.237 OA
ENDBRANCH  12  13
ENDBRANCH   3  12
TORSDOF 2
ENDMDL
MODEL 3
REMARK VINA RESULT:      -7.1      1.627      3.305
REMARK  2 active torsions:
REMARK  status: ('A' for Active; 'I' for Inactive)
REMARK    1  A    between atoms: O_3  and  C_1 
REMARK       I    between atoms: N_6  and  C_1 
REMARK    2  A    between atoms: C_5  and  O_3 
ROOT
ATOM      1  C   UNL d   1     -49.376  13.802  22.773  0.00  0.00     0.105 A 
ATOM      2  C   UNL d   1     -50.087  13.865  22.364  0.00  0.00     0.030 A 
ATOM      3  C   UNL d   1     -48.915  13.106  22.706  0.00  0.00     0.122 A 
ATOM      4  N   UNL d   1     -49.114  14.426  23.254  0.00  0.00    -0.242 NA
ATOM      5  C   UNL d   1     -50.347  13.243  21.886  0.00  0.00     0.059 A 
ATOM      6  C   UNL d   1     -49.173  12.488  22.232  0.00  0.00     0.027 A 
ATOM      7  C   UNL d   1     -49.885  12.547  21.819  0.00  0.00     0.013 A 
ATOM      8 CL   UNL d   1     -51.064  13.303  21.471  0.00  0.00    -0.082 Cl
ATOM      9  C   UNL d   1     -50.542  14.551  22.430  0.00  0.00     0.004 A 
ATOM     10  C   UNL d   1     -49.568  15.111  23.319  0.00  0.00     0.099 A 
ATOM     11  C   UNL d   1     -50.286  15.172  22.905  0.00  0.00     0.021 A 
ENDROOT
BRANCH   3  12
ATOM     12  O   UNL d   1     -48.193  13.039  23.120  0.00  0.00    -0.257 OA
BRANCH  12  13
ATOM     13  C   UNL d   1     -47.909  12.291  23.360  0.00  0.00     0.378 C 
ATOM     14  N   UNL d   1     -47.109  12.160  23.461  0.00  0.00    -0.249 N 
ATOM     15  C   UNL d   1     -46.833  11.420  23.698  0.00  0.00     0.104 C 
ATOM     16  C   UNL d   1     -46.570  12.772  23.326  0.00  0.00     0.104 C 
ATOM     17  O   UNL d   1     -48.454  11.671  23.497  0.00  0.00    -0.237 OA
ENDBRANCH  12  13
ENDBRANCH   3  12
TORSDOF 2
ENDMDL
MODEL 4
REMARK VINA RESULT:      -6.8      1.778      3.566
REMARK  2 active torsions:
REMARK  status: ('A' for Active; 'I' for Inactive)
REMARK    1  A    between atoms: O_3  and  C_1 
REMARK       I    between atoms: N_6  and  C_1 
REMARK    2  A    between atoms: C_5  and  O_3 
ROOT
ATOM      1  C   UNL d   1     -49.534  13.357  23.040  0.00  0.00     0.105 A 
ATOM      2  C   UNL d   1     -50.192  13.850  23.017  0.00  0.00     0.030 A 
ATOM      3  C   UNL d   1     -48.763  13.686  23.033  0.00  0.00     0.122 A 
ATOM      4  N   UNL d   1     -49.630  12.533  23.069  0.00  0.00    -0.242 NA
ATOM      5  C   UNL d   1     -50.094  14.671  22.987  0.00  0.00     0.059 A 
ATOM      6  C   UNL d   1     -48.667  14.500  23.004  0.00  0.00     0.027 A 
ATOM      7  C   UNL d   1     -49.323  14.999  22.981  0.00  0.00     0.013 A 
ATOM      8 CL   UNL d   1     -50.756  15.172  22.964  0.00  0.00    -0.082 Cl
ATOM      9  C   UNL d   1     -50.951  13.526  23.023  0.00  0.00     0.004 A 
ATOM     10  C   UNL d   1     -50.389  12.209  23.075  0.00  0.00     0.099 A 
ATOM     11  C   UNL d   1     -51.051  12.710  23.052  0.00  0.00     0.021 A 
ENDROOT
BRANCH   3  12
ATOM     12  O   UNL d   1     -48.094  13.188  23.056  0.00  0.00    -0.257 OA
BRANCH  12  13
ATOM     13  C   UNL d   1     -47.390  13.404  22.662  0.00  0.00     0.378 C 
ATOM     14  N   UNL d   1     -46.669  13.098  22.895  0.00  0.00    -0.249 N 
ATOM     15  C   UNL d   1     -45.976  13.316  22.502  0.00  0.00     0.104 C 
ATOM     16  C   UNL d   1     -46.630  12.568  23.527  0.00  0.00     0.104 C 
ATOM     17  O   UNL d   1     -47.428  13.941  22.021  0.00  0.00    -0.237 OA
ENDBRANCH  12  13
ENDBRANCH   3  12
TORSDOF 2
ENDMDL
