MODEL 1
REMARK VINA RESULT:      -3.3      0.000      0.000
REMARK  3 active torsions:
REMARK  status: ('A' for Active; 'I' for Inactive)
REMARK    1  A    between atoms: N_6  and  C_2 
REMARK    2  A    between atoms: C_7  and  C_5 
REMARK    3  A    between atoms: C_9  and  C_7 
ROOT
ATOM      1  N   UNL d   1     -41.675-121.683 -50.684  0.00  0.00    -0.183 NA
ATOM      2  C   UNL d   1     -41.853-122.470 -50.839  0.00  0.00     0.183 A 
ATOM      3  S   UNL d   1     -41.669-122.623 -51.625  0.00  0.00    -0.045 SA
ATOM      4  C   UNL d   1     -41.381-121.348 -51.375  0.00  0.00     0.287 A 
ATOM      5  C   UNL d   1     -41.375-121.927 -51.962  0.00  0.00     0.090 A 
ATOM      6  O   UNL d   1     -41.133-120.566 -51.466  0.00  0.00    -0.265 OA
ENDROOT
BRANCH   5   7
ATOM      7  C   UNL d   1     -41.123-121.830 -52.741  0.00  0.00     0.011 C 
BRANCH   7   8
ATOM      8  C   UNL d   1     -41.479-122.256 -53.347  0.00  0.00     0.001 A 
ATOM      9  C   UNL d   1     -42.102-121.916 -53.774  0.00  0.00     0.001 A 
ATOM     10  C   UNL d   1     -42.461-122.342 -54.383  0.00  0.00     0.011 A 
ATOM     11  C   UNL d   1     -42.200-123.105 -54.565  0.00  0.00     0.058 A 
ATOM     12  C   UNL d   1     -41.581-123.440 -54.139  0.00  0.00     0.011 A 
ATOM     13 CL   UNL d   1     -42.587-123.496 -55.181  0.00  0.00    -0.082 Cl
ATOM     14  C   UNL d   1     -41.218-123.026 -53.534  0.00  0.00     0.001 A 
ENDBRANCH   7   8
ENDBRANCH   5   7
BRANCH   2  15
ATOM     15  N   UNL d   1     -42.161-122.917 -50.211  0.00  0.00    -0.280 N 
ATOM     16  C   UNL d   1     -42.969-122.923 -50.062  0.00  0.00     0.109 A 
ATOM     17  C   UNL d   1     -43.275-123.373 -49.431  0.00  0.00     0.142 A 
ATOM     18  O   UNL d   1     -42.761-123.810 -48.961  0.00  0.00    -0.300 OA
ATOM     19  C   UNL d   1     -41.942-123.805 -49.112  0.00  0.00     0.142 A 
ATOM     20  C   UNL d   1     -41.649-123.359 -49.735  0.00  0.00     0.109 A 
ENDBRANCH   2  15
TORSDOF 3
ENDMDL
MODEL 2
REMARK VINA RESULT:      -1.3      2.276      4.607
REMARK  3 active torsions:
REMARK  status: ('A' for Active; 'I' for Inactive)
REMARK    1  A    between atoms: N_6  and  C_2 
REMARK    2  A    between atoms: C_7  and  C_5 
REMARK    3  A    between atoms: C_9  and  C_7 
ROOT
ATOM      1  N   UNL d   1     -43.012-122.231 -50.987  0.00  0.00    -0.183 NA
ATOM      2  C   UNL d   1     -42.319-122.627 -51.182  0.00  0.00     0.183 A 
ATOM      3  S   UNL d   1     -42.193-123.212 -50.620  0.00  0.00    -0.045 SA
ATOM      4  C   UNL d   1     -43.315-122.571 -50.302  0.00  0.00     0.287 A 
ATOM      5  C   UNL d   1     -42.810-123.180 -50.070  0.00  0.00     0.090 A 
ATOM      6  O   UNL d   1     -44.005-122.342 -49.913  0.00  0.00    -0.265 OA
ENDROOT
BRANCH   5   7
ATOM      7  C   UNL d   1     -42.904-123.667 -49.412  0.00  0.00     0.011 C 
BRANCH   7   8
ATOM      8  C   UNL d   1     -42.451-123.542 -48.737  0.00  0.00     0.001 A 
ATOM      9  C   UNL d   1     -42.811-123.240 -48.053  0.00  0.00     0.001 A 
ATOM     10  C   UNL d   1     -42.358-123.114 -47.375  0.00  0.00     0.011 A 
ATOM     11  C   UNL d   1     -41.550-123.288 -47.378  0.00  0.00     0.058 A 
ATOM     12  C   UNL d   1     -41.196-123.587 -48.058  0.00  0.00     0.011 A 
ATOM     13 CL   UNL d   1     -41.134-123.146 -46.678  0.00  0.00    -0.082 Cl
ATOM     14  C   UNL d   1     -41.636-123.716 -48.735  0.00  0.00     0.001 A 
ENDBRANCH   7   8
ENDBRANCH   5   7
BRANCH   2  15
ATOM     15  N   UNL d   1     -41.918-122.371 -51.862  0.00  0.00    -0.280 N 
ATOM     16  C   UNL d   1     -41.552-121.635 -51.877  0.00  0.00     0.109 A 
ATOM     17  C   UNL d   1     -41.150-121.382 -52.561  0.00  0.00     0.142 A 
ATOM     18  O   UNL d   1     -41.123-121.874 -53.219  0.00  0.00    -0.300 OA
ATOM     19  C   UNL d   1     -41.493-122.620 -53.205  0.00  0.00     0.142 A 
ATOM     20  C   UNL d   1     -41.887-122.862 -52.527  0.00  0.00     0.109 A 
ENDBRANCH   2  15
TORSDOF 3
ENDMDL
