MODEL 1
REMARK VINA RESULT:      -4.2      0.000      0.000
REMARK  3 active torsions:
REMARK  status: ('A' for Active; 'I' for Inactive)
REMARK    1  A    between atoms: S_8  and  C_2 
REMARK       I    between atoms: N_6  and  C_7 
REMARK    2  A    between atoms: C_7  and  C_9 
REMARK    3  A    between atoms: C_9  and  S_8 
ROOT
ATOM      1  N   UNL d   1      57.188  -0.436  31.489  0.00  0.00    -0.267 N 
ATOM      2  C   UNL d   1      56.619  -0.741  32.009  0.00  0.00     0.272 C 
ATOM      3  O   UNL d   1      56.387  -1.536  31.946  0.00  0.00    -0.266 OA
ATOM      4  O   UNL d   1      58.318   0.175  30.459  0.00  0.00    -0.300 OA
ATOM      5  C   UNL d   1      57.521  -0.918  30.913  0.00  0.00     0.110 A 
ATOM      6  C   UNL d   1      57.419   0.352  31.551  0.00  0.00     0.110 A 
ATOM      7  C   UNL d   1      57.982   0.657  31.038  0.00  0.00     0.142 A 
ATOM      8  C   UNL d   1      58.087  -0.612  30.396  0.00  0.00     0.142 A 
ENDROOT
BRANCH   2   9
ATOM      9  C   UNL d   1      56.284  -0.258  32.588  0.00  0.00     0.099 C 
BRANCH   9  10
ATOM     10  S   UNL d   1      55.658  -0.537  33.043  0.00  0.00    -0.041 SA
BRANCH  10  11
ATOM     11  C   UNL d   1      55.417  -0.122  33.709  0.00  0.00     0.233 A 
ATOM     12  N   UNL d   1      55.754  -0.035  34.462  0.00  0.00    -0.029 NA
ATOM     13  C   UNL d   1      55.257   0.451  34.903  0.00  0.00     0.788 A 
ATOM     14  N   UNL d   1      54.622   0.667  34.443  0.00  0.00     0.050 NA
ATOM     15  N   UNL d   1      55.393   0.682  35.699  0.00  0.00     0.064 N 
ATOM     16  N   UNL d   1      54.713   0.314  33.697  0.00  0.00    -0.105 NA
ENDBRANCH  10  11
ENDBRANCH   9  10
ENDBRANCH   2   9
TORSDOF 3
ENDMDL
MODEL 2
REMARK VINA RESULT:      -3.8      1.932      4.499
REMARK  3 active torsions:
REMARK  status: ('A' for Active; 'I' for Inactive)
REMARK    1  A    between atoms: S_8  and  C_2 
REMARK       I    between atoms: N_6  and  C_7 
REMARK    2  A    between atoms: C_7  and  C_9 
REMARK    3  A    between atoms: C_9  and  S_8 
ROOT
ATOM      1  N   UNL d   1      56.790  -0.274  32.487  0.00  0.00    -0.267 N 
ATOM      2  C   UNL d   1      57.382   0.077  32.025  0.00  0.00     0.272 C 
ATOM      3  O   UNL d   1      57.853   0.682  32.345  0.00  0.00    -0.266 OA
ATOM      4  O   UNL d   1      55.614  -0.973  33.403  0.00  0.00    -0.300 OA
ATOM      5  C   UNL d   1      56.670  -0.023  33.261  0.00  0.00     0.110 A 
ATOM      6  C   UNL d   1      56.324  -0.873  32.170  0.00  0.00     0.110 A 
ATOM      7  C   UNL d   1      55.737  -1.222  32.626  0.00  0.00     0.142 A 
ATOM      8  C   UNL d   1      56.080  -0.373  33.720  0.00  0.00     0.142 A 
ENDROOT
BRANCH   2   9
ATOM      9  C   UNL d   1      57.504  -0.173  31.248  0.00  0.00     0.099 C 
BRANCH   9  10
ATOM     10  S   UNL d   1      57.987   0.266  30.746  0.00  0.00    -0.041 SA
BRANCH  10  11
ATOM     11  C   UNL d   1      58.192  -0.032  30.009  0.00  0.00     0.233 A 
ATOM     12  N   UNL d   1      58.654  -0.682  29.780  0.00  0.00    -0.029 NA
ATOM     13  C   UNL d   1      58.662  -0.705  28.958  0.00  0.00     0.788 A 
ATOM     14  N   UNL d   1      58.218  -0.087  28.672  0.00  0.00     0.050 NA
ATOM     15  N   UNL d   1      59.067  -1.279  28.497  0.00  0.00     0.064 N 
ATOM     16  N   UNL d   1      57.922   0.338  29.319  0.00  0.00    -0.105 NA
ENDBRANCH  10  11
ENDBRANCH   9  10
ENDBRANCH   2   9
TORSDOF 3
ENDMDL
MODEL 3
REMARK VINA RESULT:      -2.8      3.385      4.813
REMARK  3 active torsions:
REMARK  status: ('A' for Active; 'I' for Inactive)
REMARK    1  A    between atoms: S_8  and  C_2 
REMARK       I    between atoms: N_6  and  C_7 
REMARK    2  A    between atoms: C_7  and  C_9 
REMARK    3  A    between atoms: C_9  and  S_8 
ROOT
ATOM      1  N   UNL d   1      59.744  -2.453  28.806  0.00  0.00    -0.267 N 
ATOM      2  C   UNL d   1      59.787  -1.644  28.981  0.00  0.00     0.272 C 
ATOM      3  O   UNL d   1      60.523  -1.260  28.978  0.00  0.00    -0.266 OA
ATOM      4  O   UNL d   1      59.653  -4.060  28.458  0.00  0.00    -0.300 OA
ATOM      5  C   UNL d   1      60.427  -2.874  28.629  0.00  0.00     0.110 A 
ATOM      6  C   UNL d   1      59.014  -2.834  28.808  0.00  0.00     0.110 A 
ATOM      7  C   UNL d   1      58.968  -3.635  28.635  0.00  0.00     0.142 A 
ATOM      8  C   UNL d   1      60.383  -3.679  28.455  0.00  0.00     0.142 A 
ENDROOT
BRANCH   2   9
ATOM      9  C   UNL d   1      59.101  -1.220  29.158  0.00  0.00     0.099 C 
BRANCH   9  10
ATOM     10  S   UNL d   1      59.151  -0.423  29.356  0.00  0.00    -0.041 SA
BRANCH  10  11
ATOM     11  C   UNL d   1      58.513  -0.048  29.712  0.00  0.00     0.233 A 
ATOM     12  N   UNL d   1      58.287   0.033  30.506  0.00  0.00    -0.029 NA
ATOM     13  C   UNL d   1      57.591   0.472  30.523  0.00  0.00     0.788 A 
ATOM     14  N   UNL d   1      57.381   0.665  29.762  0.00  0.00     0.050 NA
ATOM     15  N   UNL d   1      57.173   0.682  31.221  0.00  0.00     0.064 N 
ATOM     16  N   UNL d   1      57.950   0.345  29.249  0.00  0.00    -0.105 NA
ENDBRANCH  10  11
ENDBRANCH   9  10
ENDBRANCH   2   9
TORSDOF 3
ENDMDL
