MODEL 1
REMARK VINA RESULT:      87.3      0.000      0.000
REMARK  5 active torsions:
REMARK  status: ('A' for Active; 'I' for Inactive)
REMARK    1  A    between atoms: N_2  and  S_1 
REMARK    2  A    between atoms: C_6  and  S_1 
REMARK       I    between atoms: C_3  and  N_4 
REMARK    3  A    between atoms: C_5  and  C_3 
REMARK    4  A    between atoms: O_22  and  C_12 
REMARK    5  A    between atoms: O_26  and  C_16 
ROOT
ATOM      1  N   UNL d   1      58.203  49.231  50.018  0.00  0.00    -0.226 N 
ATOM      2  C   UNL d   1      60.365  48.521  51.003  0.00  0.00     0.265 C 
ATOM      3  N   UNL d   1      59.646  48.759  50.676  0.00  0.00    -0.269 N 
ATOM      4  C   UNL d   1      58.601  49.703  50.555  0.00  0.00     0.111 A 
ATOM      5  C   UNL d   1      58.539  48.502  49.806  0.00  0.00     0.111 A 
ATOM      6  C   UNL d   1      59.256  48.282  50.142  0.00  0.00     0.103 A 
ATOM      7  C   UNL d   1      59.309  49.488  50.889  0.00  0.00     0.103 A 
ATOM      8  O   UNL d   1      60.743  49.014  51.539  0.00  0.00    -0.267 OA
ENDROOT
BRANCH   2   9
ATOM      9  C   UNL d   1      60.692  47.812  50.797  0.00  0.00     0.059 A 
ATOM     10  C   UNL d   1      61.388  47.787  50.358  0.00  0.00     0.031 A 
ATOM     11  C   UNL d   1      61.713  47.083  50.153  0.00  0.00     0.116 A 
ATOM     12  C   UNL d   1      61.353  46.377  50.380  0.00  0.00     0.116 A 
ATOM     13  C   UNL d   1      60.656  46.402  50.819  0.00  0.00     0.026 A 
ATOM     14  C   UNL d   1      60.331  47.106  51.024  0.00  0.00     0.007 A 
BRANCH  11  15
ATOM     15  O   UNL d   1      62.423  47.094  49.705  0.00  0.00    -0.326 OA
ATOM     16  C   UNL d   1      62.576  46.486  49.145  0.00  0.00     0.181 C 
ENDBRANCH  11  15
BRANCH  12  17
ATOM     17  O   UNL d   1      61.685  45.646  50.170  0.00  0.00    -0.326 OA
ATOM     18  C   UNL d   1      61.241  45.027  50.467  0.00  0.00     0.181 C 
ENDBRANCH  12  17
ENDBRANCH   2   9
BRANCH   1  19
ATOM     19  S   UNL d   1      57.487  49.467  49.693  0.00  0.00     0.271 S 
ATOM     20  O   UNL d   1      57.842  49.559  48.946  0.00  0.00    -0.200 OA
ATOM     21  O   UNL d   1      56.754  49.705  49.375  0.00  0.00    -0.200 OA
BRANCH  19  22
ATOM     22  C   UNL d   1      57.123  49.380  50.429  0.00  0.00     0.104 A 
ATOM     23  C   UNL d   1      57.457  49.708  51.113  0.00  0.00     0.014 A 
ATOM     24  C   UNL d   1      57.110  49.630  51.847  0.00  0.00     0.012 A 
ATOM     25  C   UNL d   1      56.399  49.211  51.914  0.00  0.00     0.058 A 
ATOM     26  C   UNL d   1      56.049  48.876  51.246  0.00  0.00     0.012 A 
ATOM     27 CL   UNL d   1      56.036  49.124  52.650  0.00  0.00    -0.082 Cl
ATOM     28  C   UNL d   1      56.412  48.961  50.496  0.00  0.00     0.014 A 
ENDBRANCH  19  22
ENDBRANCH   1  19
TORSDOF 5
ENDMDL
MODEL 2
REMARK VINA RESULT:      89.4      1.739      4.667
REMARK  5 active torsions:
REMARK  status: ('A' for Active; 'I' for Inactive)
REMARK    1  A    between atoms: N_2  and  S_1 
REMARK    2  A    between atoms: C_6  and  S_1 
REMARK       I    between atoms: C_3  and  N_4 
REMARK    3  A    between atoms: C_5  and  C_3 
REMARK    4  A    between atoms: O_22  and  C_12 
REMARK    5  A    between atoms: O_26  and  C_16 
ROOT
ATOM      1  N   UNL d   1      61.165  47.701  50.267  0.00  0.00    -0.226 N 
ATOM      2  C   UNL d   1      59.449  49.280  51.109  0.00  0.00     0.265 C 
ATOM      3  N   UNL d   1      60.020  48.755  50.830  0.00  0.00    -0.269 N 
ATOM      4  C   UNL d   1      61.287  48.140  50.946  0.00  0.00     0.111 A 
ATOM      5  C   UNL d   1      60.447  47.795  49.859  0.00  0.00     0.111 A 
ATOM      6  C   UNL d   1      59.890  48.322  50.152  0.00  0.00     0.103 A 
ATOM      7  C   UNL d   1      60.738  48.661  51.238  0.00  0.00     0.103 A 
ATOM      8  O   UNL d   1      59.597  49.707  51.793  0.00  0.00    -0.267 OA
ENDROOT
BRANCH   2   9
ATOM      9  C   UNL d   1      58.751  49.371  50.712  0.00  0.00     0.059 A 
ATOM     10  C   UNL d   1      58.034  49.221  51.090  0.00  0.00     0.031 A 
ATOM     11  C   UNL d   1      57.342  49.312  50.696  0.00  0.00     0.116 A 
ATOM     12  C   UNL d   1      57.339  49.555  49.909  0.00  0.00     0.116 A 
ATOM     13  C   UNL d   1      58.056  49.705  49.530  0.00  0.00     0.026 A 
ATOM     14  C   UNL d   1      58.749  49.614  49.924  0.00  0.00     0.007 A 
BRANCH  11  15
ATOM     15  O   UNL d   1      56.630  49.150  51.113  0.00  0.00    -0.326 OA
ATOM     16  C   UNL d   1      56.184  48.461  50.931  0.00  0.00     0.181 C 
ENDBRANCH  11  15
BRANCH  12  17
ATOM     17  O   UNL d   1      56.625  49.650  49.498  0.00  0.00    -0.326 OA
ATOM     18  C   UNL d   1      56.510  49.038  48.966  0.00  0.00     0.181 C 
ENDBRANCH  12  17
ENDBRANCH   2   9
BRANCH   1  19
ATOM     19  S   UNL d   1      61.734  47.179  49.989  0.00  0.00     0.271 S 
ATOM     20  O   UNL d   1      62.133  47.798  49.602  0.00  0.00    -0.200 OA
ATOM     21  O   UNL d   1      62.305  46.638  49.714  0.00  0.00    -0.200 OA
BRANCH  19  22
ATOM     22  C   UNL d   1      61.348  46.556  50.369  0.00  0.00     0.104 A 
ATOM     23  C   UNL d   1      61.042  45.917  49.940  0.00  0.00     0.014 A 
ATOM     24  C   UNL d   1      60.658  45.294  50.301  0.00  0.00     0.012 A 
ATOM     25  C   UNL d   1      60.570  45.297  51.124  0.00  0.00     0.058 A 
ATOM     26  C   UNL d   1      60.868  45.924  51.571  0.00  0.00     0.012 A 
ATOM     27 CL   UNL d   1      60.184  44.674  51.504  0.00  0.00    -0.082 Cl
ATOM     28  C   UNL d   1      61.261  46.559  51.192  0.00  0.00     0.014 A 
ENDBRANCH  19  22
ENDBRANCH   1  19
TORSDOF 5
ENDMDL
