MODEL 1
REMARK VINA RESULT:       8.5      0.000      0.000
REMARK  9 active torsions:
REMARK  status: ('A' for Active; 'I' for Inactive)
REMARK    1  A    between atoms: C_6  and  N_1 
REMARK    2  A    between atoms: S_11  and  C_2 
REMARK    3  A    between atoms: C_14  and  C_3 
REMARK       I    between atoms: C_7  and  N_12 
REMARK    4  A    between atoms: C_8  and  C_7 
REMARK    5  A    between atoms: C_9  and  N_10 
REMARK       I    between atoms: N_10  and  C_13 
REMARK    6  A    between atoms: C_24  and  S_11 
REMARK    7  A    between atoms: N_12  and  C_14 
REMARK    8  A    between atoms: C_13  and  C_24 
REMARK    9  A    between atoms: O_28  and  C_19 
ROOT
ATOM      1  N   UNL d   1     -41.583-122.386 -51.280  0.00  0.00    -0.266 N 
ATOM      2  C   UNL d   1     -41.299-122.933 -51.834  0.00  0.00     0.201 A 
ATOM      3  C   UNL d   1     -41.683-122.780 -50.555  0.00  0.00     0.190 A 
ATOM      4  N   UNL d   1     -41.222-123.672 -51.451  0.00  0.00    -0.121 NA
ATOM      5  N   UNL d   1     -41.459-123.578 -50.663  0.00  0.00    -0.126 NA
ENDROOT
BRANCH   2   6
ATOM      6  S   UNL d   1     -41.124-122.781 -52.617  0.00  0.00    -0.043 SA
BRANCH   6   7
ATOM      7  C   UNL d   1     -41.205-123.371 -53.191  0.00  0.00     0.101 C 
BRANCH   7   8
ATOM      8  C   UNL d   1     -41.519-123.198 -53.924  0.00  0.00     0.286 C 
ATOM      9  N   UNL d   1     -41.591-122.417 -54.170  0.00  0.00    -0.208 NA
ATOM     10  O   UNL d   1     -41.768-123.811 -54.425  0.00  0.00    -0.265 OA
BRANCH   9  11
ATOM     11  C   UNL d   1     -41.909-122.242 -54.912  0.00  0.00     0.085 A 
ATOM     12  C   UNL d   1     -42.648-122.518 -55.124  0.00  0.00     0.018 A 
ATOM     13  C   UNL d   1     -42.966-122.344 -55.866  0.00  0.00     0.002 A 
ATOM     14  C   UNL d   1     -43.085-122.975 -54.596  0.00  0.00     0.002 C 
ATOM     15  C   UNL d   1     -42.527-121.885 -56.395  0.00  0.00     0.000 A 
ATOM     16  C   UNL d   1     -41.770-121.600 -56.183  0.00  0.00     0.002 A 
ATOM     17  C   UNL d   1     -41.470-121.786 -55.437  0.00  0.00     0.019 A 
ATOM     18  C   UNL d   1     -41.344-121.153 -56.702  0.00  0.00     0.000 C 
ENDBRANCH   9  11
ENDBRANCH   7   8
ENDBRANCH   6   7
ENDBRANCH   2   6
BRANCH   1  19
ATOM     19  C   UNL d   1     -41.737-121.598 -51.420  0.00  0.00     0.090 A 
ATOM     20  C   UNL d   1     -42.513-121.359 -51.571  0.00  0.00     0.110 A 
ATOM     21  C   UNL d   1     -42.672-120.564 -51.714  0.00  0.00     0.026 A 
ATOM     22  C   UNL d   1     -42.057-120.008 -51.705  0.00  0.00     0.002 A 
ATOM     23  C   UNL d   1     -41.279-120.262 -51.552  0.00  0.00     0.002 A 
ATOM     24  C   UNL d   1     -41.123-121.058 -51.410  0.00  0.00     0.020 A 
BRANCH  20  25
ATOM     25  O   UNL d   1     -43.126-121.903 -51.581  0.00  0.00    -0.327 OA
ATOM     26  C   UNL d   1     -43.888-121.672 -51.779  0.00  0.00     0.181 C 
ENDBRANCH  20  25
ENDBRANCH   1  19
BRANCH   3  27
ATOM     27  C   UNL d   1     -41.956-122.445 -49.851  0.00  0.00     0.141 C 
BRANCH  27  28
ATOM     28  N   UNL d   1     -41.838-122.839 -49.135  0.00  0.00    -0.202 NA
ATOM     29  C   UNL d   1     -42.436-122.828 -48.561  0.00  0.00     0.302 C 
ATOM     30  O   UNL d   1     -43.143-122.425 -48.713  0.00  0.00    -0.263 OA
BRANCH  29  31
ATOM     31  C   UNL d   1     -42.332-123.219 -47.838  0.00  0.00     0.158 A 
ATOM     32  O   UNL d   1     -42.936-123.436 -47.329  0.00  0.00    -0.300 OA
ATOM     33  C   UNL d   1     -42.597-123.810 -46.676  0.00  0.00     0.123 A 
ATOM     34  C   UNL d   1     -41.775-123.817 -46.796  0.00  0.00     0.029 A 
ATOM     35  C   UNL d   1     -41.615-123.451 -47.516  0.00  0.00     0.032 A 
ENDBRANCH  29  31
ENDBRANCH  27  28
ENDBRANCH   3  27
TORSDOF 9
ENDMDL
MODEL 2
REMARK VINA RESULT:       9.6      1.151      5.804
REMARK  9 active torsions:
REMARK  status: ('A' for Active; 'I' for Inactive)
REMARK    1  A    between atoms: C_6  and  N_1 
REMARK    2  A    between atoms: S_11  and  C_2 
REMARK    3  A    between atoms: C_14  and  C_3 
REMARK       I    between atoms: C_7  and  N_12 
REMARK    4  A    between atoms: C_8  and  C_7 
REMARK    5  A    between atoms: C_9  and  N_10 
REMARK       I    between atoms: N_10  and  C_13 
REMARK    6  A    between atoms: C_24  and  S_11 
REMARK    7  A    between atoms: N_12  and  C_14 
REMARK    8  A    between atoms: C_13  and  C_24 
REMARK    9  A    between atoms: O_28  and  C_19 
ROOT
ATOM      1  N   UNL d   1     -41.882-122.404 -52.403  0.00  0.00    -0.266 N 
ATOM      2  C   UNL d   1     -41.600-123.116 -52.086  0.00  0.00     0.201 A 
ATOM      3  C   UNL d   1     -42.127-122.549 -53.185  0.00  0.00     0.190 A 
ATOM      4  N   UNL d   1     -41.671-123.707 -52.672  0.00  0.00    -0.121 NA
ATOM      5  N   UNL d   1     -41.995-123.357 -53.350  0.00  0.00    -0.126 NA
ENDROOT
BRANCH   2   6
ATOM      6  S   UNL d   1     -41.306-123.225 -51.332  0.00  0.00    -0.043 SA
BRANCH   6   7
ATOM      7  C   UNL d   1     -41.695-123.718 -50.792  0.00  0.00     0.101 C 
BRANCH   7   8
ATOM      8  C   UNL d   1     -41.762-123.505 -50.007  0.00  0.00     0.286 C 
ATOM      9  N   UNL d   1     -42.365-123.817 -49.543  0.00  0.00    -0.208 NA
ATOM     10  O   UNL d   1     -41.220-122.972 -49.674  0.00  0.00    -0.265 OA
BRANCH   9  11
ATOM     11  C   UNL d   1     -42.432-123.601 -48.749  0.00  0.00     0.085 A 
ATOM     12  C   UNL d   1     -43.166-123.493 -48.407  0.00  0.00     0.018 A 
ATOM     13  C   UNL d   1     -43.233-123.277 -47.613  0.00  0.00     0.002 A 
ATOM     14  C   UNL d   1     -43.849-123.599 -48.854  0.00  0.00     0.002 C 
ATOM     15  C   UNL d   1     -42.546-123.171 -47.164  0.00  0.00     0.000 A 
ATOM     16  C   UNL d   1     -41.792-123.280 -47.510  0.00  0.00     0.002 A 
ATOM     17  C   UNL d   1     -41.747-123.496 -48.305  0.00  0.00     0.019 A 
ATOM     18  C   UNL d   1     -41.124-123.175 -47.069  0.00  0.00     0.000 C 
ENDBRANCH   9  11
ENDBRANCH   7   8
ENDBRANCH   6   7
ENDBRANCH   2   6
BRANCH   1  19
ATOM     19  C   UNL d   1     -41.913-121.687 -52.018  0.00  0.00     0.090 A 
ATOM     20  C   UNL d   1     -42.631-121.431 -51.698  0.00  0.00     0.110 A 
ATOM     21  C   UNL d   1     -42.666-120.707 -51.309  0.00  0.00     0.026 A 
ATOM     22  C   UNL d   1     -41.985-120.238 -51.238  0.00  0.00     0.002 A 
ATOM     23  C   UNL d   1     -41.269-120.508 -51.564  0.00  0.00     0.002 A 
ATOM     24  C   UNL d   1     -41.237-121.233 -51.953  0.00  0.00     0.020 A 
BRANCH  20  25
ATOM     25  O   UNL d   1     -43.307-121.889 -51.765  0.00  0.00    -0.327 OA
ATOM     26  C   UNL d   1     -43.999-121.673 -51.379  0.00  0.00     0.181 C 
ENDBRANCH  20  25
ENDBRANCH   1  19
BRANCH   3  27
ATOM     27  C   UNL d   1     -42.444-121.993 -53.707  0.00  0.00     0.141 C 
BRANCH  27  28
ATOM     28  N   UNL d   1     -42.162-121.948 -54.482  0.00  0.00    -0.202 NA
ATOM     29  C   UNL d   1     -42.686-121.762 -55.096  0.00  0.00     0.302 C 
ATOM     30  O   UNL d   1     -43.485-121.624 -54.926  0.00  0.00    -0.263 OA
BRANCH  29  31
ATOM     31  C   UNL d   1     -42.416-121.713 -55.877  0.00  0.00     0.158 A 
ATOM     32  O   UNL d   1     -42.865-121.885 -56.542  0.00  0.00    -0.300 OA
ATOM     33  C   UNL d   1     -42.391-121.766 -57.207  0.00  0.00     0.123 A 
ATOM     34  C   UNL d   1     -41.645-121.519 -56.937  0.00  0.00     0.029 A 
ATOM     35  C   UNL d   1     -41.665-121.487 -56.114  0.00  0.00     0.032 A 
ENDBRANCH  29  31
ENDBRANCH  27  28
ENDBRANCH   3  27
TORSDOF 9
ENDMDL
