MODEL 1
REMARK VINA RESULT:       0.9      0.000      0.000
REMARK  2 active torsions:
REMARK  status: ('A' for Active; 'I' for Inactive)
REMARK    1  A    between atoms: CA_2  and  C_1 
REMARK    2  A    between atoms: C_3  and  CA_2 
ROOT
ATOM      1  C   UNL d   1      46.431 -19.182  43.336  0.00  0.00     0.025 A 
ATOM      2  C   UNL d   1      46.481 -18.505  42.872  0.00  0.00     0.002 A 
ATOM      3  C   UNL d   1      46.452 -19.932  42.982  0.00  0.00     0.002 A 
ATOM      4  C   UNL d   1      46.552 -18.572  42.054  0.00  0.00     0.000 A 
ATOM      5  C   UNL d   1      46.523 -19.999  42.165  0.00  0.00     0.000 A 
ATOM      6  C   UNL d   1      46.573 -19.322  41.699  0.00  0.00     0.000 A 
ATOM      7  C   UNL d   1      46.644 -19.388  40.879  0.00  0.00     0.000 C 
ENDROOT
BRANCH   1   8
ATOM      8  CA  UNL d   1      46.359 -19.108  44.157  0.00  0.00     0.167 C 
ATOM      9  N   UNL d   1      46.553 -18.388  44.524  0.00  0.00    -0.142 N 
BRANCH   8  10
ATOM     10  C   UNL d   1      46.097 -19.743  44.614  0.00  0.00     0.231 C 
ATOM     11  O   UNL d   1      46.645 -20.273  44.937  0.00  0.00    -0.643 OA
ATOM     12  OXT UNL d   1      45.293 -19.850  44.750  0.00  0.00    -0.643 OA
ENDBRANCH   8  10
ENDBRANCH   1   8
TORSDOF 2
ENDMDL
MODEL 2
REMARK VINA RESULT:       2.1      7.653      8.077
REMARK  2 active torsions:
REMARK  status: ('A' for Active; 'I' for Inactive)
REMARK    1  A    between atoms: CA_2  and  C_1 
REMARK    2  A    between atoms: C_3  and  CA_2 
ROOT
ATOM      1  C   UNL d   1      44.796 -15.483  36.922  0.00  0.00     0.025 A 
ATOM      2  C   UNL d   1      44.546 -16.128  36.477  0.00  0.00     0.002 A 
ATOM      3  C   UNL d   1      44.239 -14.946  37.224  0.00  0.00     0.002 A 
ATOM      4  C   UNL d   1      43.744 -16.241  36.330  0.00  0.00     0.000 A 
ATOM      5  C   UNL d   1      43.437 -15.058  37.078  0.00  0.00     0.000 A 
ATOM      6  C   UNL d   1      43.187 -15.704  36.632  0.00  0.00     0.000 A 
ATOM      7  C   UNL d   1      42.383 -15.818  36.484  0.00  0.00     0.000 C 
ENDROOT
BRANCH   1   8
ATOM      8  CA  UNL d   1      45.603 -15.375  37.066  0.00  0.00     0.167 C 
ATOM      9  N   UNL d   1      46.036 -15.969  37.453  0.00  0.00    -0.142 N 
BRANCH   8  10
ATOM     10  C   UNL d   1      45.982 -14.682  36.826  0.00  0.00     0.231 C 
ATOM     11  O   UNL d   1      46.644 -14.724  36.332  0.00  0.00    -0.643 OA
ATOM     12  OXT UNL d   1      45.703 -13.950  37.079  0.00  0.00    -0.643 OA
ENDBRANCH   8  10
ENDBRANCH   1   8
TORSDOF 2
ENDMDL
MODEL 3
REMARK VINA RESULT:       3.2      7.727      8.024
REMARK  2 active torsions:
REMARK  status: ('A' for Active; 'I' for Inactive)
REMARK    1  A    between atoms: CA_2  and  C_1 
REMARK    2  A    between atoms: C_3  and  CA_2 
ROOT
ATOM      1  C   UNL d   1      45.123 -15.287  36.846  0.00  0.00     0.025 A 
ATOM      2  C   UNL d   1      44.646 -14.858  37.361  0.00  0.00     0.002 A 
ATOM      3  C   UNL d   1      44.791 -15.874  36.363  0.00  0.00     0.002 A 
ATOM      4  C   UNL d   1      43.838 -15.013  37.396  0.00  0.00     0.000 A 
ATOM      5  C   UNL d   1      43.984 -16.028  36.397  0.00  0.00     0.000 A 
ATOM      6  C   UNL d   1      43.505 -15.600  36.913  0.00  0.00     0.000 A 
ATOM      7  C   UNL d   1      42.695 -15.753  36.949  0.00  0.00     0.000 C 
ENDROOT
BRANCH   1   8
ATOM      8  CA  UNL d   1      45.935 -15.127  36.816  0.00  0.00     0.167 C 
ATOM      9  N   UNL d   1      46.455 -15.694  36.504  0.00  0.00    -0.142 N 
BRANCH   8  10
ATOM     10  C   UNL d   1      46.230 -14.408  37.093  0.00  0.00     0.231 C 
ATOM     11  O   UNL d   1      46.613 -14.374  37.826  0.00  0.00    -0.643 OA
ATOM     12  OXT UNL d   1      46.146 -13.725  36.642  0.00  0.00    -0.643 OA
ENDBRANCH   8  10
ENDBRANCH   1   8
TORSDOF 2
ENDMDL
MODEL 4
REMARK VINA RESULT:       3.8      1.981      2.894
REMARK  2 active torsions:
REMARK  status: ('A' for Active; 'I' for Inactive)
REMARK    1  A    between atoms: CA_2  and  C_1 
REMARK    2  A    between atoms: C_3  and  CA_2 
ROOT
ATOM      1  C   UNL d   1      46.461 -19.358  42.546  0.00  0.00     0.025 A 
ATOM      2  C   UNL d   1      46.458 -20.145  42.786  0.00  0.00     0.002 A 
ATOM      3  C   UNL d   1      46.511 -18.752  43.110  0.00  0.00     0.002 A 
ATOM      4  C   UNL d   1      46.503 -20.330  43.588  0.00  0.00     0.000 A 
ATOM      5  C   UNL d   1      46.557 -18.936  43.911  0.00  0.00     0.000 A 
ATOM      6  C   UNL d   1      46.553 -19.723  44.152  0.00  0.00     0.000 A 
ATOM      7  C   UNL d   1      46.599 -19.910  44.955  0.00  0.00     0.000 C 
ENDROOT
BRANCH   1   8
ATOM      8  CA  UNL d   1      46.415 -19.179  41.739  0.00  0.00     0.167 C 
ATOM      9  N   UNL d   1      46.647 -19.745  41.178  0.00  0.00    -0.142 N 
BRANCH   8  10
ATOM     10  C   UNL d   1      46.140 -18.443  41.489  0.00  0.00     0.231 C 
ATOM     11  O   UNL d   1      46.626 -17.954  41.031  0.00  0.00    -0.643 OA
ATOM     12  OXT UNL d   1      45.383 -18.193  41.694  0.00  0.00    -0.643 OA
ENDBRANCH   8  10
ENDBRANCH   1   8
TORSDOF 2
ENDMDL
