MODEL 1
REMARK VINA RESULT:     -11.4      0.000      0.000
REMARK  3 active torsions:
REMARK  status: ('A' for Active; 'I' for Inactive)
REMARK    1  A    between atoms: N_7  and  C_1 
REMARK    2  A    between atoms: C_11  and  N_3 
REMARK       I    between atoms: C_9  and  N_7 
REMARK    3  A    between atoms: C_12  and  C_9 
ROOT
ATOM      1  C   UNL d   1      53.368  32.519  53.807  0.00  0.00     0.165 A 
ATOM      2  C   UNL d   1      53.183  31.835  53.485  0.00  0.00     0.067 A 
ATOM      3  N   UNL d   1      54.051  32.434  54.170  0.00  0.00    -0.238 N 
ATOM      4  C   UNL d   1      53.757  31.324  53.651  0.00  0.00     0.116 A 
ATOM      5  N   UNL d   1      54.289  31.697  54.074  0.00  0.00    -0.168 NA
ATOM      6  S   UNL d   1      52.881  30.730  52.964  0.00  0.00     0.213 S 
ATOM      7  C   UNL d   1      53.567  30.645  53.329  0.00  0.00     0.120 A 
ATOM      8  C   UNL d   1      52.646  31.466  53.062  0.00  0.00     0.103 A 
ATOM      9  O   UNL d   1      53.183  30.018  52.912  0.00  0.00    -0.217 OA
ATOM     10  O   UNL d   1      52.290  30.854  52.666  0.00  0.00    -0.217 OA
ENDROOT
BRANCH   1  11
ATOM     11  N   UNL d   1      52.783  32.838  53.573  0.00  0.00    -0.189 NA
ATOM     12  C   UNL d   1      52.523  33.776  53.314  0.00  0.00     0.281 C 
ATOM     13  O   UNL d   1      53.023  34.352  53.347  0.00  0.00    -0.265 OA
BRANCH  12  14
ATOM     14  C   UNL d   1      51.756  33.925  53.061  0.00  0.00     0.058 A 
ATOM     15  C   UNL d   1      51.625  34.251  52.293  0.00  0.00     0.005 A 
ATOM     16  C   UNL d   1      52.262  34.422  51.797  0.00  0.00     0.000 C 
ATOM     17  C   UNL d   1      50.845  34.401  52.039  0.00  0.00     0.000 A 
ATOM     18  C   UNL d   1      50.200  34.227  52.547  0.00  0.00     0.000 A 
ATOM     19  C   UNL d   1      50.343  33.906  53.298  0.00  0.00     0.000 A 
ATOM     20  C   UNL d   1      51.121  33.754  53.557  0.00  0.00     0.005 A 
ENDBRANCH  12  14
ENDBRANCH   1  11
BRANCH   3  21
ATOM     21  C   UNL d   1      54.458  33.027  54.590  0.00  0.00     0.088 C 
ATOM     22  C   UNL d   1      54.306  33.289  55.368  0.00  0.00     0.025 C 
ATOM     23  C   UNL d   1      55.071  33.365  54.146  0.00  0.00     0.025 C 
ATOM     24  C   UNL d   1      54.789  33.593  55.092  0.00  0.00     0.025 C 
ENDBRANCH   3  21
TORSDOF 3
ENDMDL
MODEL 2
REMARK VINA RESULT:     -10.5      1.227      2.376
REMARK  3 active torsions:
REMARK  status: ('A' for Active; 'I' for Inactive)
REMARK    1  A    between atoms: N_7  and  C_1 
REMARK    2  A    between atoms: C_11  and  N_3 
REMARK       I    between atoms: C_9  and  N_7 
REMARK    3  A    between atoms: C_12  and  C_9 
ROOT
ATOM      1  C   UNL d   1      53.261  32.470  53.953  0.00  0.00     0.165 A 
ATOM      2  C   UNL d   1      53.579  33.057  54.352  0.00  0.00     0.067 A 
ATOM      3  N   UNL d   1      53.737  31.857  54.013  0.00  0.00    -0.238 N 
ATOM      4  C   UNL d   1      54.256  32.805  54.661  0.00  0.00     0.116 A 
ATOM      5  N   UNL d   1      54.349  32.065  54.450  0.00  0.00    -0.168 NA
ATOM      6  S   UNL d   1      54.089  34.010  54.996  0.00  0.00     0.213 S 
ATOM      7  C   UNL d   1      54.567  33.395  55.057  0.00  0.00     0.120 A 
ATOM      8  C   UNL d   1      53.479  33.800  54.560  0.00  0.00     0.103 A 
ATOM      9  O   UNL d   1      54.725  34.141  55.419  0.00  0.00    -0.217 OA
ATOM     10  O   UNL d   1      53.646  34.510  54.914  0.00  0.00    -0.217 OA
ENDROOT
BRANCH   1  11
ATOM     11  N   UNL d   1      52.698  32.848  53.756  0.00  0.00    -0.189 NA
ATOM     12  C   UNL d   1      52.146  32.944  52.920  0.00  0.00     0.281 C 
ATOM     13  O   UNL d   1      52.304  32.544  52.289  0.00  0.00    -0.265 OA
BRANCH  12  14
ATOM     14  C   UNL d   1      51.509  33.464  52.916  0.00  0.00     0.058 A 
ATOM     15  C   UNL d   1      51.487  34.093  52.354  0.00  0.00     0.005 A 
ATOM     16  C   UNL d   1      52.101  34.189  51.809  0.00  0.00     0.000 C 
ATOM     17  C   UNL d   1      50.840  34.620  52.352  0.00  0.00     0.000 A 
ATOM     18  C   UNL d   1      50.220  34.518  52.908  0.00  0.00     0.000 A 
ATOM     19  C   UNL d   1      50.254  33.896  53.454  0.00  0.00     0.000 A 
ATOM     20  C   UNL d   1      50.899  33.367  53.460  0.00  0.00     0.005 A 
ENDBRANCH  12  14
ENDBRANCH   1  11
BRANCH   3  21
ATOM     21  C   UNL d   1      53.614  31.107  53.671  0.00  0.00     0.088 C 
ATOM     22  C   UNL d   1      53.123  30.497  53.957  0.00  0.00     0.025 C 
ATOM     23  C   UNL d   1      54.048  31.003  52.972  0.00  0.00     0.025 C 
ATOM     24  C   UNL d   1      53.422  30.345  53.420  0.00  0.00     0.025 C 
ENDBRANCH   3  21
TORSDOF 3
ENDMDL
MODEL 3
REMARK VINA RESULT:     -10.4      1.420      3.675
REMARK  3 active torsions:
REMARK  status: ('A' for Active; 'I' for Inactive)
REMARK    1  A    between atoms: N_7  and  C_1 
REMARK    2  A    between atoms: C_11  and  N_3 
REMARK       I    between atoms: C_9  and  N_7 
REMARK    3  A    between atoms: C_12  and  C_9 
ROOT
ATOM      1  C   UNL d   1      52.838  33.270  53.732  0.00  0.00     0.165 A 
ATOM      2  C   UNL d   1      53.404  33.393  54.251  0.00  0.00     0.067 A 
ATOM      3  N   UNL d   1      52.511  33.957  53.569  0.00  0.00    -0.238 N 
ATOM      4  C   UNL d   1      53.426  34.162  54.411  0.00  0.00     0.116 A 
ATOM      5  N   UNL d   1      52.874  34.506  53.988  0.00  0.00    -0.168 NA
ATOM      6  S   UNL d   1      54.320  33.588  55.091  0.00  0.00     0.213 S 
ATOM      7  C   UNL d   1      53.992  34.278  54.928  0.00  0.00     0.120 A 
ATOM      8  C   UNL d   1      53.955  33.042  54.672  0.00  0.00     0.103 A 
ATOM      9  O   UNL d   1      54.631  34.186  55.473  0.00  0.00    -0.217 OA
ATOM     10  O   UNL d   1      54.569  32.971  55.197  0.00  0.00    -0.217 OA
ENDROOT
BRANCH   1  11
ATOM     11  N   UNL d   1      52.951  32.573  53.705  0.00  0.00    -0.189 NA
ATOM     12  C   UNL d   1      52.828  31.845  53.021  0.00  0.00     0.281 C 
ATOM     13  O   UNL d   1      52.547  31.992  52.326  0.00  0.00    -0.265 OA
BRANCH  12  14
ATOM     14  C   UNL d   1      53.036  31.073  53.214  0.00  0.00     0.058 A 
ATOM     15  C   UNL d   1      52.432  30.510  53.389  0.00  0.00     0.005 A 
ATOM     16  C   UNL d   1      51.636  30.729  53.368  0.00  0.00     0.000 C 
ATOM     17  C   UNL d   1      52.645  29.727  53.585  0.00  0.00     0.000 A 
ATOM     18  C   UNL d   1      53.455  29.510  53.604  0.00  0.00     0.000 A 
ATOM     19  C   UNL d   1      54.038  30.073  53.430  0.00  0.00     0.000 A 
ATOM     20  C   UNL d   1      53.830  30.856  53.234  0.00  0.00     0.005 A 
ENDBRANCH  12  14
ENDBRANCH   1  11
BRANCH   3  21
ATOM     21  C   UNL d   1      51.881  34.086  53.039  0.00  0.00     0.088 C 
ATOM     22  C   UNL d   1      51.066  33.987  53.191  0.00  0.00     0.025 C 
ATOM     23  C   UNL d   1      52.141  34.337  52.293  0.00  0.00     0.025 C 
ATOM     24  C   UNL d   1      51.189  34.182  52.601  0.00  0.00     0.025 C 
ENDBRANCH   3  21
TORSDOF 3
ENDMDL
MODEL 4
REMARK VINA RESULT:      -9.8      1.360      3.634
REMARK  3 active torsions:
REMARK  status: ('A' for Active; 'I' for Inactive)
REMARK    1  A    between atoms: N_7  and  C_1 
REMARK    2  A    between atoms: C_11  and  N_3 
REMARK       I    between atoms: C_9  and  N_7 
REMARK    3  A    between atoms: C_12  and  C_9 
ROOT
ATOM      1  C   UNL d   1      52.707  32.344  53.318  0.00  0.00     0.165 A 
ATOM      2  C   UNL d   1      52.350  33.014  53.151  0.00  0.00     0.067 A 
ATOM      3  N   UNL d   1      52.335  31.775  52.939  0.00  0.00    -0.238 N 
ATOM      4  C   UNL d   1      51.753  32.859  52.665  0.00  0.00     0.116 A 
ATOM      5  N   UNL d   1      51.747  32.094  52.537  0.00  0.00    -0.168 NA
ATOM      6  S   UNL d   1      51.775  34.101  52.883  0.00  0.00     0.213 S 
ATOM      7  C   UNL d   1      51.401  33.531  52.502  0.00  0.00     0.120 A 
ATOM      8  C   UNL d   1      52.361  33.781  53.284  0.00  0.00     0.103 A 
ATOM      9  O   UNL d   1      51.174  34.343  52.458  0.00  0.00    -0.217 OA
ATOM     10  O   UNL d   1      52.130  34.556  53.231  0.00  0.00    -0.217 OA
ENDROOT
BRANCH   1  11
ATOM     11  N   UNL d   1      53.186  32.650  53.738  0.00  0.00    -0.189 NA
ATOM     12  C   UNL d   1      54.155  32.497  53.965  0.00  0.00     0.281 C 
ATOM     13  O   UNL d   1      54.553  31.926  53.650  0.00  0.00    -0.265 OA
BRANCH  12  14
ATOM     14  C   UNL d   1      54.526  32.997  54.501  0.00  0.00     0.058 A 
ATOM     15  C   UNL d   1      55.203  33.440  54.259  0.00  0.00     0.005 A 
ATOM     16  C   UNL d   1      55.493  33.374  53.489  0.00  0.00     0.000 C 
ATOM     17  C   UNL d   1      55.578  33.947  54.805  0.00  0.00     0.000 A 
ATOM     18  C   UNL d   1      55.279  34.011  55.586  0.00  0.00     0.000 A 
ATOM     19  C   UNL d   1      54.613  33.571  55.810  0.00  0.00     0.000 A 
ATOM     20  C   UNL d   1      54.235  33.062  55.268  0.00  0.00     0.005 A 
ENDBRANCH  12  14
ENDBRANCH   1  11
BRANCH   3  21
ATOM     21  C   UNL d   1      52.530  30.966  52.959  0.00  0.00     0.088 C 
ATOM     22  C   UNL d   1      53.072  30.566  52.466  0.00  0.00     0.025 C 
ATOM     23  C   UNL d   1      52.115  30.554  53.547  0.00  0.00     0.025 C 
ATOM     24  C   UNL d   1      52.794  30.187  52.891  0.00  0.00     0.025 C 
ENDBRANCH   3  21
TORSDOF 3
ENDMDL
MODEL 5
REMARK VINA RESULT:      -9.5      1.443      3.276
REMARK  3 active torsions:
REMARK  status: ('A' for Active; 'I' for Inactive)
REMARK    1  A    between atoms: N_7  and  C_1 
REMARK    2  A    between atoms: C_11  and  N_3 
REMARK       I    between atoms: C_9  and  N_7 
REMARK    3  A    between atoms: C_12  and  C_9 
ROOT
ATOM      1  C   UNL d   1      53.313  33.172  54.047  0.00  0.00     0.165 A 
ATOM      2  C   UNL d   1      52.680  33.444  53.688  0.00  0.00     0.067 A 
ATOM      3  N   UNL d   1      53.676  33.774  54.381  0.00  0.00    -0.238 N 
ATOM      4  C   UNL d   1      52.650  34.222  53.801  0.00  0.00     0.116 A 
ATOM      5  N   UNL d   1      53.266  34.421  54.229  0.00  0.00    -0.168 NA
ATOM      6  S   UNL d   1      51.654  33.882  53.106  0.00  0.00     0.213 S 
ATOM      7  C   UNL d   1      52.017  34.487  53.441  0.00  0.00     0.120 A 
ATOM      8  C   UNL d   1      52.064  33.238  53.260  0.00  0.00     0.103 A 
ATOM      9  O   UNL d   1      51.302  34.564  52.997  0.00  0.00    -0.217 OA
ATOM     10  O   UNL d   1      51.379  33.329  52.837  0.00  0.00    -0.217 OA
ENDROOT
BRANCH   1  11
ATOM     11  N   UNL d   1      53.190  32.503  53.856  0.00  0.00    -0.189 NA
ATOM     12  C   UNL d   1      53.749  31.682  53.690  0.00  0.00     0.281 C 
ATOM     13  O   UNL d   1      54.508  31.693  53.767  0.00  0.00    -0.265 OA
BRANCH  12  14
ATOM     14  C   UNL d   1      53.379  30.983  53.465  0.00  0.00     0.058 A 
ATOM     15  C   UNL d   1      53.276  30.365  54.031  0.00  0.00     0.005 A 
ATOM     16  C   UNL d   1      53.545  30.458  54.806  0.00  0.00     0.000 C 
ATOM     17  C   UNL d   1      52.901  29.656  53.801  0.00  0.00     0.000 A 
ATOM     18  C   UNL d   1      52.630  29.566  53.012  0.00  0.00     0.000 A 
ATOM     19  C   UNL d   1      52.738  30.182  52.466  0.00  0.00     0.000 A 
ATOM     20  C   UNL d   1      53.113  30.891  52.692  0.00  0.00     0.005 A 
ENDBRANCH  12  14
ENDBRANCH   1  11
BRANCH   3  21
ATOM     21  C   UNL d   1      54.380  33.736  54.825  0.00  0.00     0.088 C 
ATOM     22  C   UNL d   1      55.160  33.813  54.540  0.00  0.00     0.025 C 
ATOM     23  C   UNL d   1      54.239  33.608  55.632  0.00  0.00     0.025 C 
ATOM     24  C   UNL d   1      55.131  33.717  55.165  0.00  0.00     0.025 C 
ENDBRANCH   3  21
TORSDOF 3
ENDMDL
MODEL 6
REMARK VINA RESULT:      -9.4      0.778      3.237
REMARK  3 active torsions:
REMARK  status: ('A' for Active; 'I' for Inactive)
REMARK    1  A    between atoms: N_7  and  C_1 
REMARK    2  A    between atoms: C_11  and  N_3 
REMARK       I    between atoms: C_9  and  N_7 
REMARK    3  A    between atoms: C_12  and  C_9 
ROOT
ATOM      1  C   UNL d   1      52.674  32.649  53.203  0.00  0.00     0.165 A 
ATOM      2  C   UNL d   1      52.884  31.900  53.218  0.00  0.00     0.067 A 
ATOM      3  N   UNL d   1      51.983  32.695  52.847  0.00  0.00    -0.238 N 
ATOM      4  C   UNL d   1      52.318  31.480  52.869  0.00  0.00     0.116 A 
ATOM      5  N   UNL d   1      51.765  31.974  52.642  0.00  0.00    -0.168 NA
ATOM      6  S   UNL d   1      53.226  30.690  53.245  0.00  0.00     0.213 S 
ATOM      7  C   UNL d   1      52.533  30.736  52.888  0.00  0.00     0.120 A 
ATOM      8  C   UNL d   1      53.442  31.410  53.449  0.00  0.00     0.103 A 
ATOM      9  O   UNL d   1      52.943  30.007  53.011  0.00  0.00    -0.217 OA
ATOM     10  O   UNL d   1      53.822  30.703  53.559  0.00  0.00    -0.217 OA
ENDROOT
BRANCH   1  11
ATOM     11  N   UNL d   1      53.257  32.867  53.535  0.00  0.00    -0.189 NA
ATOM     12  C   UNL d   1      53.508  33.641  54.127  0.00  0.00     0.281 C 
ATOM     13  O   UNL d   1      53.000  34.179  54.317  0.00  0.00    -0.265 OA
BRANCH  12  14
ATOM     14  C   UNL d   1      54.276  33.697  54.413  0.00  0.00     0.058 A 
ATOM     15  C   UNL d   1      54.411  33.731  55.246  0.00  0.00     0.005 A 
ATOM     16  C   UNL d   1      53.776  33.709  55.774  0.00  0.00     0.000 C 
ATOM     17  C   UNL d   1      55.192  33.787  55.534  0.00  0.00     0.000 A 
ATOM     18  C   UNL d   1      55.834  33.809  54.993  0.00  0.00     0.000 A 
ATOM     19  C   UNL d   1      55.687  33.775  54.178  0.00  0.00     0.000 A 
ATOM     20  C   UNL d   1      54.908  33.719  53.886  0.00  0.00     0.005 A 
ENDBRANCH  12  14
ENDBRANCH   1  11
BRANCH   3  21
ATOM     21  C   UNL d   1      51.550  33.393  52.708  0.00  0.00     0.088 C 
ATOM     22  C   UNL d   1      51.699  33.972  52.125  0.00  0.00     0.025 C 
ATOM     23  C   UNL d   1      50.912  33.480  53.230  0.00  0.00     0.025 C 
ATOM     24  C   UNL d   1      51.196  34.105  52.487  0.00  0.00     0.025 C 
ENDBRANCH   3  21
TORSDOF 3
ENDMDL
