MODEL 1
REMARK VINA RESULT:      -1.0      0.000      0.000
REMARK  3 active torsions:
REMARK  status: ('A' for Active; 'I' for Inactive)
REMARK    1  A    between atoms: N_9  and  C_3 
REMARK    2  A    between atoms: C_12  and  C_4 
REMARK    3  A    between atoms: C_17  and  N_10 
ROOT
ATOM      1  N   UNL d   1      56.444   0.238  32.958  0.00  0.00    -0.196 N 
ATOM      2  C   UNL d   1      56.164   0.390  33.714  0.00  0.00     0.167 A 
ATOM      3  C   UNL d   1      57.256   0.232  32.808  0.00  0.00     0.152 A 
ATOM      4  C   UNL d   1      55.343   0.360  33.693  0.00  0.00     0.057 A 
ATOM      5  N   UNL d   1      55.798   0.113  32.466  0.00  0.00    -0.161 NA
ATOM      6  N   UNL d   1      56.691   0.538  34.332  0.00  0.00    -0.227 NA
ATOM      7  C   UNL d   1      57.787   0.381  33.428  0.00  0.00     0.057 A 
ATOM      8  C   UNL d   1      55.118   0.190  32.929  0.00  0.00     0.124 A 
ATOM      9  C   UNL d   1      57.507   0.532  34.183  0.00  0.00     0.086 A 
ATOM     10  C   UNL d   1      58.048   0.681  34.802  0.00  0.00     0.021 C 
ENDROOT
BRANCH   3  11
ATOM     11  N   UNL d   1      57.537   0.080  32.052  0.00  0.00    -0.286 N 
ATOM     12  C   UNL d   1      57.969   0.658  31.643  0.00  0.00     0.101 A 
ATOM     13  C   UNL d   1      58.250   0.506  30.883  0.00  0.00     0.100 A 
ATOM     14  N   UNL d   1      58.102  -0.226  30.528  0.00  0.00    -0.301 N 
ATOM     15  C   UNL d   1      57.674  -0.802  30.932  0.00  0.00     0.100 A 
ATOM     16  C   UNL d   1      57.392  -0.649  31.692  0.00  0.00     0.101 A 
BRANCH  14  17
ATOM     17  C   UNL d   1      58.387  -0.381  29.759  0.00  0.00     0.064 A 
ATOM     18  C   UNL d   1      58.374   0.213  29.192  0.00  0.00     0.018 A 
ATOM     19  C   UNL d   1      58.690  -0.103  28.487  0.00  0.00     0.002 A 
ATOM     20  C   UNL d   1      58.892  -0.883  28.631  0.00  0.00     0.002 A 
ATOM     21  C   UNL d   1      58.709  -1.061  29.412  0.00  0.00     0.018 A 
ENDBRANCH  14  17
ENDBRANCH   3  11
BRANCH   4  22
ATOM     22  C   UNL d   1      54.770   0.466  34.277  0.00  0.00     0.004 A 
ATOM     23  C   UNL d   1      53.966   0.497  34.068  0.00  0.00     0.000 A 
ATOM     24  C   UNL d   1      53.393   0.603  34.652  0.00  0.00     0.000 A 
ATOM     25  C   UNL d   1      53.615   0.678  35.443  0.00  0.00     0.000 A 
ATOM     26  C   UNL d   1      54.414   0.648  35.653  0.00  0.00     0.000 A 
ATOM     27  C   UNL d   1      54.987   0.542  35.070  0.00  0.00     0.000 A 
ENDBRANCH   4  22
TORSDOF 3
ENDMDL
MODEL 2
REMARK VINA RESULT:      -0.9      1.065      1.899
REMARK  3 active torsions:
REMARK  status: ('A' for Active; 'I' for Inactive)
REMARK    1  A    between atoms: N_9  and  C_3 
REMARK    2  A    between atoms: C_12  and  C_4 
REMARK    3  A    between atoms: C_17  and  N_10 
ROOT
ATOM      1  N   UNL d   1      56.893  -0.192  32.794  0.00  0.00    -0.196 N 
ATOM      2  C   UNL d   1      56.366  -0.302  33.412  0.00  0.00     0.167 A 
ATOM      3  C   UNL d   1      56.845  -0.662  32.117  0.00  0.00     0.152 A 
ATOM      4  C   UNL d   1      56.547   0.240  34.003  0.00  0.00     0.057 A 
ATOM      5  N   UNL d   1      57.404   0.418  32.999  0.00  0.00    -0.161 NA
ATOM      6  N   UNL d   1      55.782  -0.884  33.364  0.00  0.00    -0.227 NA
ATOM      7  C   UNL d   1      56.259  -1.247  32.066  0.00  0.00     0.057 A 
ATOM      8  C   UNL d   1      57.184   0.682  33.750  0.00  0.00     0.124 A 
ATOM      9  C   UNL d   1      55.732  -1.357  32.685  0.00  0.00     0.086 A 
ATOM     10  C   UNL d   1      55.145  -1.948  32.626  0.00  0.00     0.021 C 
ENDROOT
BRANCH   3  11
ATOM     11  N   UNL d   1      57.373  -0.552  31.498  0.00  0.00    -0.286 N 
ATOM     12  C   UNL d   1      57.687  -1.207  31.096  0.00  0.00     0.101 A 
ATOM     13  C   UNL d   1      58.217  -1.096  30.474  0.00  0.00     0.100 A 
ATOM     14  N   UNL d   1      58.437  -0.331  30.250  0.00  0.00    -0.301 N 
ATOM     15  C   UNL d   1      58.127   0.320  30.648  0.00  0.00     0.100 A 
ATOM     16  C   UNL d   1      57.596   0.210  31.270  0.00  0.00     0.101 A 
BRANCH  14  17
ATOM     17  C   UNL d   1      58.973  -0.219  29.621  0.00  0.00     0.064 A 
ATOM     18  C   UNL d   1      59.778  -0.181  29.774  0.00  0.00     0.018 A 
ATOM     19  C   UNL d   1      60.170  -0.067  29.046  0.00  0.00     0.002 A 
ATOM     20  C   UNL d   1      59.600  -0.038  28.458  0.00  0.00     0.002 A 
ATOM     21  C   UNL d   1      58.861  -0.131  28.805  0.00  0.00     0.018 A 
ENDBRANCH  14  17
ENDBRANCH   3  11
BRANCH   4  22
ATOM     22  C   UNL d   1      56.212   0.387  34.742  0.00  0.00     0.004 A 
ATOM     23  C   UNL d   1      56.693   0.399  35.420  0.00  0.00     0.000 A 
ATOM     24  C   UNL d   1      56.357   0.546  36.160  0.00  0.00     0.000 A 
ATOM     25  C   UNL d   1      55.546   0.682  36.228  0.00  0.00     0.000 A 
ATOM     26  C   UNL d   1      55.066   0.670  35.554  0.00  0.00     0.000 A 
ATOM     27  C   UNL d   1      55.402   0.523  34.815  0.00  0.00     0.000 A 
ENDBRANCH   4  22
TORSDOF 3
ENDMDL
MODEL 3
REMARK VINA RESULT:       1.0      1.372      5.575
REMARK  3 active torsions:
REMARK  status: ('A' for Active; 'I' for Inactive)
REMARK    1  A    between atoms: N_9  and  C_3 
REMARK    2  A    between atoms: C_12  and  C_4 
REMARK    3  A    between atoms: C_17  and  N_10 
ROOT
ATOM      1  N   UNL d   1      57.970  -1.163  30.763  0.00  0.00    -0.196 N 
ATOM      2  C   UNL d   1      58.571  -1.312  30.226  0.00  0.00     0.167 A 
ATOM      3  C   UNL d   1      57.867  -0.404  31.073  0.00  0.00     0.152 A 
ATOM      4  C   UNL d   1      58.538  -2.107  30.019  0.00  0.00     0.057 A 
ATOM      5  N   UNL d   1      57.562  -1.864  30.892  0.00  0.00    -0.161 NA
ATOM      6  N   UNL d   1      59.079  -0.705  29.988  0.00  0.00    -0.227 NA
ATOM      7  C   UNL d   1      58.375   0.207  30.835  0.00  0.00     0.057 A 
ATOM      8  C   UNL d   1      57.919  -2.445  30.427  0.00  0.00     0.124 A 
ATOM      9  C   UNL d   1      58.976   0.057  30.298  0.00  0.00     0.086 A 
ATOM     10  C   UNL d   1      59.485   0.677  30.063  0.00  0.00     0.021 C 
ENDROOT
BRANCH   3  11
ATOM     11  N   UNL d   1      57.265  -0.254  31.611  0.00  0.00    -0.286 N 
ATOM     12  C   UNL d   1      57.109   0.523  31.856  0.00  0.00     0.101 A 
ATOM     13  C   UNL d   1      56.504   0.673  32.397  0.00  0.00     0.100 A 
ATOM     14  N   UNL d   1      56.053   0.047  32.696  0.00  0.00    -0.301 N 
ATOM     15  C   UNL d   1      56.207  -0.725  32.454  0.00  0.00     0.100 A 
ATOM     16  C   UNL d   1      56.812  -0.875  31.913  0.00  0.00     0.101 A 
BRANCH  14  17
ATOM     17  C   UNL d   1      55.442   0.199  33.242  0.00  0.00     0.064 A 
ATOM     18  C   UNL d   1      55.625   0.488  33.989  0.00  0.00     0.018 A 
ATOM     19  C   UNL d   1      54.909   0.584  34.406  0.00  0.00     0.002 A 
ATOM     20  C   UNL d   1      54.298   0.354  33.911  0.00  0.00     0.002 A 
ATOM     21  C   UNL d   1      54.619   0.116  33.194  0.00  0.00     0.018 A 
ENDBRANCH  14  17
ENDBRANCH   3  11
BRANCH   4  22
ATOM     22  C   UNL d   1      58.994  -2.566  29.508  0.00  0.00     0.004 A 
ATOM     23  C   UNL d   1      59.780  -2.349  29.346  0.00  0.00     0.000 A 
ATOM     24  C   UNL d   1      60.237  -2.808  28.835  0.00  0.00     0.000 A 
ATOM     25  C   UNL d   1      59.916  -3.483  28.484  0.00  0.00     0.000 A 
ATOM     26  C   UNL d   1      59.134  -3.700  28.644  0.00  0.00     0.000 A 
ATOM     27  C   UNL d   1      58.678  -3.241  29.154  0.00  0.00     0.000 A 
ENDBRANCH   4  22
TORSDOF 3
ENDMDL
