MODEL 1
REMARK VINA RESULT:      -5.9      0.000      0.000
REMARK  9 active torsions:
REMARK  status: ('A' for Active; 'I' for Inactive)
REMARK    1  A    between atoms: N_3  and  C_1 
REMARK       I    between atoms: C_5  and  N_3 
REMARK    2  A    between atoms: C_9  and  N_3 
REMARK    3  A    between atoms: C_8  and  C_5 
REMARK    4  A    between atoms: C_16  and  C_9 
REMARK    5  A    between atoms: O_18  and  C_12 
REMARK    6  A    between atoms: N_17  and  C_16 
REMARK    7  A    between atoms: C_22  and  N_17 
REMARK    8  A    between atoms: C_23  and  N_17 
REMARK    9  A    between atoms: C_24  and  O_18 
ROOT
ATOM      1  N   UNL d   1     -48.044  13.607  23.054  0.00  0.00    -0.250 N 
ATOM      2  C   UNL d   1     -47.931  14.420  23.028  0.00  0.00     0.289 C 
ATOM      3  O   UNL d   1     -47.183  14.733  23.023  0.00  0.00    -0.264 OA
ENDROOT
BRANCH   1   4
ATOM      4  C   UNL d   1     -47.382  13.108  23.077  0.00  0.00     0.182 A 
ATOM      5  N   UNL d   1     -46.676  13.212  22.625  0.00  0.00    -0.220 NA
ATOM      6  C   UNL d   1     -46.145  12.573  22.821  0.00  0.00     0.112 A 
ATOM      7  C   UNL d   1     -45.379  12.383  22.557  0.00  0.00     0.118 A 
ATOM      8  C   UNL d   1     -46.530  12.088  23.388  0.00  0.00     0.052 A 
ATOM      9  C   UNL d   1     -44.986  11.709  22.853  0.00  0.00     0.026 A 
ATOM     10  C   UNL d   1     -45.366  11.219  23.421  0.00  0.00     0.003 A 
ATOM     11  C   UNL d   1     -46.144  11.422  23.681  0.00  0.00     0.008 A 
ATOM     12  S   UNL d   1     -47.297  12.411  23.553  0.00  0.00    -0.048 SA
BRANCH   7  13
ATOM     13  O   UNL d   1     -44.995  12.874  21.987  0.00  0.00    -0.304 OA
BRANCH  13  14
ATOM     14  C   UNL d   1     -44.206  12.704  21.749  0.00  0.00     0.123 C 
ATOM     15  C   UNL d   1     -43.875  13.030  21.396  0.00  0.00     0.029 C 
ENDBRANCH  13  14
ENDBRANCH   7  13
ENDBRANCH   1   4
BRANCH   1  16
ATOM     16  C   UNL d   1     -48.801  13.291  23.059  0.00  0.00     0.104 C 
BRANCH  16  17
ATOM     17  C   UNL d   1     -48.995  12.686  22.533  0.00  0.00     0.100 C 
BRANCH  17  18
ATOM     18  N   UNL d   1     -49.746  12.360  22.547  0.00  0.00    -0.301 N 
BRANCH  18  19
ATOM     19  C   UNL d   1     -50.203  12.352  21.860  0.00  0.00     0.080 C 
ATOM     20  C   UNL d   1     -49.926  11.966  21.191  0.00  0.00     0.021 C 
ENDBRANCH  18  19
BRANCH  18  21
ATOM     21  C   UNL d   1     -50.042  12.043  23.241  0.00  0.00     0.080 C 
ATOM     22  C   UNL d   1     -50.844  11.895  23.311  0.00  0.00     0.021 C 
ENDBRANCH  18  21
ENDBRANCH  17  18
ENDBRANCH  16  17
ENDBRANCH   1  16
BRANCH   2  23
ATOM     23  C   UNL d   1     -48.590  14.912  23.006  0.00  0.00     0.156 A 
ATOM     24  O   UNL d   1     -49.096  15.077  23.625  0.00  0.00    -0.300 OA
ATOM     25  C   UNL d   1     -49.677  15.597  23.346  0.00  0.00     0.123 A 
ATOM     26  C   UNL d   1     -49.523  15.744  22.567  0.00  0.00     0.029 A 
ATOM     27  C   UNL d   1     -48.856  15.331  22.334  0.00  0.00     0.032 A 
ENDBRANCH   2  23
TORSDOF 9
ENDMDL
MODEL 2
REMARK VINA RESULT:      -3.0      7.372     10.200
REMARK  9 active torsions:
REMARK  status: ('A' for Active; 'I' for Inactive)
REMARK    1  A    between atoms: N_3  and  C_1 
REMARK       I    between atoms: C_5  and  N_3 
REMARK    2  A    between atoms: C_9  and  N_3 
REMARK    3  A    between atoms: C_8  and  C_5 
REMARK    4  A    between atoms: C_16  and  C_9 
REMARK    5  A    between atoms: O_18  and  C_12 
REMARK    6  A    between atoms: N_17  and  C_16 
REMARK    7  A    between atoms: C_22  and  N_17 
REMARK    8  A    between atoms: C_23  and  N_17 
REMARK    9  A    between atoms: C_24  and  O_18 
ROOT
ATOM      1  N   UNL d   1     -38.742  14.195  18.446  0.00  0.00    -0.250 N 
ATOM      2  C   UNL d   1     -38.489  13.414  18.447  0.00  0.00     0.289 C 
ATOM      3  O   UNL d   1     -38.372  13.019  19.145  0.00  0.00    -0.264 OA
ENDROOT
BRANCH   1   4
ATOM      4  C   UNL d   1     -38.877  14.577  19.170  0.00  0.00     0.182 A 
ATOM      5  N   UNL d   1     -39.635  14.734  19.507  0.00  0.00    -0.220 NA
ATOM      6  C   UNL d   1     -39.513  15.133  20.251  0.00  0.00     0.112 A 
ATOM      7  C   UNL d   1     -40.043  15.423  20.823  0.00  0.00     0.118 A 
ATOM      8  C   UNL d   1     -38.685  15.216  20.361  0.00  0.00     0.052 A 
ATOM      9  C   UNL d   1     -39.758  15.797  21.512  0.00  0.00     0.026 A 
ATOM     10  C   UNL d   1     -38.930  15.883  21.628  0.00  0.00     0.003 A 
ATOM     11  C   UNL d   1     -38.400  15.585  21.040  0.00  0.00     0.008 A 
ATOM     12  S   UNL d   1     -38.282  14.874  19.697  0.00  0.00    -0.048 SA
BRANCH   7  13
ATOM     13  O   UNL d   1     -40.876  15.338  20.707  0.00  0.00    -0.304 OA
BRANCH  13  14
ATOM     14  C   UNL d   1     -41.412  15.607  21.298  0.00  0.00     0.123 C 
ATOM     15  C   UNL d   1     -41.994  15.589  21.269  0.00  0.00     0.029 C 
ENDBRANCH  13  14
ENDBRANCH   7  13
ENDBRANCH   1   4
BRANCH   1  16
ATOM     16  C   UNL d   1     -38.861  14.595  17.740  0.00  0.00     0.104 C 
BRANCH  16  17
ATOM     17  C   UNL d   1     -39.528  15.070  17.645  0.00  0.00     0.100 C 
BRANCH  17  18
ATOM     18  N   UNL d   1     -39.722  15.357  16.903  0.00  0.00    -0.301 N 
BRANCH  18  19
ATOM     19  C   UNL d   1     -39.139  15.702  16.432  0.00  0.00     0.080 C 
ATOM     20  C   UNL d   1     -39.295  15.864  15.643  0.00  0.00     0.021 C 
ENDBRANCH  18  19
BRANCH  18  21
ATOM     21  C   UNL d   1     -40.491  15.301  16.629  0.00  0.00     0.080 C 
ATOM     22  C   UNL d   1     -41.074  15.773  16.955  0.00  0.00     0.021 C 
ENDBRANCH  18  21
ENDBRANCH  17  18
ENDBRANCH  16  17
ENDBRANCH   1  16
BRANCH   2  23
ATOM     23  C   UNL d   1     -38.357  13.039  17.727  0.00  0.00     0.156 A 
ATOM     24  O   UNL d   1     -37.949  13.342  17.087  0.00  0.00    -0.300 OA
ATOM     25  C   UNL d   1     -37.957  12.771  16.488  0.00  0.00     0.123 A 
ATOM     26  C   UNL d   1     -38.365  12.130  16.763  0.00  0.00     0.029 A 
ATOM     27  C   UNL d   1     -38.622  12.272  17.527  0.00  0.00     0.032 A 
ENDBRANCH   2  23
TORSDOF 9
ENDMDL
