MODEL 1
REMARK VINA RESULT:      11.6      0.000      0.000
REMARK  4 active torsions:
REMARK  status: ('A' for Active; 'I' for Inactive)
REMARK       I    between atoms: C_2  and  N_1 
REMARK    1  A    between atoms: C_7  and  N_1 
REMARK    2  A    between atoms: C_5  and  C_2 
REMARK    3  A    between atoms: C_3  and  C_6 
REMARK    4  A    between atoms: C_6  and  C_5 
ROOT
ATOM      1  N   UNL d   1      13.398  11.861  -2.028  0.00  0.00    -0.208 NA
ATOM      2  C   UNL d   1      13.530  11.819  -2.835  0.00  0.00     0.279 C 
ATOM      3  O   UNL d   1      14.302  11.803  -3.125  0.00  0.00    -0.265 OA
ENDROOT
BRANCH   2   4
ATOM      4  C   UNL d   1      12.897  11.793  -3.360  0.00  0.00     0.063 C 
BRANCH   4   5
ATOM      5  C   UNL d   1      12.778  12.405  -3.899  0.00  0.00     0.011 C 
BRANCH   5   6
ATOM      6  C   UNL d   1      13.100  12.362  -4.655  0.00  0.00     0.030 A 
ATOM      7  S   UNL d   1      13.738  12.756  -5.020  0.00  0.00    -0.086 SA
ATOM      8  C   UNL d   1      13.805  12.481  -5.803  0.00  0.00     0.035 A 
ATOM      9  C   UNL d   1      13.210  11.913  -5.932  0.00  0.00     0.007 A 
ATOM     10  C   UNL d   1      12.769  11.837  -5.219  0.00  0.00     0.007 A 
ENDBRANCH   5   6
ENDBRANCH   4   5
ENDBRANCH   2   4
BRANCH   1  11
ATOM     11  C   UNL d   1      14.033  11.887  -1.503  0.00  0.00     0.085 A 
ATOM     12  C   UNL d   1      13.894  11.871  -0.703  0.00  0.00     0.018 A 
ATOM     13  C   UNL d   1      13.125  11.829  -0.413  0.00  0.00     0.002 C 
ATOM     14  C   UNL d   1      14.527  11.897  -0.166  0.00  0.00     0.002 A 
ATOM     15  C   UNL d   1      15.301  11.939  -0.454  0.00  0.00     0.000 A 
ATOM     16  C   UNL d   1      15.444  11.956  -1.266  0.00  0.00     0.002 A 
ATOM     17  C   UNL d   1      14.811  11.930  -1.791  0.00  0.00     0.019 A 
ENDBRANCH   1  11
TORSDOF 4
ENDMDL
MODEL 2
REMARK VINA RESULT:      12.3      1.036      1.331
REMARK  4 active torsions:
REMARK  status: ('A' for Active; 'I' for Inactive)
REMARK       I    between atoms: C_2  and  N_1 
REMARK    1  A    between atoms: C_7  and  N_1 
REMARK    2  A    between atoms: C_5  and  C_2 
REMARK    3  A    between atoms: C_3  and  C_6 
REMARK    4  A    between atoms: C_6  and  C_5 
ROOT
ATOM      1  N   UNL d   1      14.230  12.479  -2.191  0.00  0.00    -0.208 NA
ATOM      2  C   UNL d   1      13.504  12.103  -2.238  0.00  0.00     0.279 C 
ATOM      3  O   UNL d   1      13.162  11.783  -1.558  0.00  0.00    -0.265 OA
ENDROOT
BRANCH   2   4
ATOM      4  C   UNL d   1      13.112  12.042  -2.959  0.00  0.00     0.063 C 
BRANCH   4   5
ATOM      5  C   UNL d   1      13.513  11.782  -3.630  0.00  0.00     0.011 C 
BRANCH   5   6
ATOM      6  C   UNL d   1      13.327  12.090  -4.371  0.00  0.00     0.030 A 
ATOM      7  S   UNL d   1      13.498  11.835  -5.147  0.00  0.00    -0.086 SA
ATOM      8  C   UNL d   1      13.161  12.377  -5.681  0.00  0.00     0.035 A 
ATOM      9  C   UNL d   1      12.777  12.973  -5.244  0.00  0.00     0.007 A 
ATOM     10  C   UNL d   1      12.880  12.796  -4.427  0.00  0.00     0.007 A 
ENDBRANCH   5   6
ENDBRANCH   4   5
ENDBRANCH   2   4
BRANCH   1  11
ATOM     11  C   UNL d   1      14.622  12.540  -1.469  0.00  0.00     0.085 A 
ATOM     12  C   UNL d   1      14.948  13.249  -1.246  0.00  0.00     0.018 A 
ATOM     13  C   UNL d   1      14.888  13.908  -1.736  0.00  0.00     0.002 C 
ATOM     14  C   UNL d   1      15.344  13.321  -0.521  0.00  0.00     0.002 A 
ATOM     15  C   UNL d   1      15.406  12.661  -0.026  0.00  0.00     0.000 A 
ATOM     16  C   UNL d   1      15.076  11.938  -0.250  0.00  0.00     0.002 A 
ATOM     17  C   UNL d   1      14.684  11.877  -0.972  0.00  0.00     0.019 A 
ENDBRANCH   1  11
TORSDOF 4
ENDMDL
