MODEL 1
REMARK VINA RESULT:      42.5      0.000      0.000
REMARK  7 active torsions:
REMARK  status: ('A' for Active; 'I' for Inactive)
REMARK    1  A    between atoms: C_8  and  N_2 
REMARK    2  A    between atoms: C_13  and  C_8 
REMARK    3  A    between atoms: O_17  and  C_13 
REMARK    4  A    between atoms: O_18  and  C_15 
REMARK    5  A    between atoms: C_21  and  O_17 
REMARK    6  A    between atoms: C_23  and  C_21 
REMARK    7  A    between atoms: C_24  and  C_23 
ROOT
ATOM      1  C   UNL d   1      13.877  13.585  -2.497  0.00  0.00     0.166 A 
ATOM      2  N   UNL d   1      13.550  14.055  -3.081  0.00  0.00    -0.285 N 
ATOM      3  C   UNL d   1      13.934  12.814  -2.793  0.00  0.00     0.117 A 
ATOM      4  C   UNL d   1      13.641  12.813  -3.562  0.00  0.00     0.039 A 
ATOM      5  C   UNL d   1      13.402  13.582  -3.744  0.00  0.00     0.067 A 
ATOM      6  N   UNL d   1      14.129  13.753  -1.735  0.00  0.00    -0.225 NA
ATOM      7  N   UNL d   1      14.247  12.205  -2.324  0.00  0.00    -0.241 NA
ATOM      8  C   UNL d   1      14.445  13.147  -1.258  0.00  0.00     0.101 A 
ATOM      9  C   UNL d   1      14.502  12.377  -1.554  0.00  0.00     0.099 A 
ATOM     10  C   UNL d   1      13.082  13.752  -4.486  0.00  0.00     0.020 A 
ATOM     11  C   UNL d   1      13.560  12.213  -4.122  0.00  0.00     0.027 A 
ATOM     12  C   UNL d   1      13.241  12.383  -4.863  0.00  0.00     0.094 A 
ATOM     13  C   UNL d   1      13.002  13.152  -5.046  0.00  0.00     0.026 A 
ATOM     14  C   UNL d   1      14.813  11.780  -1.084  0.00  0.00     0.021 A 
ATOM     15  C   UNL d   1      14.697  13.320  -0.496  0.00  0.00     0.021 A 
ATOM     16  C   UNL d   1      15.066  11.953  -0.319  0.00  0.00     0.002 A 
ATOM     17  C   UNL d   1      15.010  12.723  -0.019  0.00  0.00     0.002 A 
ENDROOT
BRANCH   2  18
ATOM     18  C   UNL d   1      13.394  14.862  -3.023  0.00  0.00     0.151 C 
BRANCH  18  19
ATOM     19  C   UNL d   1      14.009  15.400  -3.131  0.00  0.00     0.318 C 
ATOM     20  O   UNL d   1      14.515  15.335  -3.775  0.00  0.00    -0.257 OA
BRANCH  19  21
ATOM     21  O   UNL d   1      14.116  16.008  -2.587  0.00  0.00    -0.270 OA
BRANCH  21  22
ATOM     22  C   UNL d   1      14.872  16.189  -2.320  0.00  0.00     0.126 C 
BRANCH  22  23
ATOM     23  C   UNL d   1      14.979  16.425  -1.539  0.00  0.00     0.027 C 
BRANCH  23  24
ATOM     24  C   UNL d   1      15.493  17.047  -1.364  0.00  0.00     0.002 C 
ATOM     25  C   UNL d   1      16.061  16.963  -0.775  0.00  0.00     0.000 C 
ENDBRANCH  23  24
ENDBRANCH  22  23
ENDBRANCH  21  22
ENDBRANCH  19  21
ENDBRANCH  18  19
ENDBRANCH   2  18
BRANCH  12  26
ATOM     26  O   UNL d   1      13.161  11.784  -5.419  0.00  0.00    -0.328 OA
ATOM     27  C   UNL d   1      13.629  11.779  -6.088  0.00  0.00     0.181 C 
ENDBRANCH  12  26
TORSDOF 7
ENDMDL
MODEL 2
REMARK VINA RESULT:      45.4      1.066      1.557
REMARK  7 active torsions:
REMARK  status: ('A' for Active; 'I' for Inactive)
REMARK    1  A    between atoms: C_8  and  N_2 
REMARK    2  A    between atoms: C_13  and  C_8 
REMARK    3  A    between atoms: O_17  and  C_13 
REMARK    4  A    between atoms: O_18  and  C_15 
REMARK    5  A    between atoms: C_21  and  O_17 
REMARK    6  A    between atoms: C_23  and  C_21 
REMARK    7  A    between atoms: C_24  and  C_23 
ROOT
ATOM      1  C   UNL d   1      13.933  13.634  -2.487  0.00  0.00     0.166 A 
ATOM      2  N   UNL d   1      13.612  14.118  -3.062  0.00  0.00    -0.285 N 
ATOM      3  C   UNL d   1      13.886  12.853  -2.756  0.00  0.00     0.117 A 
ATOM      4  C   UNL d   1      13.534  12.859  -3.500  0.00  0.00     0.039 A 
ATOM      5  C   UNL d   1      13.363  13.643  -3.693  0.00  0.00     0.067 A 
ATOM      6  N   UNL d   1      14.262  13.797  -1.754  0.00  0.00    -0.225 NA
ATOM      7  N   UNL d   1      14.170  12.229  -2.288  0.00  0.00    -0.241 NA
ATOM      8  C   UNL d   1      14.549  13.177  -1.278  0.00  0.00     0.101 A 
ATOM      9  C   UNL d   1      14.502  12.396  -1.548  0.00  0.00     0.099 A 
ATOM     10  C   UNL d   1      13.004  13.823  -4.414  0.00  0.00     0.020 A 
ATOM     11  C   UNL d   1      13.347  12.254  -4.028  0.00  0.00     0.027 A 
ATOM     12  C   UNL d   1      12.988  12.434  -4.749  0.00  0.00     0.094 A 
ATOM     13  C   UNL d   1      12.817  13.218  -4.942  0.00  0.00     0.026 A 
ATOM     14  C   UNL d   1      14.786  11.784  -1.079  0.00  0.00     0.021 A 
ATOM     15  C   UNL d   1      14.878  13.345  -0.545  0.00  0.00     0.021 A 
ATOM     16  C   UNL d   1      15.116  11.952  -0.343  0.00  0.00     0.002 A 
ATOM     17  C   UNL d   1      15.165  12.733  -0.070  0.00  0.00     0.002 A 
ENDROOT
BRANCH   2  18
ATOM     18  C   UNL d   1      13.546  14.938  -3.025  0.00  0.00     0.151 C 
BRANCH  18  19
ATOM     19  C   UNL d   1      14.163  15.405  -3.308  0.00  0.00     0.318 C 
ATOM     20  O   UNL d   1      14.867  15.468  -2.890  0.00  0.00    -0.257 OA
BRANCH  19  21
ATOM     21  O   UNL d   1      14.071  15.813  -4.017  0.00  0.00    -0.270 OA
BRANCH  21  22
ATOM     22  C   UNL d   1      14.560  16.451  -4.188  0.00  0.00     0.126 C 
BRANCH  22  23
ATOM     23  C   UNL d   1      15.023  16.435  -4.868  0.00  0.00     0.027 C 
BRANCH  23  24
ATOM     24  C   UNL d   1      14.698  16.664  -5.592  0.00  0.00     0.002 C 
ATOM     25  C   UNL d   1      14.942  17.361  -5.954  0.00  0.00     0.000 C 
ENDBRANCH  23  24
ENDBRANCH  22  23
ENDBRANCH  21  22
ENDBRANCH  19  21
ENDBRANCH  18  19
ENDBRANCH   2  18
BRANCH  12  26
ATOM     26  O   UNL d   1      12.803  11.830  -5.273  0.00  0.00    -0.328 OA
ATOM     27  C   UNL d   1      13.177  11.784  -5.997  0.00  0.00     0.181 C 
ENDBRANCH  12  26
TORSDOF 7
ENDMDL
