MODEL 1
REMARK VINA RESULT:      -9.6      0.000      0.000
REMARK  5 active torsions:
REMARK  status: ('A' for Active; 'I' for Inactive)
REMARK    1  A    between atoms: C_10  and  N_4 
REMARK    2  A    between atoms: C_12  and  C_10 
REMARK    3  A    between atoms: N_13  and  C_12 
REMARK    4  A    between atoms: C_19  and  N_13 
REMARK    5  A    between atoms: C_20  and  N_13 
ROOT
ATOM      1  C   UNL d   1      52.460  32.334  53.222  0.00  0.00     0.102 A 
ATOM      2  N   UNL d   1      51.753  32.602  52.909  0.00  0.00    -0.163 NA
ATOM      3  C   UNL d   1      52.975  32.850  53.608  0.00  0.00     0.024 A 
ATOM      4  N   UNL d   1      51.648  33.712  53.102  0.00  0.00    -0.192 N 
ATOM      5  C   UNL d   1      52.254  34.086  53.504  0.00  0.00     0.280 A 
ATOM      6  C   UNL d   1      52.918  33.654  53.757  0.00  0.00     0.059 A 
ATOM      7  C   UNL d   1      53.629  32.425  53.858  0.00  0.00     0.002 A 
ATOM      8  C   UNL d   1      52.805  31.584  53.237  0.00  0.00     0.019 A 
ATOM      9  C   UNL d   1      53.528  31.641  53.630  0.00  0.00     0.002 A 
ATOM     10  O   UNL d   1      52.203  34.901  53.658  0.00  0.00    -0.265 OA
ATOM     11  C   UNL d   1      53.533  34.037  54.166  0.00  0.00     0.005 A 
ATOM     12  C   UNL d   1      54.238  32.797  54.262  0.00  0.00     0.000 A 
ATOM     13  C   UNL d   1      52.554  30.856  52.943  0.00  0.00     0.002 A 
ATOM     14  C   UNL d   1      53.996  30.966  53.726  0.00  0.00     0.000 A 
ATOM     15  C   UNL d   1      54.187  33.612  54.416  0.00  0.00     0.000 A 
ATOM     16  C   UNL d   1      53.021  30.182  53.039  0.00  0.00     0.000 A 
ATOM     17  C   UNL d   1      53.745  30.237  53.432  0.00  0.00     0.000 A 
ENDROOT
BRANCH   4  18
ATOM     18  C   UNL d   1      51.078  34.288  52.929  0.00  0.00     0.123 C 
BRANCH  18  19
ATOM     19  C   UNL d   1      50.357  34.067  52.582  0.00  0.00     0.101 C 
BRANCH  19  20
ATOM     20  N   UNL d   1      49.759  34.631  52.472  0.00  0.00    -0.301 N 
BRANCH  20  21
ATOM     21  C   UNL d   1      49.395  34.981  53.117  0.00  0.00     0.080 C 
ATOM     22  C   UNL d   1      48.792  35.534  53.009  0.00  0.00     0.021 C 
ENDBRANCH  20  21
BRANCH  20  23
ATOM     23  C   UNL d   1      49.534  34.839  51.704  0.00  0.00     0.080 C 
ATOM     24  C   UNL d   1      49.094  34.312  51.250  0.00  0.00     0.021 C 
ENDBRANCH  20  23
ENDBRANCH  19  20
ENDBRANCH  18  19
ENDBRANCH   4  18
TORSDOF 5
ENDMDL
MODEL 2
REMARK VINA RESULT:      -8.7      0.875      2.313
REMARK  5 active torsions:
REMARK  status: ('A' for Active; 'I' for Inactive)
REMARK    1  A    between atoms: C_10  and  N_4 
REMARK    2  A    between atoms: C_12  and  C_10 
REMARK    3  A    between atoms: N_13  and  C_12 
REMARK    4  A    between atoms: C_19  and  N_13 
REMARK    5  A    between atoms: C_20  and  N_13 
ROOT
ATOM      1  C   UNL d   1      53.004  33.585  53.988  0.00  0.00     0.102 A 
ATOM      2  N   UNL d   1      52.363  34.047  53.776  0.00  0.00    -0.163 NA
ATOM      3  C   UNL d   1      53.079  32.812  53.712  0.00  0.00     0.024 A 
ATOM      4  N   UNL d   1      51.678  33.456  53.096  0.00  0.00    -0.192 N 
ATOM      5  C   UNL d   1      51.894  32.690  52.913  0.00  0.00     0.280 A 
ATOM      6  C   UNL d   1      52.596  32.367  53.221  0.00  0.00     0.059 A 
ATOM      7  C   UNL d   1      53.770  32.494  54.016  0.00  0.00     0.002 A 
ATOM      8  C   UNL d   1      53.659  33.742  54.466  0.00  0.00     0.019 A 
ATOM      9  C   UNL d   1      54.133  33.067  54.483  0.00  0.00     0.002 A 
ATOM     10  O   UNL d   1      51.409  32.233  52.416  0.00  0.00    -0.265 OA
ATOM     11  C   UNL d   1      52.815  31.587  53.033  0.00  0.00     0.005 A 
ATOM     12  C   UNL d   1      53.991  31.726  53.834  0.00  0.00     0.000 A 
ATOM     13  C   UNL d   1      53.886  34.412  54.889  0.00  0.00     0.002 A 
ATOM     14  C   UNL d   1      54.831  33.068  54.925  0.00  0.00     0.000 A 
ATOM     15  C   UNL d   1      53.506  31.269  53.337  0.00  0.00     0.000 A 
ATOM     16  C   UNL d   1      54.583  34.413  55.330  0.00  0.00     0.000 A 
ATOM     17  C   UNL d   1      55.058  33.738  55.348  0.00  0.00     0.000 A 
ENDROOT
BRANCH   4  18
ATOM     18  C   UNL d   1      50.962  33.607  52.707  0.00  0.00     0.123 C 
BRANCH  18  19
ATOM     19  C   UNL d   1      50.600  34.351  52.777  0.00  0.00     0.101 C 
BRANCH  19  20
ATOM     20  N   UNL d   1      49.885  34.502  52.386  0.00  0.00    -0.301 N 
BRANCH  20  21
ATOM     21  C   UNL d   1      49.844  34.475  51.568  0.00  0.00     0.080 C 
ATOM     22  C   UNL d   1      49.115  34.519  51.183  0.00  0.00     0.021 C 
ENDBRANCH  20  21
BRANCH  20  23
ATOM     23  C   UNL d   1      49.210  34.682  52.831  0.00  0.00     0.080 C 
ATOM     24  C   UNL d   1      49.154  35.408  53.213  0.00  0.00     0.021 C 
ENDBRANCH  20  23
ENDBRANCH  19  20
ENDBRANCH  18  19
ENDBRANCH   4  18
TORSDOF 5
ENDMDL
MODEL 3
REMARK VINA RESULT:      -7.5      1.348      4.182
REMARK  5 active torsions:
REMARK  status: ('A' for Active; 'I' for Inactive)
REMARK    1  A    between atoms: C_10  and  N_4 
REMARK    2  A    between atoms: C_12  and  C_10 
REMARK    3  A    between atoms: N_13  and  C_12 
REMARK    4  A    between atoms: C_19  and  N_13 
REMARK    5  A    between atoms: C_20  and  N_13 
ROOT
ATOM      1  C   UNL d   1      52.123  33.056  53.342  0.00  0.00     0.102 A 
ATOM      2  N   UNL d   1      52.213  32.246  53.272  0.00  0.00    -0.163 NA
ATOM      3  C   UNL d   1      52.684  33.513  53.736  0.00  0.00     0.024 A 
ATOM      4  N   UNL d   1      53.173  31.926  53.779  0.00  0.00    -0.192 N 
ATOM      5  C   UNL d   1      53.628  32.507  54.130  0.00  0.00     0.280 A 
ATOM      6  C   UNL d   1      53.384  33.302  54.108  0.00  0.00     0.059 A 
ATOM      7  C   UNL d   1      52.443  34.296  53.714  0.00  0.00     0.002 A 
ATOM      8  C   UNL d   1      51.530  33.567  53.076  0.00  0.00     0.019 A 
ATOM      9  C   UNL d   1      51.729  34.334  53.307  0.00  0.00     0.002 A 
ATOM     10  O   UNL d   1      54.338  32.301  54.509  0.00  0.00    -0.265 OA
ATOM     11  C   UNL d   1      53.848  33.892  54.466  0.00  0.00     0.005 A 
ATOM     12  C   UNL d   1      52.897  34.882  54.065  0.00  0.00     0.000 A 
ATOM     13  C   UNL d   1      50.835  33.434  52.654  0.00  0.00     0.002 A 
ATOM     14  C   UNL d   1      51.229  34.963  53.113  0.00  0.00     0.000 A 
ATOM     15  C   UNL d   1      53.607  34.674  54.445  0.00  0.00     0.000 A 
ATOM     16  C   UNL d   1      50.336  34.062  52.460  0.00  0.00     0.000 A 
ATOM     17  C   UNL d   1      50.534  34.829  52.690  0.00  0.00     0.000 A 
ENDROOT
BRANCH   4  18
ATOM     18  C   UNL d   1      53.565  31.206  53.896  0.00  0.00     0.123 C 
BRANCH  18  19
ATOM     19  C   UNL d   1      53.407  30.561  53.397  0.00  0.00     0.101 C 
BRANCH  19  20
ATOM     20  N   UNL d   1      53.252  29.814  53.721  0.00  0.00    -0.301 N 
BRANCH  20  21
ATOM     21  C   UNL d   1      53.696  29.533  54.349  0.00  0.00     0.080 C 
ATOM     22  C   UNL d   1      53.459  28.860  54.763  0.00  0.00     0.021 C 
ENDBRANCH  20  21
BRANCH  20  23
ATOM     23  C   UNL d   1      52.643  29.353  53.403  0.00  0.00     0.080 C 
ATOM     24  C   UNL d   1      52.610  29.222  52.591  0.00  0.00     0.021 C 
ENDBRANCH  20  23
ENDBRANCH  19  20
ENDBRANCH  18  19
ENDBRANCH   4  18
TORSDOF 5
ENDMDL
MODEL 4
REMARK VINA RESULT:      -7.0      1.734      4.426
REMARK  5 active torsions:
REMARK  status: ('A' for Active; 'I' for Inactive)
REMARK    1  A    between atoms: C_10  and  N_4 
REMARK    2  A    between atoms: C_12  and  C_10 
REMARK    3  A    between atoms: N_13  and  C_12 
REMARK    4  A    between atoms: C_19  and  N_13 
REMARK    5  A    between atoms: C_20  and  N_13 
ROOT
ATOM      1  C   UNL d   1      53.115  33.430  54.016  0.00  0.00     0.102 A 
ATOM      2  N   UNL d   1      53.374  32.662  54.133  0.00  0.00    -0.163 NA
ATOM      3  C   UNL d   1      52.571  33.607  53.422  0.00  0.00     0.024 A 
ATOM      4  N   UNL d   1      52.877  31.975  53.384  0.00  0.00    -0.192 N 
ATOM      5  C   UNL d   1      52.353  32.309  52.852  0.00  0.00     0.280 A 
ATOM      6  C   UNL d   1      52.200  33.127  52.871  0.00  0.00     0.059 A 
ATOM      7  C   UNL d   1      52.421  34.412  53.441  0.00  0.00     0.002 A 
ATOM      8  C   UNL d   1      53.299  34.136  54.402  0.00  0.00     0.019 A 
ATOM      9  C   UNL d   1      52.869  34.743  54.046  0.00  0.00     0.002 A 
ATOM     10  O   UNL d   1      51.974  31.828  52.291  0.00  0.00    -0.265 OA
ATOM     11  C   UNL d   1      51.668  33.464  52.329  0.00  0.00     0.005 A 
ATOM     12  C   UNL d   1      51.896  34.751  52.909  0.00  0.00     0.000 A 
ATOM     13  C   UNL d   1      53.803  34.305  55.033  0.00  0.00     0.002 A 
ATOM     14  C   UNL d   1      52.947  35.518  54.325  0.00  0.00     0.000 A 
ATOM     15  C   UNL d   1      51.517  34.269  52.348  0.00  0.00     0.000 A 
ATOM     16  C   UNL d   1      53.880  35.078  55.311  0.00  0.00     0.000 A 
ATOM     17  C   UNL d   1      53.451  35.687  54.956  0.00  0.00     0.000 A 
ENDROOT
BRANCH   4  18
ATOM     18  C   UNL d   1      52.905  31.163  53.220  0.00  0.00     0.123 C 
BRANCH  18  19
ATOM     19  C   UNL d   1      53.331  30.654  53.719  0.00  0.00     0.101 C 
BRANCH  19  20
ATOM     20  N   UNL d   1      53.155  29.844  53.733  0.00  0.00    -0.301 N 
BRANCH  20  21
ATOM     21  C   UNL d   1      53.118  29.414  53.037  0.00  0.00     0.080 C 
ATOM     22  C   UNL d   1      52.626  28.755  52.977  0.00  0.00     0.021 C 
ENDBRANCH  20  21
BRANCH  20  23
ATOM     23  C   UNL d   1      53.015  29.473  54.459  0.00  0.00     0.080 C 
ATOM     24  C   UNL d   1      53.628  29.077  54.841  0.00  0.00     0.021 C 
ENDBRANCH  20  23
ENDBRANCH  19  20
ENDBRANCH  18  19
ENDBRANCH   4  18
TORSDOF 5
ENDMDL
MODEL 5
REMARK VINA RESULT:      -6.8      1.494      5.661
REMARK  5 active torsions:
REMARK  status: ('A' for Active; 'I' for Inactive)
REMARK    1  A    between atoms: C_10  and  N_4 
REMARK    2  A    between atoms: C_12  and  C_10 
REMARK    3  A    between atoms: N_13  and  C_12 
REMARK    4  A    between atoms: C_19  and  N_13 
REMARK    5  A    between atoms: C_20  and  N_13 
ROOT
ATOM      1  C   UNL d   1      48.811  35.458  52.931  0.00  0.00     0.102 A 
ATOM      2  N   UNL d   1      49.514  35.269  53.305  0.00  0.00    -0.163 NA
ATOM      3  C   UNL d   1      48.653  35.195  52.166  0.00  0.00     0.024 A 
ATOM      4  N   UNL d   1      50.152  34.637  52.615  0.00  0.00    -0.192 N 
ATOM      5  C   UNL d   1      49.850  34.459  51.877  0.00  0.00     0.280 A 
ATOM      6  C   UNL d   1      49.100  34.738  51.652  0.00  0.00     0.059 A 
ATOM      7  C   UNL d   1      47.914  35.470  51.944  0.00  0.00     0.002 A 
ATOM      8  C   UNL d   1      48.159  35.899  53.180  0.00  0.00     0.019 A 
ATOM      9  C   UNL d   1      47.605  35.907  52.569  0.00  0.00     0.002 A 
ATOM     10  O   UNL d   1      50.297  33.997  51.350  0.00  0.00    -0.265 OA
ATOM     11  C   UNL d   1      48.795  34.556  50.900  0.00  0.00     0.005 A 
ATOM     12  C   UNL d   1      47.608  35.293  51.204  0.00  0.00     0.000 A 
ATOM     13  C   UNL d   1      47.998  36.296  53.885  0.00  0.00     0.002 A 
ATOM     14  C   UNL d   1      46.891  36.312  52.669  0.00  0.00     0.000 A 
ATOM     15  C   UNL d   1      48.056  34.831  50.678  0.00  0.00     0.000 A 
ATOM     16  C   UNL d   1      47.286  36.701  53.983  0.00  0.00     0.000 A 
ATOM     17  C   UNL d   1      46.730  36.709  53.373  0.00  0.00     0.000 A 
ENDROOT
BRANCH   4  18
ATOM     18  C   UNL d   1      50.899  34.281  52.666  0.00  0.00     0.123 C 
BRANCH  18  19
ATOM     19  C   UNL d   1      51.371  34.401  53.338  0.00  0.00     0.101 C 
BRANCH  19  20
ATOM     20  N   UNL d   1      52.137  34.087  53.368  0.00  0.00    -0.301 N 
BRANCH  20  21
ATOM     21  C   UNL d   1      52.253  33.277  53.410  0.00  0.00     0.080 C 
ATOM     22  C   UNL d   1      52.994  32.968  53.598  0.00  0.00     0.021 C 
ENDBRANCH  20  21
BRANCH  20  23
ATOM     23  C   UNL d   1      52.787  34.599  53.354  0.00  0.00     0.080 C 
ATOM     24  C   UNL d   1      52.940  35.082  54.003  0.00  0.00     0.021 C 
ENDBRANCH  20  23
ENDBRANCH  19  20
ENDBRANCH  18  19
ENDBRANCH   4  18
TORSDOF 5
ENDMDL
MODEL 6
REMARK VINA RESULT:      -6.6      9.490     10.315
REMARK  5 active torsions:
REMARK  status: ('A' for Active; 'I' for Inactive)
REMARK    1  A    between atoms: C_10  and  N_4 
REMARK    2  A    between atoms: C_12  and  C_10 
REMARK    3  A    between atoms: N_13  and  C_12 
REMARK    4  A    between atoms: C_19  and  N_13 
REMARK    5  A    between atoms: C_20  and  N_13 
ROOT
ATOM      1  C   UNL d   1      44.975  28.897  58.436  0.00  0.00     0.102 A 
ATOM      2  N   UNL d   1      44.953  29.041  59.241  0.00  0.00    -0.163 NA
ATOM      3  C   UNL d   1      44.835  29.501  57.893  0.00  0.00     0.024 A 
ATOM      4  N   UNL d   1      44.714  30.132  59.424  0.00  0.00    -0.192 N 
ATOM      5  C   UNL d   1      44.600  30.611  58.771  0.00  0.00     0.280 A 
ATOM      6  C   UNL d   1      44.661  30.294  58.004  0.00  0.00     0.059 A 
ATOM      7  C   UNL d   1      44.894  29.189  57.137  0.00  0.00     0.002 A 
ATOM      8  C   UNL d   1      45.122  28.207  58.006  0.00  0.00     0.019 A 
ATOM      9  C   UNL d   1      45.072  28.388  57.203  0.00  0.00     0.002 A 
ATOM     10  O   UNL d   1      44.424  31.415  58.877  0.00  0.00    -0.265 OA
ATOM     11  C   UNL d   1      44.544  30.782  57.341  0.00  0.00     0.005 A 
ATOM     12  C   UNL d   1      44.780  29.666  56.480  0.00  0.00     0.000 A 
ATOM     13  C   UNL d   1      45.295  27.436  58.242  0.00  0.00     0.002 A 
ATOM     14  C   UNL d   1      45.196  27.795  56.641  0.00  0.00     0.000 A 
ATOM     15  C   UNL d   1      44.604  30.471  56.586  0.00  0.00     0.000 A 
ATOM     16  C   UNL d   1      45.419  26.844  57.680  0.00  0.00     0.000 A 
ATOM     17  C   UNL d   1      45.369  27.024  56.877  0.00  0.00     0.000 A 
ENDROOT
BRANCH   4  18
ATOM     18  C   UNL d   1      44.617  30.609  60.095  0.00  0.00     0.123 C 
BRANCH  18  19
ATOM     19  C   UNL d   1      44.860  30.332  60.839  0.00  0.00     0.101 C 
BRANCH  19  20
ATOM     20  N   UNL d   1      44.530  30.653  61.529  0.00  0.00    -0.301 N 
BRANCH  20  21
ATOM     21  C   UNL d   1      44.418  31.462  61.598  0.00  0.00     0.080 C 
ATOM     22  C   UNL d   1      44.316  31.809  62.340  0.00  0.00     0.021 C 
ENDBRANCH  20  21
BRANCH  20  23
ATOM     23  C   UNL d   1      44.314  30.149  62.148  0.00  0.00     0.080 C 
ATOM     24  C   UNL d   1      44.862  29.614  62.450  0.00  0.00     0.021 C 
ENDBRANCH  20  23
ENDBRANCH  19  20
ENDBRANCH  18  19
ENDBRANCH   4  18
TORSDOF 5
ENDMDL
