MODEL 1
REMARK VINA RESULT:      70.0      0.000      0.000
REMARK  3 active torsions:
REMARK  status: ('A' for Active; 'I' for Inactive)
REMARK    1  A    between atoms: C_6  and  C_1 
REMARK    2  A    between atoms: C_5  and  N_2 
REMARK    3  A    between atoms: N_4  and  C_6 
ROOT
ATOM      1  N   UNL d   1     -48.837  28.211  34.777  0.00  0.00    -0.299 N 
ATOM      2  N   UNL d   1     -49.856  27.259  33.977  0.00  0.00    -0.300 N 
ATOM      3  C   UNL d   1     -48.651  27.964  34.028  0.00  0.00     0.100 A 
ATOM      4  C   UNL d   1     -49.542  27.983  35.139  0.00  0.00     0.100 A 
ATOM      5  C   UNL d   1     -49.161  27.487  33.628  0.00  0.00     0.100 A 
ATOM      6  C   UNL d   1     -50.052  27.507  34.738  0.00  0.00     0.100 A 
ENDROOT
BRANCH   2   7
ATOM      7  C   UNL d   1     -50.399  26.760  33.570  0.00  0.00     0.084 C 
BRANCH   7   8
ATOM      8  C   UNL d   1     -50.269  25.928  33.503  0.00  0.00     0.057 A 
ATOM      9  C   UNL d   1     -50.914  25.457  33.441  0.00  0.00     0.004 A 
ATOM     10  C   UNL d   1     -50.791  24.605  33.372  0.00  0.00     0.000 A 
ATOM     11  C   UNL d   1     -51.681  25.760  33.442  0.00  0.00     0.000 A 
ATOM     12  C   UNL d   1     -51.445  24.110  33.308  0.00  0.00     0.000 A 
ATOM     13  C   UNL d   1     -50.043  24.310  33.371  0.00  0.00     0.003 A 
ATOM     14  C   UNL d   1     -52.196  24.455  33.314  0.00  0.00     0.000 A 
ATOM     15  C   UNL d   1     -52.329  25.212  33.374  0.00  0.00     0.000 A 
ATOM     16  C   UNL d   1     -49.379  24.851  33.439  0.00  0.00     0.042 A 
ATOM     17  C   UNL d   1     -49.513  25.607  33.500  0.00  0.00     0.197 A 
ATOM     18  O   UNL d   1     -48.838  26.117  33.566  0.00  0.00    -0.286 OA
ENDBRANCH   7   8
ENDBRANCH   2   7
BRANCH   1  19
ATOM     19  C   UNL d   1     -48.304  28.710  35.196  0.00  0.00     0.092 A 
ATOM     20  C   UNL d   1     -48.290  29.521  35.022  0.00  0.00     0.156 A 
ATOM     21  F   UNL d   1     -48.784  29.851  34.449  0.00  0.00    -0.203 F 
ATOM     22  C   UNL d   1     -47.751  30.024  35.445  0.00  0.00     0.031 A 
ATOM     23  C   UNL d   1     -47.256  29.690  36.019  0.00  0.00     0.002 A 
ATOM     24  C   UNL d   1     -47.277  28.897  36.182  0.00  0.00     0.002 A 
ATOM     25  C   UNL d   1     -47.816  28.394  35.759  0.00  0.00     0.020 A 
ENDBRANCH   1  19
TORSDOF 3
ENDMDL
