MODEL 1
REMARK VINA RESULT:       7.9      0.000      0.000
REMARK  7 active torsions:
REMARK  status: ('A' for Active; 'I' for Inactive)
REMARK    1  A    between atoms: N_2  and  S_1 
REMARK    2  A    between atoms: C_6  and  S_1 
REMARK    3  A    between atoms: C_11  and  C_3 
REMARK    4  A    between atoms: C_4  and  C_5 
REMARK       I    between atoms: N_7  and  C_4 
REMARK       I    between atoms: C_5  and  N_10 
REMARK    5  A    between atoms: C_19  and  N_7 
REMARK    6  A    between atoms: N_10  and  C_11 
REMARK    7  A    between atoms: O_23  and  C_18 
ROOT
ATOM      1  N   UNL d   1     -43.528-122.078 -50.363  0.00  0.00    -0.209 N 
ATOM      2  C   UNL d   1     -43.220-121.911 -51.112  0.00  0.00     0.197 A 
ATOM      3  O   UNL d   1     -43.687-121.576 -51.695  0.00  0.00    -0.287 OA
ATOM      4  C   UNL d   1     -44.323-121.901 -50.202  0.00  0.00     0.096 A 
ATOM      5  C   UNL d   1     -44.793-121.566 -50.785  0.00  0.00     0.047 A 
ATOM      6  C   UNL d   1     -44.479-121.403 -51.527  0.00  0.00     0.126 A 
ENDROOT
BRANCH   2   7
ATOM      7  C   UNL d   1     -42.422-122.088 -51.276  0.00  0.00     0.146 C 
BRANCH   7   8
ATOM      8  N   UNL d   1     -42.215-122.434 -51.994  0.00  0.00    -0.199 NA
ATOM      9  C   UNL d   1     -41.789-122.008 -52.547  0.00  0.00     0.337 C 
ATOM     10  O   UNL d   1     -41.562-121.227 -52.389  0.00  0.00    -0.260 OA
BRANCH   9  11
ATOM     11  C   UNL d   1     -41.582-122.356 -53.266  0.00  0.00     0.337 C 
ATOM     12  N   UNL d   1     -41.827-122.017 -53.974  0.00  0.00    -0.204 NA
ATOM     13  O   UNL d   1     -41.127-123.046 -53.275  0.00  0.00    -0.260 OA
BRANCH  12  14
ATOM     14  C   UNL d   1     -41.619-122.365 -54.695  0.00  0.00     0.085 A 
ATOM     15  C   UNL d   1     -41.662-121.846 -55.324  0.00  0.00     0.019 A 
ATOM     16  C   UNL d   1     -41.441-122.269 -55.999  0.00  0.00     0.002 A 
ATOM     17  C   UNL d   1     -41.266-123.040 -55.782  0.00  0.00     0.002 A 
ATOM     18  C   UNL d   1     -41.378-123.101 -54.957  0.00  0.00     0.019 A 
ENDBRANCH  12  14
ENDBRANCH   9  11
ENDBRANCH   7   8
ENDBRANCH   2   7
BRANCH   1  19
ATOM     19  S   UNL d   1     -43.048-122.415 -49.785  0.00  0.00     0.273 S 
ATOM     20  O   UNL d   1     -43.414-123.147 -49.916  0.00  0.00    -0.200 OA
ATOM     21  O   UNL d   1     -42.683-121.684 -49.655  0.00  0.00    -0.200 OA
BRANCH  19  22
ATOM     22  C   UNL d   1     -42.571-122.760 -49.207  0.00  0.00     0.104 A 
ATOM     23  C   UNL d   1     -42.918-123.112 -48.549  0.00  0.00     0.015 A 
ATOM     24  C   UNL d   1     -42.441-123.459 -47.969  0.00  0.00     0.025 A 
ATOM     25  C   UNL d   1     -41.626-123.453 -48.048  0.00  0.00     0.094 A 
ATOM     26  C   UNL d   1     -41.266-123.102 -48.707  0.00  0.00     0.025 A 
ATOM     27  C   UNL d   1     -41.742-122.753 -49.290  0.00  0.00     0.015 A 
BRANCH  25  28
ATOM     28  O   UNL d   1     -41.149-123.802 -47.465  0.00  0.00    -0.328 OA
ATOM     29  C   UNL d   1     -41.196-123.544 -46.683  0.00  0.00     0.181 C 
ENDBRANCH  25  28
ENDBRANCH  19  22
ENDBRANCH   1  19
TORSDOF 7
ENDMDL
MODEL 2
REMARK VINA RESULT:       9.5      1.338      1.758
REMARK  7 active torsions:
REMARK  status: ('A' for Active; 'I' for Inactive)
REMARK    1  A    between atoms: N_2  and  S_1 
REMARK    2  A    between atoms: C_6  and  S_1 
REMARK    3  A    between atoms: C_11  and  C_3 
REMARK    4  A    between atoms: C_4  and  C_5 
REMARK       I    between atoms: N_7  and  C_4 
REMARK       I    between atoms: C_5  and  N_10 
REMARK    5  A    between atoms: C_19  and  N_7 
REMARK    6  A    between atoms: N_10  and  C_11 
REMARK    7  A    between atoms: O_23  and  C_18 
ROOT
ATOM      1  N   UNL d   1     -41.483-121.051 -50.750  0.00  0.00    -0.209 N 
ATOM      2  C   UNL d   1     -41.459-121.274 -51.546  0.00  0.00     0.197 A 
ATOM      3  O   UNL d   1     -41.280-120.730 -52.131  0.00  0.00    -0.287 OA
ATOM      4  C   UNL d   1     -41.324-120.263 -50.543  0.00  0.00     0.096 A 
ATOM      5  C   UNL d   1     -41.145-119.716 -51.128  0.00  0.00     0.047 A 
ATOM      6  C   UNL d   1     -41.123-119.945 -51.917  0.00  0.00     0.126 A 
ENDROOT
BRANCH   2   7
ATOM      7  C   UNL d   1     -41.618-122.065 -51.755  0.00  0.00     0.146 C 
BRANCH   7   8
ATOM      8  N   UNL d   1     -41.522-122.313 -52.536  0.00  0.00    -0.199 NA
ATOM      9  C   UNL d   1     -42.177-122.490 -52.992  0.00  0.00     0.337 C 
ATOM     10  O   UNL d   1     -42.939-122.424 -52.675  0.00  0.00    -0.260 OA
BRANCH   9  11
ATOM     11  C   UNL d   1     -42.081-122.738 -53.773  0.00  0.00     0.337 C 
ATOM     12  N   UNL d   1     -42.380-122.284 -54.390  0.00  0.00    -0.204 NA
ATOM     13  O   UNL d   1     -41.683-123.444 -53.936  0.00  0.00    -0.260 OA
BRANCH  12  14
ATOM     14  C   UNL d   1     -42.284-122.533 -55.174  0.00  0.00     0.085 A 
ATOM     15  C   UNL d   1     -41.910-121.977 -55.641  0.00  0.00     0.019 A 
ATOM     16  C   UNL d   1     -41.854-122.301 -56.400  0.00  0.00     0.002 A 
ATOM     17  C   UNL d   1     -42.192-123.048 -56.393  0.00  0.00     0.002 A 
ATOM     18  C   UNL d   1     -42.464-123.195 -55.617  0.00  0.00     0.019 A 
ENDBRANCH  12  14
ENDBRANCH   9  11
ENDBRANCH   7   8
ENDBRANCH   2   7
BRANCH   1  19
ATOM     19  S   UNL d   1     -41.664-121.608 -50.171  0.00  0.00     0.273 S 
ATOM     20  O   UNL d   1     -42.200-121.074 -49.832  0.00  0.00    -0.200 OA
ATOM     21  O   UNL d   1     -41.129-122.140 -50.509  0.00  0.00    -0.200 OA
BRANCH  19  22
ATOM     22  C   UNL d   1     -41.850-122.160 -49.587  0.00  0.00     0.104 A 
ATOM     23  C   UNL d   1     -42.636-122.372 -49.462  0.00  0.00     0.015 A 
ATOM     24  C   UNL d   1     -42.825-122.925 -48.877  0.00  0.00     0.025 A 
ATOM     25  C   UNL d   1     -42.233-123.263 -48.422  0.00  0.00     0.094 A 
ATOM     26  C   UNL d   1     -41.438-123.057 -48.539  0.00  0.00     0.025 A 
ATOM     27  C   UNL d   1     -41.246-122.502 -49.126  0.00  0.00     0.015 A 
BRANCH  25  28
ATOM     28  O   UNL d   1     -42.424-123.818 -47.836  0.00  0.00    -0.328 OA
ATOM     29  C   UNL d   1     -42.379-123.610 -47.039  0.00  0.00     0.181 C 
ENDBRANCH  25  28
ENDBRANCH  19  22
ENDBRANCH   1  19
TORSDOF 7
ENDMDL
