MODEL 1
REMARK VINA RESULT:      -2.5      0.000      0.000
REMARK  2 active torsions:
REMARK  status: ('A' for Active; 'I' for Inactive)
REMARK    1  A    between atoms: C_5  and  C_1 
REMARK       I    between atoms: N_7  and  C_5 
REMARK    2  A    between atoms: C_9  and  N_7 
ROOT
ATOM      1  C   UNL d   1      32.716  16.812 -23.820  0.00  0.00     0.161 A 
ATOM      2  C   UNL d   1      32.910  17.249 -24.463  0.00  0.00     0.072 A 
ATOM      3  O   UNL d   1      32.641  17.184 -23.048  0.00  0.00    -0.302 OA
ATOM      4  C   UNL d   1      33.040  18.054 -24.406  0.00  0.00     0.200 A 
ATOM      5  C   UNL d   1      32.973  18.437 -23.669  0.00  0.00     0.062 A 
ATOM      6  C   UNL d   1      32.777  18.002 -23.013  0.00  0.00     0.103 A 
ATOM      7  O   UNL d   1      33.241  18.479 -25.097  0.00  0.00    -0.286 OA
ATOM      8  C   UNL d   1      33.104  19.259 -23.596  0.00  0.00     0.005 A 
ATOM      9  C   UNL d   1      32.709  18.392 -22.264  0.00  0.00     0.025 A 
ATOM     10  C   UNL d   1      33.032  19.624 -22.855  0.00  0.00     0.000 A 
ATOM     11  C   UNL d   1      32.839  19.197 -22.207  0.00  0.00     0.002 A 
ENDROOT
BRANCH   1  12
ATOM     12  C   UNL d   1      32.589  15.971 -23.929  0.00  0.00     0.302 C 
ATOM     13  N   UNL d   1      31.840  15.680 -24.117  0.00  0.00    -0.206 NA
ATOM     14  O   UNL d   1      33.239  15.453 -23.842  0.00  0.00    -0.263 OA
BRANCH  13  15
ATOM     15  C   UNL d   1      31.216  16.205 -24.198  0.00  0.00     0.085 A 
ATOM     16  C   UNL d   1      30.587  16.180 -23.664  0.00  0.00     0.018 A 
ATOM     17  C   UNL d   1      29.958  16.694 -23.730  0.00  0.00     0.002 A 
ATOM     18  C   UNL d   1      30.597  15.607 -23.035  0.00  0.00     0.002 C 
ATOM     19  C   UNL d   1      29.951  17.246 -24.337  0.00  0.00     0.000 A 
ATOM     20  C   UNL d   1      30.577  17.277 -24.875  0.00  0.00     0.002 A 
ATOM     21  C   UNL d   1      29.307  17.786 -24.419  0.00  0.00     0.000 C 
ATOM     22  C   UNL d   1      31.201  16.752 -24.794  0.00  0.00     0.019 A 
ENDBRANCH  13  15
ENDBRANCH   1  12
TORSDOF 2
ENDMDL
MODEL 2
REMARK VINA RESULT:      -1.0      1.168      3.124
REMARK  2 active torsions:
REMARK  status: ('A' for Active; 'I' for Inactive)
REMARK    1  A    between atoms: C_5  and  C_1 
REMARK       I    between atoms: N_7  and  C_5 
REMARK    2  A    between atoms: C_9  and  N_7 
ROOT
ATOM      1  C   UNL d   1      32.153  16.741 -23.262  0.00  0.00     0.161 A 
ATOM      2  C   UNL d   1      32.324  16.262 -23.880  0.00  0.00     0.072 A 
ATOM      3  O   UNL d   1      31.378  17.108 -23.197  0.00  0.00    -0.302 OA
ATOM      4  C   UNL d   1      31.772  16.107 -24.463  0.00  0.00     0.200 A 
ATOM      5  C   UNL d   1      31.014  16.450 -24.422  0.00  0.00     0.062 A 
ATOM      6  C   UNL d   1      30.833  16.936 -23.800  0.00  0.00     0.103 A 
ATOM      7  O   UNL d   1      31.984  15.601 -25.094  0.00  0.00    -0.286 OA
ATOM      8  C   UNL d   1      30.440  16.300 -25.011  0.00  0.00     0.005 A 
ATOM      9  C   UNL d   1      30.062  17.285 -23.759  0.00  0.00     0.025 A 
ATOM     10  C   UNL d   1      29.690  16.649 -24.954  0.00  0.00     0.000 A 
ATOM     11  C   UNL d   1      29.510  17.130 -24.341  0.00  0.00     0.002 A 
ENDROOT
BRANCH   1  12
ATOM     12  C   UNL d   1      32.765  16.875 -22.675  0.00  0.00     0.302 C 
ATOM     13  N   UNL d   1      33.235  17.552 -22.705  0.00  0.00    -0.206 NA
ATOM     14  O   UNL d   1      32.873  16.304 -22.074  0.00  0.00    -0.263 OA
BRANCH  13  15
ATOM     15  C   UNL d   1      33.112  18.098 -23.303  0.00  0.00     0.085 A 
ATOM     16  C   UNL d   1      32.858  18.861 -23.116  0.00  0.00     0.018 A 
ATOM     17  C   UNL d   1      32.731  19.417 -23.697  0.00  0.00     0.002 A 
ATOM     18  C   UNL d   1      32.727  19.068 -22.301  0.00  0.00     0.002 C 
ATOM     19  C   UNL d   1      32.858  19.215 -24.482  0.00  0.00     0.000 A 
ATOM     20  C   UNL d   1      33.112  18.455 -24.677  0.00  0.00     0.002 A 
ATOM     21  C   UNL d   1      32.730  19.781 -25.097  0.00  0.00     0.000 C 
ATOM     22  C   UNL d   1      33.235  17.907 -24.080  0.00  0.00     0.019 A 
ENDBRANCH  13  15
ENDBRANCH   1  12
TORSDOF 2
ENDMDL
