MODEL 1
REMARK VINA RESULT:      -8.6      0.000      0.000
REMARK  3 active torsions:
REMARK  status: ('A' for Active; 'I' for Inactive)
REMARK    1  A    between atoms: C_3  and  N_1 
REMARK    2  A    between atoms: N_2  and  C_4 
REMARK    3  A    between atoms: C_7  and  C_8 
ROOT
ATOM      1  C   UNL d   1     -47.022  12.606  23.069  0.00  0.00     0.146 A 
ATOM      2  C   UNL d   1     -47.684  12.994  22.751  0.00  0.00     0.025 A 
ATOM      3  C   UNL d   1     -48.428  12.618  22.747  0.00  0.00     0.002 A 
ATOM      4  C   UNL d   1     -47.103  11.837  23.386  0.00  0.00     0.125 A 
ATOM      5  C   UNL d   1     -48.509  11.856  23.062  0.00  0.00     0.002 A 
ATOM      6  C   UNL d   1     -47.848  11.461  23.383  0.00  0.00     0.023 A 
ATOM      7  N   UNL d   1     -46.457  11.456  23.698  0.00  0.00    -0.146 N 
ENDROOT
BRANCH   3   8
ATOM      8  C   UNL d   1     -49.084  13.001  22.432  0.00  0.00     0.002 A 
ATOM      9  C   UNL d   1     -49.380  13.681  22.792  0.00  0.00     0.025 A 
ATOM     10  C   UNL d   1     -50.037  14.061  22.473  0.00  0.00     0.146 A 
ATOM     11  C   UNL d   1     -50.399  13.764  21.795  0.00  0.00     0.125 A 
ATOM     12  C   UNL d   1     -50.103  13.085  21.435  0.00  0.00     0.023 A 
ATOM     13  N   UNL d   1     -51.050  14.144  21.482  0.00  0.00    -0.146 N 
ATOM     14  C   UNL d   1     -49.444  12.702  21.753  0.00  0.00     0.002 A 
BRANCH  10  15
ATOM     15  N   UNL d   1     -50.332  14.737  22.831  0.00  0.00    -0.112 N 
ATOM     16  O   UNL d   1     -50.156  15.510  22.605  0.00  0.00    -0.532 OA
ATOM     17  O   UNL d   1     -50.843  14.728  23.465  0.00  0.00    -0.532 OA
ENDBRANCH  10  15
ENDBRANCH   3   8
BRANCH   1  18
ATOM     18  N   UNL d   1     -46.296  12.972  23.072  0.00  0.00    -0.112 N 
ATOM     19  O   UNL d   1     -45.755  12.946  22.448  0.00  0.00    -0.532 OA
ATOM     20  O   UNL d   1     -46.019  13.408  23.694  0.00  0.00    -0.532 OA
ENDBRANCH   1  18
TORSDOF 3
ENDMDL
MODEL 2
REMARK VINA RESULT:      -8.5      0.159      3.911
REMARK  3 active torsions:
REMARK  status: ('A' for Active; 'I' for Inactive)
REMARK    1  A    between atoms: C_3  and  N_1 
REMARK    2  A    between atoms: N_2  and  C_4 
REMARK    3  A    between atoms: C_7  and  C_8 
ROOT
ATOM      1  C   UNL d   1     -49.943  14.118  22.479  0.00  0.00     0.146 A 
ATOM      2  C   UNL d   1     -49.268  13.753  22.796  0.00  0.00     0.025 A 
ATOM      3  C   UNL d   1     -48.965  13.058  22.447  0.00  0.00     0.002 A 
ATOM      4  C   UNL d   1     -50.320  13.789  21.810  0.00  0.00     0.125 A 
ATOM      5  C   UNL d   1     -49.339  12.731  21.783  0.00  0.00     0.002 A 
ATOM      6  C   UNL d   1     -50.017  13.094  21.462  0.00  0.00     0.023 A 
ATOM      7  N   UNL d   1     -50.981  14.146  21.500  0.00  0.00    -0.146 N 
ENDROOT
BRANCH   3   8
ATOM      8  C   UNL d   1     -48.297  12.696  22.759  0.00  0.00     0.002 A 
ATOM      9  C   UNL d   1     -47.560  13.061  22.700  0.00  0.00     0.025 A 
ATOM     10  C   UNL d   1     -46.894  12.693  23.014  0.00  0.00     0.146 A 
ATOM     11  C   UNL d   1     -46.960  11.962  23.387  0.00  0.00     0.125 A 
ATOM     12  C   UNL d   1     -47.697  11.597  23.446  0.00  0.00     0.023 A 
ATOM     13  N   UNL d   1     -46.297  11.601  23.698  0.00  0.00    -0.146 N 
ATOM     14  C   UNL d   1     -48.367  11.963  23.132  0.00  0.00     0.002 A 
BRANCH  10  15
ATOM     15  N   UNL d   1     -46.161  13.057  22.955  0.00  0.00    -0.112 N 
ATOM     16  O   UNL d   1     -45.636  12.970  22.326  0.00  0.00    -0.532 OA
ATOM     17  O   UNL d   1     -45.856  13.558  23.521  0.00  0.00    -0.532 OA
ENDBRANCH  10  15
ENDBRANCH   3   8
BRANCH   1  18
ATOM     18  N   UNL d   1     -50.238  14.795  22.819  0.00  0.00    -0.112 N 
ATOM     19  O   UNL d   1     -50.755  14.810  23.464  0.00  0.00    -0.532 OA
ATOM     20  O   UNL d   1     -50.056  15.540  22.562  0.00  0.00    -0.532 OA
ENDBRANCH   1  18
TORSDOF 3
ENDMDL
MODEL 3
REMARK VINA RESULT:      -7.6      1.472      2.123
REMARK  3 active torsions:
REMARK  status: ('A' for Active; 'I' for Inactive)
REMARK    1  A    between atoms: C_3  and  N_1 
REMARK    2  A    between atoms: N_2  and  C_4 
REMARK    3  A    between atoms: C_7  and  C_8 
ROOT
ATOM      1  C   UNL d   1     -46.346  13.184  22.791  0.00  0.00     0.146 A 
ATOM      2  C   UNL d   1     -47.068  12.783  22.876  0.00  0.00     0.025 A 
ATOM      3  C   UNL d   1     -47.782  13.212  22.921  0.00  0.00     0.002 A 
ATOM      4  C   UNL d   1     -46.334  14.018  22.752  0.00  0.00     0.125 A 
ATOM      5  C   UNL d   1     -47.771  14.040  22.882  0.00  0.00     0.002 A 
ATOM      6  C   UNL d   1     -47.048  14.447  22.797  0.00  0.00     0.023 A 
ATOM      7  N   UNL d   1     -45.628  14.411  22.669  0.00  0.00    -0.146 N 
ENDROOT
BRANCH   3   8
ATOM      8  C   UNL d   1     -48.498  12.817  23.005  0.00  0.00     0.002 A 
ATOM      9  C   UNL d   1     -49.119  12.969  22.486  0.00  0.00     0.025 A 
ATOM     10  C   UNL d   1     -49.834  12.571  22.574  0.00  0.00     0.146 A 
ATOM     11  C   UNL d   1     -49.931  12.021  23.179  0.00  0.00     0.125 A 
ATOM     12  C   UNL d   1     -49.310  11.868  23.698  0.00  0.00     0.023 A 
ATOM     13  N   UNL d   1     -50.642  11.627  23.263  0.00  0.00    -0.146 N 
ATOM     14  C   UNL d   1     -48.591  12.266  23.612  0.00  0.00     0.002 A 
BRANCH  10  15
ATOM     15  N   UNL d   1     -50.453  12.723  22.058  0.00  0.00    -0.112 N 
ATOM     16  O   UNL d   1     -51.064  13.260  22.191  0.00  0.00    -0.532 OA
ATOM     17  O   UNL d   1     -50.542  12.355  21.335  0.00  0.00    -0.532 OA
ENDBRANCH  10  15
ENDBRANCH   3   8
BRANCH   1  18
ATOM     18  N   UNL d   1     -45.650  12.766  22.747  0.00  0.00    -0.112 N 
ATOM     19  O   UNL d   1     -45.394  12.220  23.313  0.00  0.00    -0.532 OA
ATOM     20  O   UNL d   1     -45.124  12.837  22.137  0.00  0.00    -0.532 OA
ENDBRANCH   1  18
TORSDOF 3
ENDMDL
