MODEL 1
REMARK VINA RESULT:      -2.9      0.000      0.000
REMARK  6 active torsions:
REMARK  status: ('A' for Active; 'I' for Inactive)
REMARK    1  A    between atoms: C_2  and  S_1 
REMARK    2  A    between atoms: N_4  and  S_1 
REMARK    3  A    between atoms: C_12  and  N_4 
REMARK    4  A    between atoms: O_14  and  C_6 
REMARK    5  A    between atoms: C_13  and  C_12 
REMARK    6  A    between atoms: C_18  and  O_14 
ROOT
ATOM      1  C   UNL d   1     -41.655-122.643 -51.413  0.00  0.00     0.107 A 
ATOM      2  C   UNL d   1     -41.691-123.138 -52.075  0.00  0.00     0.038 A 
ATOM      3  C   UNL d   1     -41.442-121.853 -51.502  0.00  0.00     0.012 A 
ATOM      4  C   UNL d   1     -41.513-122.836 -52.830  0.00  0.00     0.101 A 
ATOM      5  C   UNL d   1     -41.264-121.551 -52.257  0.00  0.00     0.003 A 
ATOM      6  C   UNL d   1     -41.299-122.041 -52.917  0.00  0.00     0.023 A 
ATOM      7  C   UNL d   1     -41.404-121.355 -50.838  0.00  0.00     0.001 C 
ATOM      8  C   UNL d   1     -41.123-121.742 -53.665  0.00  0.00     0.002 C 
ENDROOT
BRANCH   1   9
ATOM      9  S   UNL d   1     -41.831-122.943 -50.665  0.00  0.00     0.285 S 
ATOM     10  O   UNL d   1     -41.192-123.460 -50.721  0.00  0.00    -0.198 OA
ATOM     11  O   UNL d   1     -42.475-122.422 -50.608  0.00  0.00    -0.198 OA
BRANCH   9  12
ATOM     12  N   UNL d   1     -42.008-123.242 -49.916  0.00  0.00    -0.155 NA
BRANCH  12  13
ATOM     13  C   UNL d   1     -41.443-123.204 -49.314  0.00  0.00     0.131 C 
BRANCH  13  14
ATOM     14  C   UNL d   1     -41.665-123.350 -48.532  0.00  0.00     0.101 A 
ATOM     15  N   UNL d   1     -41.138-123.196 -47.918  0.00  0.00    -0.242 NA
ATOM     16  C   UNL d   1     -41.361-123.341 -47.137  0.00  0.00     0.099 A 
ATOM     17  C   UNL d   1     -42.109-123.641 -46.970  0.00  0.00     0.021 A 
ATOM     18  C   UNL d   1     -42.640-123.796 -47.585  0.00  0.00     0.003 A 
ATOM     19  C   UNL d   1     -42.418-123.650 -48.366  0.00  0.00     0.021 A 
ENDBRANCH  13  14
ENDBRANCH  12  13
ENDBRANCH   9  12
ENDBRANCH   1   9
BRANCH   4  20
ATOM     20  O   UNL d   1     -41.549-123.327 -53.491  0.00  0.00    -0.305 OA
BRANCH  20  21
ATOM     21  C   UNL d   1     -42.186-123.270 -54.009  0.00  0.00     0.123 C 
ATOM     22  C   UNL d   1     -42.265-123.814 -54.623  0.00  0.00     0.029 C 
ENDBRANCH  20  21
ENDBRANCH   4  20
TORSDOF 6
ENDMDL
MODEL 2
REMARK VINA RESULT:      -2.8      1.383      1.967
REMARK  6 active torsions:
REMARK  status: ('A' for Active; 'I' for Inactive)
REMARK    1  A    between atoms: C_2  and  S_1 
REMARK    2  A    between atoms: N_4  and  S_1 
REMARK    3  A    between atoms: C_12  and  N_4 
REMARK    4  A    between atoms: O_14  and  C_6 
REMARK    5  A    between atoms: C_13  and  C_12 
REMARK    6  A    between atoms: C_18  and  O_14 
ROOT
ATOM      1  C   UNL d   1     -41.643-122.563 -52.598  0.00  0.00     0.107 A 
ATOM      2  C   UNL d   1     -41.817-122.047 -53.221  0.00  0.00     0.038 A 
ATOM      3  C   UNL d   1     -41.301-123.296 -52.755  0.00  0.00     0.012 A 
ATOM      4  C   UNL d   1     -41.645-122.269 -54.005  0.00  0.00     0.101 A 
ATOM      5  C   UNL d   1     -41.129-123.517 -53.539  0.00  0.00     0.003 A 
ATOM      6  C   UNL d   1     -41.301-123.005 -54.160  0.00  0.00     0.023 A 
ATOM      7  C   UNL d   1     -41.127-123.816 -52.131  0.00  0.00     0.001 C 
ATOM      8  C   UNL d   1     -41.130-123.225 -54.937  0.00  0.00     0.002 C 
ENDROOT
BRANCH   1   9
ATOM      9  S   UNL d   1     -41.814-122.344 -51.822  0.00  0.00     0.285 S 
ATOM     10  O   UNL d   1     -41.151-121.854 -51.815  0.00  0.00    -0.198 OA
ATOM     11  O   UNL d   1     -42.481-122.837 -51.829  0.00  0.00    -0.198 OA
BRANCH   9  12
ATOM     12  N   UNL d   1     -41.984-122.124 -51.045  0.00  0.00    -0.155 NA
BRANCH  12  13
ATOM     13  C   UNL d   1     -42.705-122.342 -50.704  0.00  0.00     0.131 C 
BRANCH  13  14
ATOM     14  C   UNL d   1     -42.736-122.553 -49.907  0.00  0.00     0.101 A 
ATOM     15  N   UNL d   1     -43.367-123.001 -49.622  0.00  0.00    -0.242 NA
ATOM     16  C   UNL d   1     -43.397-123.212 -48.825  0.00  0.00     0.099 A 
ATOM     17  C   UNL d   1     -42.798-122.976 -48.313  0.00  0.00     0.021 A 
ATOM     18  C   UNL d   1     -42.164-122.526 -48.596  0.00  0.00     0.003 A 
ATOM     19  C   UNL d   1     -42.133-122.315 -49.393  0.00  0.00     0.021 A 
ENDBRANCH  13  14
ENDBRANCH  12  13
ENDBRANCH   9  12
ENDBRANCH   1   9
BRANCH   4  20
ATOM     20  O   UNL d   1     -41.816-121.755 -54.627  0.00  0.00    -0.305 OA
BRANCH  20  21
ATOM     21  C   UNL d   1     -42.582-121.718 -54.926  0.00  0.00     0.123 C 
ATOM     22  C   UNL d   1     -42.752-121.211 -55.554  0.00  0.00     0.029 C 
ENDBRANCH  20  21
ENDBRANCH   4  20
TORSDOF 6
ENDMDL
MODEL 3
REMARK VINA RESULT:      -2.5      1.708      4.691
REMARK  6 active torsions:
REMARK  status: ('A' for Active; 'I' for Inactive)
REMARK    1  A    between atoms: C_2  and  S_1 
REMARK    2  A    between atoms: N_4  and  S_1 
REMARK    3  A    between atoms: C_12  and  N_4 
REMARK    4  A    between atoms: O_14  and  C_6 
REMARK    5  A    between atoms: C_13  and  C_12 
REMARK    6  A    between atoms: C_18  and  O_14 
ROOT
ATOM      1  C   UNL d   1     -41.750-122.377 -51.044  0.00  0.00     0.107 A 
ATOM      2  C   UNL d   1     -42.122-123.032 -50.701  0.00  0.00     0.038 A 
ATOM      3  C   UNL d   1     -41.501-121.751 -50.572  0.00  0.00     0.012 A 
ATOM      4  C   UNL d   1     -42.243-123.055 -49.877  0.00  0.00     0.101 A 
ATOM      5  C   UNL d   1     -41.622-121.775 -49.748  0.00  0.00     0.003 A 
ATOM      6  C   UNL d   1     -41.992-122.425 -49.404  0.00  0.00     0.023 A 
ATOM      7  C   UNL d   1     -41.127-121.093 -50.916  0.00  0.00     0.001 C 
ATOM      8  C   UNL d   1     -42.112-122.448 -48.588  0.00  0.00     0.002 C 
ENDROOT
BRANCH   1   9
ATOM      9  S   UNL d   1     -41.630-122.354 -51.860  0.00  0.00     0.285 S 
ATOM     10  O   UNL d   1     -41.131-123.007 -51.806  0.00  0.00    -0.198 OA
ATOM     11  O   UNL d   1     -42.132-121.696 -51.915  0.00  0.00    -0.198 OA
BRANCH   9  12
ATOM     12  N   UNL d   1     -41.509-122.330 -52.676  0.00  0.00    -0.155 NA
BRANCH  12  13
ATOM     13  C   UNL d   1     -42.077-122.650 -53.186  0.00  0.00     0.131 C 
BRANCH  13  14
ATOM     14  C   UNL d   1     -42.004-122.545 -54.001  0.00  0.00     0.101 A 
ATOM     15  N   UNL d   1     -41.611-123.108 -54.456  0.00  0.00    -0.242 NA
ATOM     16  C   UNL d   1     -41.537-123.003 -55.271  0.00  0.00     0.099 A 
ATOM     17  C   UNL d   1     -41.857-122.334 -55.631  0.00  0.00     0.021 A 
ATOM     18  C   UNL d   1     -42.252-121.768 -55.176  0.00  0.00     0.003 A 
ATOM     19  C   UNL d   1     -42.325-121.873 -54.361  0.00  0.00     0.021 A 
ENDBRANCH  13  14
ENDBRANCH  12  13
ENDBRANCH   9  12
ENDBRANCH   1   9
BRANCH   4  20
ATOM     20  O   UNL d   1     -42.613-123.706 -49.532  0.00  0.00    -0.305 OA
BRANCH  20  21
ATOM     21  C   UNL d   1     -43.430-123.706 -49.430  0.00  0.00     0.123 C 
ATOM     22  C   UNL d   1     -43.748-123.809 -48.677  0.00  0.00     0.029 C 
ENDBRANCH  20  21
ENDBRANCH   4  20
TORSDOF 6
ENDMDL
