MODEL 1
REMARK VINA RESULT:      -9.4      0.000      0.000
REMARK  5 active torsions:
REMARK  status: ('A' for Active; 'I' for Inactive)
REMARK    1  A    between atoms: N_2  and  S_1 
REMARK    2  A    between atoms: C_4  and  S_1 
REMARK    3  A    between atoms: C_3  and  C_8 
REMARK       I    between atoms: N_7  and  C_3 
REMARK    4  A    between atoms: C_16  and  N_7 
REMARK    5  A    between atoms: C_15  and  C_16 
ROOT
ATOM      1  C   UNL d   1      52.058  33.881  53.310  0.00  0.00     0.104 A 
ATOM      2  C   UNL d   1      50.641  34.249  52.554  0.00  0.00     0.058 A 
ATOM      3  C   UNL d   1      51.347  33.568  53.588  0.00  0.00     0.013 A 
ATOM      4  C   UNL d   1      52.050  34.387  52.640  0.00  0.00     0.013 A 
ATOM      5  C   UNL d   1      50.639  33.742  53.223  0.00  0.00     0.005 A 
ATOM      6  C   UNL d   1      51.327  34.565  52.267  0.00  0.00     0.005 A 
ENDROOT
BRANCH   2   7
ATOM      7  C   UNL d   1      49.904  34.441  52.160  0.00  0.00     0.279 C 
ATOM      8  N   UNL d   1      49.365  34.937  52.554  0.00  0.00    -0.206 NA
ATOM      9  O   UNL d   1      49.750  34.142  51.427  0.00  0.00    -0.265 OA
BRANCH   8  10
ATOM     10  C   UNL d   1      48.662  35.125  52.188  0.00  0.00     0.104 C 
BRANCH  10  11
ATOM     11  C   UNL d   1      48.152  35.647  52.543  0.00  0.00     0.038 A 
ATOM     12  C   UNL d   1      47.531  35.994  52.112  0.00  0.00     0.101 A 
ATOM     13  N   UNL d   1      47.021  36.516  52.467  0.00  0.00    -0.242 NA
ATOM     14  C   UNL d   1      47.116  36.709  53.266  0.00  0.00     0.099 A 
ATOM     15  C   UNL d   1      47.724  36.372  53.699  0.00  0.00     0.021 A 
ATOM     16  C   UNL d   1      48.247  35.833  53.326  0.00  0.00     0.005 A 
ENDBRANCH  10  11
ENDBRANCH   8  10
ENDBRANCH   2   7
BRANCH   1  17
ATOM     17  S   UNL d   1      52.780  33.703  53.683  0.00  0.00     0.271 S 
ATOM     18  O   UNL d   1      52.593  32.892  53.667  0.00  0.00    -0.200 OA
ATOM     19  O   UNL d   1      52.973  34.535  53.700  0.00  0.00    -0.200 OA
BRANCH  17  20
ATOM     20  N   UNL d   1      53.507  33.528  54.058  0.00  0.00    -0.229 N 
ATOM     21  C   UNL d   1      54.059  33.064  53.662  0.00  0.00     0.092 A 
ATOM     22  C   UNL d   1      54.767  32.894  54.029  0.00  0.00     0.020 A 
ATOM     23  C   UNL d   1      54.912  33.197  54.800  0.00  0.00     0.003 A 
ATOM     24  C   UNL d   1      54.358  33.653  55.180  0.00  0.00     0.020 A 
ATOM     25  C   UNL d   1      53.653  33.818  54.805  0.00  0.00     0.092 A 
ENDBRANCH  17  20
ENDBRANCH   1  17
TORSDOF 5
ENDMDL
MODEL 2
REMARK VINA RESULT:      -9.4      1.191      5.603
REMARK  5 active torsions:
REMARK  status: ('A' for Active; 'I' for Inactive)
REMARK    1  A    between atoms: N_2  and  S_1 
REMARK    2  A    between atoms: C_4  and  S_1 
REMARK    3  A    between atoms: C_3  and  C_8 
REMARK       I    between atoms: N_7  and  C_3 
REMARK    4  A    between atoms: C_16  and  N_7 
REMARK    5  A    between atoms: C_15  and  C_16 
ROOT
ATOM      1  C   UNL d   1      50.258  34.301  52.592  0.00  0.00     0.104 A 
ATOM      2  C   UNL d   1      51.649  33.448  52.822  0.00  0.00     0.058 A 
ATOM      3  C   UNL d   1      50.933  34.485  52.154  0.00  0.00     0.013 A 
ATOM      4  C   UNL d   1      50.289  33.677  53.153  0.00  0.00     0.013 A 
ATOM      5  C   UNL d   1      51.627  34.070  52.259  0.00  0.00     0.005 A 
ATOM      6  C   UNL d   1      50.998  33.254  53.260  0.00  0.00     0.005 A 
ENDROOT
BRANCH   2   7
ATOM      7  C   UNL d   1      52.373  33.005  52.942  0.00  0.00     0.279 C 
ATOM      8  N   UNL d   1      52.880  33.240  53.557  0.00  0.00    -0.206 NA
ATOM      9  O   UNL d   1      52.544  32.378  52.464  0.00  0.00    -0.265 OA
BRANCH   8  10
ATOM     10  C   UNL d   1      53.570  32.824  53.679  0.00  0.00     0.104 C 
BRANCH  10  11
ATOM     11  C   UNL d   1      54.080  33.058  54.265  0.00  0.00     0.038 A 
ATOM     12  C   UNL d   1      53.961  32.819  55.054  0.00  0.00     0.101 A 
ATOM     13  N   UNL d   1      54.470  33.053  55.640  0.00  0.00    -0.242 NA
ATOM     14  C   UNL d   1      55.118  33.534  55.457  0.00  0.00     0.099 A 
ATOM     15  C   UNL d   1      55.245  33.775  54.685  0.00  0.00     0.021 A 
ATOM     16  C   UNL d   1      54.714  33.530  54.084  0.00  0.00     0.005 A 
ENDBRANCH  10  11
ENDBRANCH   8  10
ENDBRANCH   2   7
BRANCH   1  17
ATOM     17  S   UNL d   1      49.548  34.724  52.485  0.00  0.00     0.271 S 
ATOM     18  O   UNL d   1      49.490  34.437  51.706  0.00  0.00    -0.200 OA
ATOM     19  O   UNL d   1      49.608  35.019  53.285  0.00  0.00    -0.200 OA
BRANCH  17  20
ATOM     20  N   UNL d   1      48.837  35.150  52.381  0.00  0.00    -0.229 N 
ATOM     21  C   UNL d   1      48.398  35.034  51.694  0.00  0.00     0.092 A 
ATOM     22  C   UNL d   1      47.704  35.450  51.595  0.00  0.00     0.020 A 
ATOM     23  C   UNL d   1      47.457  35.985  52.195  0.00  0.00     0.003 A 
ATOM     24  C   UNL d   1      47.899  36.090  52.867  0.00  0.00     0.020 A 
ATOM     25  C   UNL d   1      48.592  35.669  52.959  0.00  0.00     0.092 A 
ENDBRANCH  17  20
ENDBRANCH   1  17
TORSDOF 5
ENDMDL
