MODEL 1
REMARK VINA RESULT:      -9.8      0.000      0.000
REMARK  5 active torsions:
REMARK  status: ('A' for Active; 'I' for Inactive)
REMARK    1  A    between atoms: C_4  and  S_1 
REMARK    2  A    between atoms: N_6  and  S_1 
REMARK    3  A    between atoms: C_2  and  C_14 
REMARK    4  A    between atoms: C_7  and  C_16 
REMARK       I    between atoms: N_11  and  C_7 
REMARK    5  A    between atoms: C_26  and  N_11 
ROOT
ATOM      1  C   UNL d   1      49.242  35.118  52.776  0.00  0.00     0.279 C 
ATOM      2  N   UNL d   1      49.640  34.458  52.490  0.00  0.00    -0.208 NA
ATOM      3  O   UNL d   1      49.588  35.593  53.348  0.00  0.00    -0.265 OA
ENDROOT
BRANCH   1   4
ATOM      4  C   UNL d   1      48.491  35.302  52.486  0.00  0.00     0.061 A 
ATOM      5  C   UNL d   1      48.306  35.159  51.683  0.00  0.00     0.025 A 
ATOM      6  C   UNL d   1      47.555  35.344  51.393  0.00  0.00     0.092 A 
ATOM      7  N   UNL d   1      46.985  35.671  51.898  0.00  0.00    -0.229 N 
ATOM      8  C   UNL d   1      47.170  35.812  52.692  0.00  0.00     0.092 A 
ATOM      9  C   UNL d   1      47.917  35.630  52.989  0.00  0.00     0.025 A 
BRANCH   7  10
ATOM     10  S   UNL d   1      46.231  35.858  51.611  0.00  0.00     0.277 S 
ATOM     11  O   UNL d   1      46.142  35.071  51.400  0.00  0.00    -0.199 OA
ATOM     12  O   UNL d   1      46.327  36.652  51.827  0.00  0.00    -0.199 OA
BRANCH  10  13
ATOM     13  C   UNL d   1      45.482  36.003  51.318  0.00  0.00     0.133 A 
ATOM     14  S   UNL d   1      45.028  36.687  51.435  0.00  0.00    -0.074 SA
ATOM     15  C   UNL d   1      44.315  36.595  51.042  0.00  0.00     0.036 A 
ATOM     16  C   UNL d   1      44.314  35.855  50.674  0.00  0.00     0.008 A 
ATOM     17  C   UNL d   1      45.034  35.490  50.844  0.00  0.00     0.020 A 
ENDBRANCH  10  13
ENDBRANCH   7  10
ENDBRANCH   1   4
BRANCH   2  18
ATOM     18  C   UNL d   1      50.389  34.270  52.777  0.00  0.00     0.085 A 
ATOM     19  C   UNL d   1      50.468  33.693  53.368  0.00  0.00     0.019 A 
ATOM     20  C   UNL d   1      51.222  33.518  53.643  0.00  0.00     0.004 A 
ATOM     21  C   UNL d   1      51.867  33.906  53.338  0.00  0.00     0.024 A 
ATOM     22  C   UNL d   1      51.776  34.472  52.757  0.00  0.00     0.004 A 
ATOM     23  C   UNL d   1      51.045  34.654  52.478  0.00  0.00     0.019 A 
BRANCH  21  24
ATOM     24  C   UNL d   1      52.617  33.719  53.625  0.00  0.00     0.111 A 
ATOM     25  N   UNL d   1      52.972  34.033  54.310  0.00  0.00    -0.239 NA
ATOM     26  C   UNL d   1      53.725  33.693  54.392  0.00  0.00     0.088 A 
ATOM     27  C   UNL d   1      54.316  33.791  54.955  0.00  0.00     0.020 A 
ATOM     28  C   UNL d   1      53.833  33.174  53.762  0.00  0.00     0.049 A 
ATOM     29  C   UNL d   1      55.022  33.367  54.887  0.00  0.00     0.002 A 
ATOM     30  C   UNL d   1      55.133  32.846  54.257  0.00  0.00     0.001 A 
ATOM     31  C   UNL d   1      54.542  32.746  53.692  0.00  0.00     0.008 A 
ATOM     32  S   UNL d   1      53.156  33.177  53.278  0.00  0.00    -0.066 SA
ENDBRANCH  21  24
ENDBRANCH   2  18
TORSDOF 5
ENDMDL
MODEL 2
REMARK VINA RESULT:      -8.6      1.309      7.450
REMARK  5 active torsions:
REMARK  status: ('A' for Active; 'I' for Inactive)
REMARK    1  A    between atoms: C_4  and  S_1 
REMARK    2  A    between atoms: N_6  and  S_1 
REMARK    3  A    between atoms: C_2  and  C_14 
REMARK    4  A    between atoms: C_7  and  C_16 
REMARK       I    between atoms: N_11  and  C_7 
REMARK    5  A    between atoms: C_26  and  N_11 
ROOT
ATOM      1  C   UNL d   1      50.182  34.234  52.786  0.00  0.00     0.279 C 
ATOM      2  N   UNL d   1      49.918  35.012  52.796  0.00  0.00    -0.208 NA
ATOM      3  O   UNL d   1      49.683  33.632  52.541  0.00  0.00    -0.265 OA
ENDROOT
BRANCH   1   4
ATOM      4  C   UNL d   1      50.953  34.060  53.024  0.00  0.00     0.061 A 
ATOM      5  C   UNL d   1      51.570  34.604  52.876  0.00  0.00     0.025 A 
ATOM      6  C   UNL d   1      52.342  34.429  53.114  0.00  0.00     0.092 A 
ATOM      7  N   UNL d   1      52.504  33.714  53.500  0.00  0.00    -0.229 N 
ATOM      8  C   UNL d   1      51.892  33.177  53.645  0.00  0.00     0.092 A 
ATOM      9  C   UNL d   1      51.120  33.344  53.411  0.00  0.00     0.025 A 
BRANCH   7  10
ATOM     10  S   UNL d   1      53.276  33.535  53.740  0.00  0.00     0.277 S 
ATOM     11  O   UNL d   1      53.127  33.937  54.439  0.00  0.00    -0.199 OA
ATOM     12  O   UNL d   1      53.420  33.130  53.032  0.00  0.00    -0.199 OA
BRANCH  10  13
ATOM     13  C   UNL d   1      54.030  33.378  54.012  0.00  0.00     0.133 A 
ATOM     14  S   UNL d   1      54.317  33.502  54.780  0.00  0.00    -0.074 SA
ATOM     15  C   UNL d   1      55.101  33.267  54.805  0.00  0.00     0.036 A 
ATOM     16  C   UNL d   1      55.316  32.995  54.056  0.00  0.00     0.008 A 
ATOM     17  C   UNL d   1      54.655  33.063  53.566  0.00  0.00     0.020 A 
ENDBRANCH  10  13
ENDBRANCH   7  10
ENDBRANCH   1   4
BRANCH   2  18
ATOM     18  C   UNL d   1      49.148  35.191  52.559  0.00  0.00     0.085 A 
ATOM     19  C   UNL d   1      48.641  35.589  53.082  0.00  0.00     0.019 A 
ATOM     20  C   UNL d   1      47.878  35.759  52.831  0.00  0.00     0.004 A 
ATOM     21  C   UNL d   1      47.636  35.539  52.087  0.00  0.00     0.024 A 
ATOM     22  C   UNL d   1      48.144  35.147  51.582  0.00  0.00     0.004 A 
ATOM     23  C   UNL d   1      48.894  34.974  51.814  0.00  0.00     0.019 A 
BRANCH  21  24
ATOM     24  C   UNL d   1      46.866  35.717  51.850  0.00  0.00     0.111 A 
ATOM     25  N   UNL d   1      46.454  35.363  51.218  0.00  0.00    -0.239 NA
ATOM     26  C   UNL d   1      45.699  35.707  51.176  0.00  0.00     0.088 A 
ATOM     27  C   UNL d   1      45.063  35.580  50.672  0.00  0.00     0.020 A 
ATOM     28  C   UNL d   1      45.648  36.268  51.777  0.00  0.00     0.049 A 
ATOM     29  C   UNL d   1      44.369  36.017  50.768  0.00  0.00     0.002 A 
ATOM     30  C   UNL d   1      44.314  36.580  51.369  0.00  0.00     0.001 A 
ATOM     31  C   UNL d   1      44.951  36.709  51.876  0.00  0.00     0.008 A 
ATOM     32  S   UNL d   1      46.362  36.287  52.204  0.00  0.00    -0.066 SA
ENDBRANCH  21  24
ENDBRANCH   2  18
TORSDOF 5
ENDMDL
