MODEL 1
REMARK VINA RESULT:      -5.1      0.000      0.000
REMARK  4 active torsions:
REMARK  status: ('A' for Active; 'I' for Inactive)
REMARK    1  A    between atoms: N_2  and  C_1 
REMARK    2  A    between atoms: C_3  and  C_1 
REMARK       I    between atoms: C_6  and  N_2 
REMARK    3  A    between atoms: S_9  and  C_6 
REMARK    4  A    between atoms: C_14  and  S_9 
ROOT
ATOM      1  C   UNL d   1      58.436   0.192  30.296  0.00  0.00     0.385 A 
ATOM      2  O   UNL d   1      58.838  -0.049  29.632  0.00  0.00    -0.283 OA
ATOM      3  O   UNL d   1      58.994   0.513  30.830  0.00  0.00    -0.283 OA
ATOM      4  C   UNL d   1      59.736   0.460  30.473  0.00  0.00     0.121 A 
ATOM      5  C   UNL d   1      59.639   0.109  29.724  0.00  0.00     0.121 A 
ATOM      6  C   UNL d   1      60.285  -0.014  29.244  0.00  0.00     0.026 A 
ATOM      7  C   UNL d   1      60.478   0.682  30.728  0.00  0.00     0.026 A 
ATOM      8  C   UNL d   1      61.133   0.555  30.235  0.00  0.00     0.002 A 
ATOM      9  C   UNL d   1      61.039   0.214  29.507  0.00  0.00     0.002 A 
ENDROOT
BRANCH   1  10
ATOM     10  N   UNL d   1      57.627   0.172  30.514  0.00  0.00    -0.171 NA
ATOM     11  C   UNL d   1      57.401   0.376  31.281  0.00  0.00     0.310 C 
ATOM     12  O   UNL d   1      57.965   0.598  31.834  0.00  0.00    -0.258 OA
BRANCH  11  13
ATOM     13  S   UNL d   1      56.601   0.355  31.492  0.00  0.00    -0.026 SA
BRANCH  13  14
ATOM     14  C   UNL d   1      56.367  -0.005  32.196  0.00  0.00     0.034 A 
ATOM     15  C   UNL d   1      56.192   0.454  32.859  0.00  0.00     0.007 A 
ATOM     16  C   UNL d   1      55.958   0.093  33.561  0.00  0.00     0.001 A 
ATOM     17  C   UNL d   1      55.900  -0.730  33.602  0.00  0.00     0.000 A 
ATOM     18  C   UNL d   1      56.074  -1.194  32.943  0.00  0.00     0.001 A 
ATOM     19  C   UNL d   1      56.308  -0.828  32.239  0.00  0.00     0.007 A 
ENDBRANCH  13  14
ENDBRANCH  11  13
ENDBRANCH   1  10
BRANCH   1  20
ATOM     20  C   UNL d   1      58.267  -0.158  29.574  0.00  0.00     0.470 C 
ATOM     21  F   UNL d   1      58.093  -0.496  28.836  0.00  0.00    -0.164 F 
ATOM     22  F   UNL d   1      58.149   0.604  29.246  0.00  0.00    -0.164 F 
ATOM     23  F   UNL d   1      58.383  -0.902  29.900  0.00  0.00    -0.164 F 
ENDBRANCH   1  20
TORSDOF 4
ENDMDL
MODEL 2
REMARK VINA RESULT:      -5.1      1.338      1.844
REMARK  4 active torsions:
REMARK  status: ('A' for Active; 'I' for Inactive)
REMARK    1  A    between atoms: N_2  and  C_1 
REMARK    2  A    between atoms: C_3  and  C_1 
REMARK       I    between atoms: C_6  and  N_2 
REMARK    3  A    between atoms: S_9  and  C_6 
REMARK    4  A    between atoms: C_14  and  S_9 
ROOT
ATOM      1  C   UNL d   1      58.349  -0.458  29.985  0.00  0.00     0.385 A 
ATOM      2  O   UNL d   1      58.959  -0.428  29.448  0.00  0.00    -0.283 OA
ATOM      3  O   UNL d   1      58.103  -1.254  30.046  0.00  0.00    -0.283 OA
ATOM      4  C   UNL d   1      58.575  -1.699  29.538  0.00  0.00     0.121 A 
ATOM      5  C   UNL d   1      59.111  -1.182  29.164  0.00  0.00     0.121 A 
ATOM      6  C   UNL d   1      59.650  -1.472  28.626  0.00  0.00     0.026 A 
ATOM      7  C   UNL d   1      58.589  -2.496  29.367  0.00  0.00     0.026 A 
ATOM      8  C   UNL d   1      59.141  -2.787  28.819  0.00  0.00     0.002 A 
ATOM      9  C   UNL d   1      59.661  -2.285  28.456  0.00  0.00     0.002 A 
ENDROOT
BRANCH   1  10
ATOM     10  N   UNL d   1      57.962   0.126  30.445  0.00  0.00    -0.171 NA
ATOM     11  C   UNL d   1      57.379  -0.094  30.986  0.00  0.00     0.310 C 
ATOM     12  O   UNL d   1      57.175  -0.884  31.077  0.00  0.00    -0.258 OA
BRANCH  11  13
ATOM     13  S   UNL d   1      56.999   0.486  31.439  0.00  0.00    -0.026 SA
BRANCH  13  14
ATOM     14  C   UNL d   1      56.774   0.324  32.216  0.00  0.00     0.034 A 
ATOM     15  C   UNL d   1      56.106  -0.136  32.367  0.00  0.00     0.007 A 
ATOM     16  C   UNL d   1      55.884  -0.297  33.143  0.00  0.00     0.001 A 
ATOM     17  C   UNL d   1      56.329   0.002  33.770  0.00  0.00     0.000 A 
ATOM     18  C   UNL d   1      56.998   0.462  33.626  0.00  0.00     0.001 A 
ATOM     19  C   UNL d   1      57.219   0.622  32.844  0.00  0.00     0.007 A 
ENDBRANCH  13  14
ENDBRANCH  11  13
ENDBRANCH   1  10
BRANCH   1  20
ATOM     20  C   UNL d   1      58.845   0.107  29.656  0.00  0.00     0.470 C 
ATOM     21  F   UNL d   1      59.335   0.681  29.310  0.00  0.00    -0.164 F 
ATOM     22  F   UNL d   1      58.286   0.223  29.042  0.00  0.00    -0.164 F 
ATOM     23  F   UNL d   1      59.389  -0.010  30.259  0.00  0.00    -0.164 F 
ENDBRANCH   1  20
TORSDOF 4
ENDMDL
MODEL 3
REMARK VINA RESULT:      -4.6      2.064      4.339
REMARK  4 active torsions:
REMARK  status: ('A' for Active; 'I' for Inactive)
REMARK    1  A    between atoms: N_2  and  C_1 
REMARK    2  A    between atoms: C_3  and  C_1 
REMARK       I    between atoms: C_6  and  N_2 
REMARK    3  A    between atoms: S_9  and  C_6 
REMARK    4  A    between atoms: C_14  and  S_9 
ROOT
ATOM      1  C   UNL d   1      57.589  -0.748  30.908  0.00  0.00     0.385 A 
ATOM      2  O   UNL d   1      57.555  -0.179  31.488  0.00  0.00    -0.283 OA
ATOM      3  O   UNL d   1      57.037  -1.344  31.103  0.00  0.00    -0.283 OA
ATOM      4  C   UNL d   1      56.672  -1.122  31.809  0.00  0.00     0.121 A 
ATOM      5  C   UNL d   1      56.996  -0.394  32.050  0.00  0.00     0.121 A 
ATOM      6  C   UNL d   1      56.737  -0.039  32.736  0.00  0.00     0.026 A 
ATOM      7  C   UNL d   1      56.095  -1.482  32.258  0.00  0.00     0.026 A 
ATOM      8  C   UNL d   1      55.835  -1.117  32.957  0.00  0.00     0.002 A 
ATOM      9  C   UNL d   1      56.149  -0.410  33.191  0.00  0.00     0.002 A 
ENDROOT
BRANCH   1  10
ATOM     10  N   UNL d   1      58.046  -0.826  30.210  0.00  0.00    -0.171 NA
ATOM     11  C   UNL d   1      58.114  -1.562  29.842  0.00  0.00     0.310 C 
ATOM     12  O   UNL d   1      57.736  -2.219  30.156  0.00  0.00    -0.258 OA
BRANCH  11  13
ATOM     13  S   UNL d   1      58.567  -1.636  29.152  0.00  0.00    -0.026 SA
BRANCH  13  14
ATOM     14  C   UNL d   1      59.045  -2.298  29.040  0.00  0.00     0.034 A 
ATOM     15  C   UNL d   1      58.710  -3.018  28.816  0.00  0.00     0.007 A 
ATOM     16  C   UNL d   1      59.189  -3.678  28.704  0.00  0.00     0.001 A 
ATOM     17  C   UNL d   1      60.005  -3.620  28.815  0.00  0.00     0.000 A 
ATOM     18  C   UNL d   1      60.345  -2.903  29.039  0.00  0.00     0.001 A 
ATOM     19  C   UNL d   1      59.862  -2.241  29.151  0.00  0.00     0.007 A 
ENDBRANCH  13  14
ENDBRANCH  11  13
ENDBRANCH   1  10
BRANCH   1  20
ATOM     20  C   UNL d   1      57.952  -0.033  31.084  0.00  0.00     0.470 C 
ATOM     21  F   UNL d   1      58.330   0.682  31.271  0.00  0.00    -0.164 F 
ATOM     22  F   UNL d   1      58.530  -0.448  31.526  0.00  0.00    -0.164 F 
ATOM     23  F   UNL d   1      57.382   0.369  30.650  0.00  0.00    -0.164 F 
ENDBRANCH   1  20
TORSDOF 4
ENDMDL
MODEL 4
REMARK VINA RESULT:      -3.8      1.579      4.185
REMARK  4 active torsions:
REMARK  status: ('A' for Active; 'I' for Inactive)
REMARK    1  A    between atoms: N_2  and  C_1 
REMARK    2  A    between atoms: C_3  and  C_1 
REMARK       I    between atoms: C_6  and  N_2 
REMARK    3  A    between atoms: S_9  and  C_6 
REMARK    4  A    between atoms: C_14  and  S_9 
ROOT
ATOM      1  C   UNL d   1      57.010  -0.109  31.998  0.00  0.00     0.385 A 
ATOM      2  O   UNL d   1      56.404  -0.267  32.517  0.00  0.00    -0.283 OA
ATOM      3  O   UNL d   1      57.614   0.282  32.424  0.00  0.00    -0.283 OA
ATOM      4  C   UNL d   1      57.360   0.354  33.205  0.00  0.00     0.121 A 
ATOM      5  C   UNL d   1      56.603   0.010  33.263  0.00  0.00     0.121 A 
ATOM      6  C   UNL d   1      56.213   0.002  33.978  0.00  0.00     0.026 A 
ATOM      7  C   UNL d   1      57.712   0.682  33.863  0.00  0.00     0.026 A 
ATOM      8  C   UNL d   1      57.310   0.671  34.589  0.00  0.00     0.002 A 
ATOM      9  C   UNL d   1      56.576   0.338  34.646  0.00  0.00     0.002 A 
ENDROOT
BRANCH   1  10
ATOM     10  N   UNL d   1      57.117  -0.259  31.181  0.00  0.00    -0.171 NA
ATOM     11  C   UNL d   1      57.761   0.069  30.782  0.00  0.00     0.310 C 
ATOM     12  O   UNL d   1      58.299   0.543  31.182  0.00  0.00    -0.258 OA
BRANCH  11  13
ATOM     13  S   UNL d   1      57.864  -0.082  29.975  0.00  0.00    -0.026 SA
BRANCH  13  14
ATOM     14  C   UNL d   1      58.612  -0.267  29.679  0.00  0.00     0.034 A 
ATOM     15  C   UNL d   1      58.826  -1.053  29.557  0.00  0.00     0.007 A 
ATOM     16  C   UNL d   1      59.573  -1.236  29.262  0.00  0.00     0.001 A 
ATOM     17  C   UNL d   1      60.108  -0.631  29.089  0.00  0.00     0.000 A 
ATOM     18  C   UNL d   1      59.900   0.157  29.210  0.00  0.00     0.001 A 
ATOM     19  C   UNL d   1      59.148   0.338  29.506  0.00  0.00     0.007 A 
ENDBRANCH  13  14
ENDBRANCH  11  13
ENDBRANCH   1  10
BRANCH   1  20
ATOM     20  C   UNL d   1      56.270  -0.462  31.982  0.00  0.00     0.470 C 
ATOM     21  F   UNL d   1      55.528  -0.835  31.969  0.00  0.00    -0.164 F 
ATOM     22  F   UNL d   1      56.634  -1.204  32.117  0.00  0.00    -0.164 F 
ATOM     23  F   UNL d   1      55.917   0.267  31.851  0.00  0.00    -0.164 F 
ENDBRANCH   1  20
TORSDOF 4
ENDMDL
