MODEL 1
REMARK VINA RESULT:      -3.0      0.000      0.000
REMARK  3 active torsions:
REMARK  status: ('A' for Active; 'I' for Inactive)
REMARK    1  A    between atoms: C_6  and  C_1 
REMARK    2  A    between atoms: C_8  and  C_3 
REMARK    3  A    between atoms: C_9  and  C_4 
ROOT
ATOM      1  C   UNL d   1      29.009  16.269 -23.911  0.00  0.00     0.306 A 
ATOM      2  N   UNL d   1      28.445  16.861 -23.958  0.00  0.00    -0.152 NA
ATOM      3  C   UNL d   1      29.808  16.450 -24.006  0.00  0.00     0.114 A 
ATOM      4  C   UNL d   1      30.048  17.225 -24.150  0.00  0.00     0.094 A 
ATOM      5  C   UNL d   1      28.677  17.634 -24.100  0.00  0.00     0.371 A 
ATOM      6  N   UNL d   1      29.476  17.816 -24.196  0.00  0.00    -0.191 NA
ATOM      7  O   UNL d   1      28.110  18.235 -24.148  0.00  0.00    -0.242 OA
ATOM      8  O   UNL d   1      29.579  15.674 -23.864  0.00  0.00    -0.266 OA
ENDROOT
BRANCH   4   9
ATOM      9  C   UNL d   1      30.843  17.406 -24.245  0.00  0.00     0.018 A 
ATOM     10  C   UNL d   1      31.168  17.462 -25.001  0.00  0.00     0.004 A 
ATOM     11  C   UNL d   1      31.972  17.644 -25.097  0.00  0.00     0.030 A 
ATOM     12  C   UNL d   1      32.446  17.770 -24.440  0.00  0.00     0.140 A 
ATOM     13  C   UNL d   1      32.117  17.713 -23.675  0.00  0.00     0.030 A 
ATOM     14  F   UNL d   1      33.241  17.950 -24.536  0.00  0.00    -0.204 F 
ATOM     15  C   UNL d   1      31.321  17.532 -23.589  0.00  0.00     0.004 A 
ENDBRANCH   4   9
BRANCH   3  16
ATOM     16  C   UNL d   1      30.374  15.854 -23.959  0.00  0.00     0.202 C 
ATOM     17  O   UNL d   1      30.710  15.649 -23.229  0.00  0.00    -0.286 OA
ATOM     18  C   UNL d   1      30.612  15.453 -24.644  0.00  0.00     0.045 C 
ENDBRANCH   3  16
BRANCH   1  19
ATOM     19  C   UNL d   1      28.289  15.886 -23.790  0.00  0.00     0.470 C 
ATOM     20  F   UNL d   1      27.643  15.543 -23.660  0.00  0.00    -0.162 F 
ATOM     21  F   UNL d   1      27.897  15.710 -23.041  0.00  0.00    -0.162 F 
ATOM     22  F   UNL d   1      27.738  15.561 -24.360  0.00  0.00    -0.162 F 
ENDBRANCH   1  19
TORSDOF 3
ENDMDL
MODEL 2
REMARK VINA RESULT:      -2.0      1.384      3.899
REMARK  3 active torsions:
REMARK  status: ('A' for Active; 'I' for Inactive)
REMARK    1  A    between atoms: C_6  and  C_1 
REMARK    2  A    between atoms: C_8  and  C_3 
REMARK    3  A    between atoms: C_9  and  C_4 
ROOT
ATOM      1  C   UNL d   1      31.729  17.377 -24.218  0.00  0.00     0.306 A 
ATOM      2  N   UNL d   1      32.319  16.813 -24.139  0.00  0.00    -0.152 NA
ATOM      3  C   UNL d   1      30.936  17.151 -24.195  0.00  0.00     0.114 A 
ATOM      4  C   UNL d   1      30.728  16.360 -24.094  0.00  0.00     0.094 A 
ATOM      5  C   UNL d   1      32.119  16.025 -24.037  0.00  0.00     0.371 A 
ATOM      6  N   UNL d   1      31.326  15.799 -24.015  0.00  0.00    -0.191 NA
ATOM      7  O   UNL d   1      32.711  15.454 -23.957  0.00  0.00    -0.242 OA
ATOM      8  O   UNL d   1      31.134  17.942 -24.297  0.00  0.00    -0.266 OA
ENDROOT
BRANCH   4   9
ATOM      9  C   UNL d   1      29.939  16.136 -24.071  0.00  0.00     0.018 A 
ATOM     10  C   UNL d   1      29.529  16.130 -23.355  0.00  0.00     0.004 A 
ATOM     11  C   UNL d   1      28.731  15.903 -23.333  0.00  0.00     0.030 A 
ATOM     12  C   UNL d   1      28.347  15.683 -24.022  0.00  0.00     0.140 A 
ATOM     13  C   UNL d   1      28.761  15.688 -24.747  0.00  0.00     0.030 A 
ATOM     14  F   UNL d   1      27.558  15.458 -24.000  0.00  0.00    -0.204 F 
ATOM     15  C   UNL d   1      29.550  15.914 -24.761  0.00  0.00     0.004 A 
ENDBRANCH   4   9
BRANCH   3  16
ATOM     16  C   UNL d   1      30.345  17.718 -24.275  0.00  0.00     0.202 C 
ATOM     17  O   UNL d   1      30.006  18.071 -23.606  0.00  0.00    -0.286 OA
ATOM     18  C   UNL d   1      30.082  17.940 -25.029  0.00  0.00     0.045 C 
ENDBRANCH   3  16
BRANCH   1  19
ATOM     19  C   UNL d   1      32.435  17.800 -24.267  0.00  0.00     0.470 C 
ATOM     20  F   UNL d   1      33.070  18.185 -24.290  0.00  0.00    -0.162 F 
ATOM     21  F   UNL d   1      32.872  18.184 -23.629  0.00  0.00    -0.162 F 
ATOM     22  F   UNL d   1      32.923  17.976 -24.949  0.00  0.00    -0.162 F 
ENDBRANCH   1  19
TORSDOF 3
ENDMDL
MODEL 3
REMARK VINA RESULT:      -1.3      1.303      3.532
REMARK  3 active torsions:
REMARK  status: ('A' for Active; 'I' for Inactive)
REMARK    1  A    between atoms: C_6  and  C_1 
REMARK    2  A    between atoms: C_8  and  C_3 
REMARK    3  A    between atoms: C_9  and  C_4 
ROOT
ATOM      1  C   UNL d   1      31.718  17.259 -23.644  0.00  0.00     0.306 A 
ATOM      2  N   UNL d   1      31.871  17.927 -24.093  0.00  0.00    -0.152 NA
ATOM      3  C   UNL d   1      31.010  16.848 -23.742  0.00  0.00     0.114 A 
ATOM      4  C   UNL d   1      30.450  17.101 -24.291  0.00  0.00     0.094 A 
ATOM      5  C   UNL d   1      31.318  18.185 -24.641  0.00  0.00     0.371 A 
ATOM      6  N   UNL d   1      30.610  17.773 -24.739  0.00  0.00    -0.191 NA
ATOM      7  O   UNL d   1      31.469  18.858 -25.097  0.00  0.00    -0.242 OA
ATOM      8  O   UNL d   1      31.562  16.587 -23.192  0.00  0.00    -0.266 OA
ENDROOT
BRANCH   4   9
ATOM      9  C   UNL d   1      29.745  16.692 -24.388  0.00  0.00     0.018 A 
ATOM     10  C   UNL d   1      29.710  16.042 -24.896  0.00  0.00     0.004 A 
ATOM     11  C   UNL d   1      28.998  15.628 -24.994  0.00  0.00     0.030 A 
ATOM     12  C   UNL d   1      28.327  15.863 -24.588  0.00  0.00     0.140 A 
ATOM     13  C   UNL d   1      28.361  16.521 -24.075  0.00  0.00     0.030 A 
ATOM     14  F   UNL d   1      27.622  15.454 -24.686  0.00  0.00    -0.204 F 
ATOM     15  C   UNL d   1      29.070  16.925 -23.983  0.00  0.00     0.004 A 
ENDBRANCH   4   9
BRANCH   3  16
ATOM     16  C   UNL d   1      30.858  16.177 -23.290  0.00  0.00     0.202 C 
ATOM     17  O   UNL d   1      31.215  15.453 -23.476  0.00  0.00    -0.286 OA
ATOM     18  C   UNL d   1      30.344  16.223 -22.640  0.00  0.00     0.045 C 
ENDBRANCH   3  16
BRANCH   1  19
ATOM     19  C   UNL d   1      32.462  17.515 -23.397  0.00  0.00     0.470 C 
ATOM     20  F   UNL d   1      33.141  17.733 -23.189  0.00  0.00    -0.162 F 
ATOM     21  F   UNL d   1      33.236  17.269 -23.690  0.00  0.00    -0.162 F 
ATOM     22  F   UNL d   1      32.673  18.086 -22.794  0.00  0.00    -0.162 F 
ENDBRANCH   1  19
TORSDOF 3
ENDMDL
MODEL 4
REMARK VINA RESULT:      -1.1      1.615      2.153
REMARK  3 active torsions:
REMARK  status: ('A' for Active; 'I' for Inactive)
REMARK    1  A    between atoms: C_6  and  C_1 
REMARK    2  A    between atoms: C_8  and  C_3 
REMARK    3  A    between atoms: C_9  and  C_4 
ROOT
ATOM      1  C   UNL d   1      29.153  17.544 -24.191  0.00  0.00     0.306 A 
ATOM      2  N   UNL d   1      28.542  17.019 -24.036  0.00  0.00    -0.152 NA
ATOM      3  C   UNL d   1      29.936  17.283 -24.176  0.00  0.00     0.114 A 
ATOM      4  C   UNL d   1      30.113  16.497 -24.007  0.00  0.00     0.094 A 
ATOM      5  C   UNL d   1      28.712  16.236 -23.866  0.00  0.00     0.371 A 
ATOM      6  N   UNL d   1      29.494  15.975 -23.852  0.00  0.00    -0.191 NA
ATOM      7  O   UNL d   1      28.099  15.703 -23.709  0.00  0.00    -0.242 OA
ATOM      8  O   UNL d   1      29.768  18.070 -24.347  0.00  0.00    -0.266 OA
ENDROOT
BRANCH   4   9
ATOM      9  C   UNL d   1      30.891  16.238 -23.993  0.00  0.00     0.018 A 
ATOM     10  C   UNL d   1      31.288  16.156 -23.274  0.00  0.00     0.004 A 
ATOM     11  C   UNL d   1      32.076  15.894 -23.260  0.00  0.00     0.030 A 
ATOM     12  C   UNL d   1      32.462  15.716 -23.960  0.00  0.00     0.140 A 
ATOM     13  C   UNL d   1      32.061  15.799 -24.687  0.00  0.00     0.030 A 
ATOM     14  F   UNL d   1      33.241  15.457 -23.945  0.00  0.00    -0.204 F 
ATOM     15  C   UNL d   1      31.282  16.059 -24.693  0.00  0.00     0.004 A 
ENDBRANCH   4   9
BRANCH   3  16
ATOM     16  C   UNL d   1      30.547  17.811 -24.332  0.00  0.00     0.202 C 
ATOM     17  O   UNL d   1      30.833  18.313 -23.738  0.00  0.00    -0.286 OA
ATOM     18  C   UNL d   1      30.884  17.845 -25.090  0.00  0.00     0.045 C 
ENDBRANCH   3  16
BRANCH   1  19
ATOM     19  C   UNL d   1      28.465  17.994 -24.254  0.00  0.00     0.470 C 
ATOM     20  F   UNL d   1      27.850  18.403 -24.331  0.00  0.00    -0.162 F 
ATOM     21  F   UNL d   1      28.147  18.387 -24.954  0.00  0.00    -0.162 F 
ATOM     22  F   UNL d   1      27.884  18.195 -23.657  0.00  0.00    -0.162 F 
ENDBRANCH   1  19
TORSDOF 3
ENDMDL
MODEL 5
REMARK VINA RESULT:      -1.0      1.238      1.694
REMARK  3 active torsions:
REMARK  status: ('A' for Active; 'I' for Inactive)
REMARK    1  A    between atoms: C_6  and  C_1 
REMARK    2  A    between atoms: C_8  and  C_3 
REMARK    3  A    between atoms: C_9  and  C_4 
ROOT
ATOM      1  C   UNL d   1      28.748  16.055 -23.514  0.00  0.00     0.306 A 
ATOM      2  N   UNL d   1      28.602  15.804 -22.747  0.00  0.00    -0.152 NA
ATOM      3  C   UNL d   1      29.521  16.208 -23.759  0.00  0.00     0.114 A 
ATOM      4  C   UNL d   1      30.152  16.112 -23.239  0.00  0.00     0.094 A 
ATOM      5  C   UNL d   1      29.226  15.706 -22.225  0.00  0.00     0.371 A 
ATOM      6  N   UNL d   1      29.999  15.859 -22.470  0.00  0.00    -0.191 NA
ATOM      7  O   UNL d   1      29.083  15.453 -21.451  0.00  0.00    -0.242 OA
ATOM      8  O   UNL d   1      28.897  16.308 -24.285  0.00  0.00    -0.266 OA
ENDROOT
BRANCH   4   9
ATOM      9  C   UNL d   1      30.921  16.264 -23.483  0.00  0.00     0.018 A 
ATOM     10  C   UNL d   1      31.392  15.654 -23.778  0.00  0.00     0.004 A 
ATOM     11  C   UNL d   1      32.169  15.808 -24.024  0.00  0.00     0.030 A 
ATOM     12  C   UNL d   1      32.472  16.567 -23.976  0.00  0.00     0.140 A 
ATOM     13  C   UNL d   1      31.997  17.186 -23.678  0.00  0.00     0.030 A 
ATOM     14  F   UNL d   1      33.241  16.720 -24.220  0.00  0.00    -0.204 F 
ATOM     15  C   UNL d   1      31.229  17.024 -23.436  0.00  0.00     0.004 A 
ENDBRANCH   4   9
BRANCH   3  16
ATOM     16  C   UNL d   1      29.666  16.460 -24.529  0.00  0.00     0.202 C 
ATOM     17  O   UNL d   1      29.960  15.933 -25.097  0.00  0.00    -0.286 OA
ATOM     18  C   UNL d   1      29.517  17.248 -24.743  0.00  0.00     0.045 C 
ENDBRANCH   3  16
BRANCH   1  19
ATOM     19  C   UNL d   1      27.930  15.961 -23.473  0.00  0.00     0.470 C 
ATOM     20  F   UNL d   1      27.193  15.887 -23.420  0.00  0.00    -0.162 F 
ATOM     21  F   UNL d   1      27.385  16.274 -22.882  0.00  0.00    -0.162 F 
ATOM     22  F   UNL d   1      27.401  15.534 -23.995  0.00  0.00    -0.162 F 
ENDBRANCH   1  19
TORSDOF 3
ENDMDL
