MODEL 1
REMARK VINA RESULT:      22.3      0.000      0.000
REMARK  5 active torsions:
REMARK  status: ('A' for Active; 'I' for Inactive)
REMARK    1  A    between atoms: S_2  and  C_1 
REMARK    2  A    between atoms: N_11  and  S_2 
REMARK    3  A    between atoms: C_14  and  N_11 
REMARK    4  A    between atoms: C_16  and  C_14 
REMARK    5  A    between atoms: C_15  and  C_16 
ROOT
ATOM      1  S   UNL d   1     -57.088 -98.773 -44.460  0.00  0.00     0.287 S 
ATOM      2  O   UNL d   1     -57.214 -98.792 -45.308  0.00  0.00    -0.198 OA
ATOM      3  O   UNL d   1     -56.952 -98.755 -43.644  0.00  0.00    -0.198 OA
ENDROOT
BRANCH   1   4
ATOM      4  C   UNL d   1     -57.911 -98.785 -44.338  0.00  0.00     0.125 A 
ATOM      5  C   UNL d   1     -58.437 -98.776 -44.992  0.00  0.00     0.121 A 
ATOM      6  N   UNL d   1     -58.303 -98.755 -45.817  0.00  0.00    -0.190 NA
ATOM      7  C   UNL d   1     -59.249 -98.787 -44.853  0.00  0.00     0.110 A 
ATOM      8  S   UNL d   1     -59.049 -98.755 -46.167  0.00  0.00     0.117 SA
ATOM      9  N   UNL d   1     -59.631 -98.775 -45.577  0.00  0.00    -0.190 NA
ATOM     10  C   UNL d   1     -59.540 -98.808 -44.061  0.00  0.00     0.021 A 
ATOM     11  C   UNL d   1     -59.011 -98.817 -43.430  0.00  0.00     0.002 A 
ATOM     12  C   UNL d   1     -58.198 -98.806 -43.556  0.00  0.00     0.015 A 
ENDBRANCH   1   4
BRANCH   1  13
ATOM     13  N   UNL d   1     -56.259 -98.762 -44.595  0.00  0.00    -0.157 NA
BRANCH  13  14
ATOM     14  C   UNL d   1     -55.763 -99.361 -44.285  0.00  0.00     0.112 C 
BRANCH  14  15
ATOM     15  C   UNL d   1     -55.276 -99.806 -44.783  0.00  0.00     0.021 C 
BRANCH  15  16
ATOM     16  C   UNL d   1     -55.084-100.597 -44.558  0.00  0.00     0.002 A 
ATOM     17  C   UNL d   1     -54.925-100.767 -43.761  0.00  0.00     0.000 A 
ATOM     18  C   UNL d   1     -54.740-101.532 -43.548  0.00  0.00     0.000 A 
ATOM     19  C   UNL d   1     -54.713-102.119 -44.117  0.00  0.00     0.000 A 
ATOM     20  C   UNL d   1     -54.867-101.956 -44.892  0.00  0.00     0.000 A 
ATOM     21  C   UNL d   1     -55.054-101.188 -45.113  0.00  0.00     0.000 A 
ENDBRANCH  15  16
ENDBRANCH  14  15
ENDBRANCH  13  14
ENDBRANCH   1  13
TORSDOF 5
ENDMDL
