MODEL 1
REMARK VINA RESULT:     120.4      0.000      0.000
REMARK  3 active torsions:
REMARK  status: ('A' for Active; 'I' for Inactive)
REMARK    1  A    between atoms: N_9  and  C_3 
REMARK    2  A    between atoms: C_14  and  C_4 
REMARK       I    between atoms: C_10  and  N_11 
REMARK    3  A    between atoms: C_13  and  C_10 
ROOT
ATOM      1  N   UNL d   1      59.632  48.075  50.677  0.00  0.00    -0.196 N 
ATOM      2  C   UNL d   1      59.153  48.636  51.035  0.00  0.00     0.167 A 
ATOM      3  C   UNL d   1      60.441  48.050  50.843  0.00  0.00     0.152 A 
ATOM      4  C   UNL d   1      58.386  48.525  50.766  0.00  0.00     0.057 A 
ATOM      5  N   UNL d   1      59.163  47.614  50.185  0.00  0.00    -0.161 NA
ATOM      6  N   UNL d   1      59.476  49.181  51.565  0.00  0.00    -0.227 NA
ATOM      7  C   UNL d   1      60.766  48.598  51.375  0.00  0.00     0.057 A 
ATOM      8  C   UNL d   1      58.391  47.899  50.245  0.00  0.00     0.124 A 
ATOM      9  C   UNL d   1      60.287  49.159  51.733  0.00  0.00     0.086 A 
ATOM     10  C   UNL d   1      60.622  49.706  52.266  0.00  0.00     0.021 C 
ENDROOT
BRANCH   3  11
ATOM     11  N   UNL d   1      60.920  47.489  50.485  0.00  0.00    -0.286 N 
ATOM     12  C   UNL d   1      60.679  46.708  50.421  0.00  0.00     0.101 A 
ATOM     13  C   UNL d   1      61.166  46.143  50.058  0.00  0.00     0.102 A 
ATOM     14  N   UNL d   1      61.902  46.373  49.759  0.00  0.00    -0.267 N 
ATOM     15  C   UNL d   1      62.398  45.812  49.393  0.00  0.00     0.288 C 
ATOM     16  C   UNL d   1      62.146  47.151  49.821  0.00  0.00     0.102 A 
ATOM     17  O   UNL d   1      63.131  46.032  49.093  0.00  0.00    -0.264 OA
ATOM     18  C   UNL d   1      61.659  47.715  50.184  0.00  0.00     0.101 A 
BRANCH  15  19
ATOM     19  C   UNL d   1      62.148  45.028  49.332  0.00  0.00     0.156 A 
ATOM     20  O   UNL d   1      62.401  44.340  49.694  0.00  0.00    -0.300 OA
ATOM     21  C   UNL d   1      61.938  43.712  49.414  0.00  0.00     0.123 A 
ATOM     22  C   UNL d   1      61.410  44.017  48.887  0.00  0.00     0.029 A 
ATOM     23  C   UNL d   1      61.532  44.827  48.830  0.00  0.00     0.032 A 
ENDBRANCH  15  19
ENDBRANCH   3  11
BRANCH   4  24
ATOM     24  C   UNL d   1      57.680  48.917  50.931  0.00  0.00     0.004 A 
ATOM     25  C   UNL d   1      57.206  49.197  50.309  0.00  0.00     0.000 A 
ATOM     26  C   UNL d   1      56.500  49.590  50.473  0.00  0.00     0.000 A 
ATOM     27  C   UNL d   1      56.260  49.706  51.255  0.00  0.00     0.000 A 
ATOM     28  C   UNL d   1      56.731  49.428  51.876  0.00  0.00     0.000 A 
ATOM     29  C   UNL d   1      57.437  49.036  51.711  0.00  0.00     0.000 A 
ENDBRANCH   4  24
TORSDOF 3
ENDMDL
