MODEL 1
REMARK VINA RESULT:      -4.7      0.000      0.000
REMARK  4 active torsions:
REMARK  status: ('A' for Active; 'I' for Inactive)
REMARK    1  A    between atoms: C_10  and  C_1 
REMARK    2  A    between atoms: C_18  and  N_6 
REMARK       I    between atoms: N_13  and  C_10 
REMARK    3  A    between atoms: C_12  and  C_20 
REMARK    4  A    between atoms: C_20  and  N_13 
ROOT
ATOM      1  C   UNL d   1     -38.748  14.419  18.902  0.00  0.00     0.077 A 
ATOM      2  C   UNL d   1     -38.347  13.069  19.192  0.00  0.00     0.121 A 
ATOM      3  C   UNL d   1     -38.533  13.664  18.647  0.00  0.00     0.028 A 
ATOM      4  C   UNL d   1     -38.376  13.234  20.007  0.00  0.00     0.281 A 
ATOM      5  N   UNL d   1     -38.160  12.392  18.767  0.00  0.00    -0.300 N 
ATOM      6  N   UNL d   1     -38.588  13.984  20.274  0.00  0.00    -0.272 N 
ATOM      7  C   UNL d   1     -38.777  14.585  19.716  0.00  0.00     0.088 A 
ATOM      8  C   UNL d   1     -38.457  13.338  17.886  0.00  0.00     0.018 A 
ATOM      9  C   UNL d   1     -38.225  12.552  17.977  0.00  0.00     0.064 A 
ATOM     10  O   UNL d   1     -38.187  12.632  20.558  0.00  0.00    -0.265 OA
ATOM     11  C   UNL d   1     -37.940  11.667  19.114  0.00  0.00     0.100 C 
ATOM     12  C   UNL d   1     -38.567  13.656  17.144  0.00  0.00     0.002 A 
ATOM     13  C   UNL d   1     -38.107  12.093  17.300  0.00  0.00     0.018 A 
ATOM     14  C   UNL d   1     -38.446  13.189  16.474  0.00  0.00     0.000 A 
ATOM     15  C   UNL d   1     -38.219  12.414  16.549  0.00  0.00     0.002 A 
ENDROOT
BRANCH   1  16
ATOM     16  C   UNL d   1     -38.932  15.007  18.364  0.00  0.00     0.281 C 
ATOM     17  N   UNL d   1     -39.715  15.238  18.254  0.00  0.00    -0.204 NA
ATOM     18  O   UNL d   1     -38.330  15.373  17.927  0.00  0.00    -0.265 OA
BRANCH  17  19
ATOM     19  C   UNL d   1     -39.901  15.830  17.713  0.00  0.00     0.127 C 
BRANCH  19  20
ATOM     20  C   UNL d   1     -40.657  15.857  17.380  0.00  0.00     0.119 A 
ATOM     21  O   UNL d   1     -40.838  15.838  16.577  0.00  0.00    -0.306 OA
ATOM     22  C   UNL d   1     -41.661  15.878  16.503  0.00  0.00     0.100 A 
ATOM     23  C   UNL d   1     -42.081  15.875  15.800  0.00  0.00     0.027 C 
ATOM     24  C   UNL d   1     -41.985  15.922  17.245  0.00  0.00     0.027 A 
ATOM     25  C   UNL d   1     -41.370  15.910  17.795  0.00  0.00     0.028 A 
ENDBRANCH  19  20
ENDBRANCH  17  19
ENDBRANCH   1  16
BRANCH   6  26
ATOM     26  C   UNL d   1     -38.615  14.142  21.081  0.00  0.00     0.067 A 
ATOM     27  C   UNL d   1     -37.986  14.414  21.538  0.00  0.00     0.018 A 
ATOM     28  C   UNL d   1     -38.255  14.496  22.304  0.00  0.00     0.002 A 
ATOM     29  C   UNL d   1     -39.047  14.275  22.322  0.00  0.00     0.002 A 
ATOM     30  C   UNL d   1     -39.267  14.056  21.560  0.00  0.00     0.018 A 
ENDBRANCH   6  26
TORSDOF 4
ENDMDL
MODEL 2
REMARK VINA RESULT:      -4.1      8.161      9.639
REMARK  4 active torsions:
REMARK  status: ('A' for Active; 'I' for Inactive)
REMARK    1  A    between atoms: C_10  and  C_1 
REMARK    2  A    between atoms: C_18  and  N_6 
REMARK       I    between atoms: N_13  and  C_10 
REMARK    3  A    between atoms: C_12  and  C_20 
REMARK    4  A    between atoms: C_20  and  N_13 
ROOT
ATOM      1  C   UNL d   1     -47.128  13.467  22.928  0.00  0.00     0.077 A 
ATOM      2  C   UNL d   1     -48.217  12.534  23.038  0.00  0.00     0.121 A 
ATOM      3  C   UNL d   1     -47.408  12.705  23.080  0.00  0.00     0.028 A 
ATOM      4  C   UNL d   1     -48.755  13.137  22.839  0.00  0.00     0.281 A 
ATOM      5  N   UNL d   1     -48.313  11.739  23.217  0.00  0.00    -0.300 N 
ATOM      6  N   UNL d   1     -48.488  13.901  22.684  0.00  0.00    -0.272 N 
ATOM      7  C   UNL d   1     -47.664  14.070  22.729  0.00  0.00     0.088 A 
ATOM      8  C   UNL d   1     -47.015  12.003  23.288  0.00  0.00     0.018 A 
ATOM      9  C   UNL d   1     -47.588  11.415  23.369  0.00  0.00     0.064 A 
ATOM     10  O   UNL d   1     -49.573  12.964  22.796  0.00  0.00    -0.265 OA
ATOM     11  C   UNL d   1     -49.049  11.348  23.234  0.00  0.00     0.100 C 
ATOM     12  C   UNL d   1     -46.226  11.835  23.409  0.00  0.00     0.002 A 
ATOM     13  C   UNL d   1     -47.346  10.653  23.575  0.00  0.00     0.018 A 
ATOM     14  C   UNL d   1     -45.996  11.069  23.615  0.00  0.00     0.000 A 
ATOM     15  C   UNL d   1     -46.549  10.482  23.698  0.00  0.00     0.002 A 
ENDROOT
BRANCH   1  16
ATOM     16  C   UNL d   1     -46.329  13.636  22.970  0.00  0.00     0.281 C 
ATOM     17  N   UNL d   1     -45.861  13.599  22.293  0.00  0.00    -0.204 NA
ATOM     18  O   UNL d   1     -45.987  13.846  23.695  0.00  0.00    -0.265 OA
BRANCH  17  19
ATOM     19  C   UNL d   1     -45.056  13.769  22.335  0.00  0.00     0.127 C 
BRANCH  19  20
ATOM     20  C   UNL d   1     -44.529  13.380  21.831  0.00  0.00     0.119 A 
ATOM     21  O   UNL d   1     -43.713  13.320  21.930  0.00  0.00    -0.306 OA
ATOM     22  C   UNL d   1     -43.414  12.884  21.294  0.00  0.00     0.100 A 
ATOM     23  C   UNL d   1     -42.627  12.692  21.171  0.00  0.00     0.027 C 
ATOM     24  C   UNL d   1     -44.031  12.676  20.810  0.00  0.00     0.027 A 
ATOM     25  C   UNL d   1     -44.725  12.979  21.135  0.00  0.00     0.028 A 
ENDBRANCH  19  20
ENDBRANCH  17  19
ENDBRANCH   1  16
BRANCH   6  26
ATOM     26  C   UNL d   1     -49.024  14.494  22.488  0.00  0.00     0.067 A 
ATOM     27  C   UNL d   1     -49.339  14.626  21.739  0.00  0.00     0.018 A 
ATOM     28  C   UNL d   1     -49.843  15.266  21.794  0.00  0.00     0.002 A 
ATOM     29  C   UNL d   1     -49.839  15.529  22.573  0.00  0.00     0.002 A 
ATOM     30  C   UNL d   1     -49.329  15.046  23.002  0.00  0.00     0.018 A 
ENDBRANCH   6  26
TORSDOF 4
ENDMDL
