MODEL 1
REMARK VINA RESULT:      -7.9      0.000      0.000
REMARK  4 active torsions:
REMARK  status: ('A' for Active; 'I' for Inactive)
REMARK    1  A    between atoms: N_2  and  C_1 
REMARK    2  A    between atoms: C_16  and  N_6 
REMARK    3  A    between atoms: C_14  and  C_7 
REMARK    4  A    between atoms: N_8  and  C_12 
ROOT
ATOM      1  N   UNL d   1      53.631  32.924  53.453  0.00  0.00    -0.288 N 
ATOM      2  C   UNL d   1      53.598  32.143  53.635  0.00  0.00     0.196 A 
ATOM      3  S   UNL d   1      54.360  31.830  53.606  0.00  0.00    -0.092 SA
ATOM      4  C   UNL d   1      54.405  33.130  53.304  0.00  0.00     0.268 A 
ATOM      5  C   UNL d   1      54.861  32.458  53.397  0.00  0.00     0.093 A 
ATOM      6  O   UNL d   1      54.695  33.894  53.091  0.00  0.00    -0.266 OA
ENDROOT
BRANCH   1   7
ATOM      7  C   UNL d   1      52.943  33.389  53.438  0.00  0.00     0.139 A 
ATOM      8  C   UNL d   1      52.372  33.350  52.831  0.00  0.00     0.296 A 
ATOM      9  N   UNL d   1      51.763  33.898  53.008  0.00  0.00    -0.209 N 
ATOM     10  O   UNL d   1      52.435  32.837  52.174  0.00  0.00    -0.264 OA
ATOM     11  N   UNL d   1      51.954  34.269  53.711  0.00  0.00    -0.238 N 
ATOM     12  C   UNL d   1      52.685  33.955  53.979  0.00  0.00     0.102 A 
ATOM     13  C   UNL d   1      51.522  34.842  54.095  0.00  0.00     0.120 C 
ATOM     14  C   UNL d   1      53.075  34.180  54.671  0.00  0.00     0.022 C 
BRANCH   9  15
ATOM     15  C   UNL d   1      51.069  34.099  52.616  0.00  0.00     0.085 A 
ATOM     16  C   UNL d   1      50.354  34.091  52.995  0.00  0.00     0.019 A 
ATOM     17  C   UNL d   1      49.660  34.292  52.604  0.00  0.00     0.002 A 
ATOM     18  C   UNL d   1      49.688  34.504  51.811  0.00  0.00     0.000 A 
ATOM     19  C   UNL d   1      50.399  34.514  51.425  0.00  0.00     0.002 A 
ATOM     20  C   UNL d   1      51.110  34.314  51.808  0.00  0.00     0.019 A 
ENDBRANCH   9  15
ENDBRANCH   1   7
BRANCH   2  21
ATOM     21  C   UNL d   1      53.489  31.348  53.831  0.00  0.00    -0.001 A 
ATOM     22  C   UNL d   1      53.409  30.777  53.230  0.00  0.00    -0.001 A 
ATOM     23  C   UNL d   1      53.299  29.973  53.430  0.00  0.00     0.023 A 
ATOM     24  C   UNL d   1      53.270  29.749  54.219  0.00  0.00     0.127 A 
ATOM     25  C   UNL d   1      53.350  30.319  54.816  0.00  0.00     0.023 A 
ATOM     26  C   UNL d   1      53.460  31.122  54.617  0.00  0.00    -0.001 A 
BRANCH  24  27
ATOM     27  N   UNL d   1      53.162  28.961  54.398  0.00  0.00    -0.114 N 
ATOM     28  O   UNL d   1      52.873  28.402  53.862  0.00  0.00    -0.532 OA
ATOM     29  O   UNL d   1      53.322  28.611  55.124  0.00  0.00    -0.532 OA
ENDBRANCH  24  27
ENDBRANCH   2  21
TORSDOF 4
ENDMDL
