MODEL 1
REMARK VINA RESULT:      52.5      0.000      0.000
REMARK  8 active torsions:
REMARK  status: ('A' for Active; 'I' for Inactive)
REMARK    1  A    between atoms: C_9  and  N_1 
REMARK    2  A    between atoms: S_10  and  C_6 
REMARK    3  A    between atoms: C_19  and  S_10 
REMARK    4  A    between atoms: C_12  and  C_19 
REMARK       I    between atoms: N_14  and  C_12 
REMARK    5  A    between atoms: C_13  and  C_20 
REMARK    6  A    between atoms: O_24  and  C_13 
REMARK    7  A    between atoms: C_20  and  N_14 
REMARK    8  A    between atoms: C_26  and  O_24 
ROOT
ATOM      1  N   UNL d   1     -54.758-100.712 -41.979  0.00  0.00    -0.212 N 
ATOM      2  C   UNL d   1     -54.825-100.979 -42.753  0.00  0.00     0.169 A 
ATOM      3  N   UNL d   1     -54.712 -99.903 -41.983  0.00  0.00    -0.162 NA
ATOM      4  C   UNL d   1     -54.821-100.318 -43.246  0.00  0.00     0.081 A 
ATOM      5  C   UNL d   1     -54.751 -99.650 -42.771  0.00  0.00     0.126 A 
ATOM      6  C   UNL d   1     -54.881-100.411 -44.060  0.00  0.00     0.117 A 
ATOM      7  N   UNL d   1     -54.890-101.733 -43.074  0.00  0.00    -0.205 NA
ATOM      8  N   UNL d   1     -54.946-101.167 -44.385  0.00  0.00    -0.217 NA
ATOM      9  C   UNL d   1     -54.950-101.828 -43.892  0.00  0.00     0.201 A 
ENDROOT
BRANCH   6  10
ATOM     10  S   UNL d   1     -54.876 -99.749 -44.554  0.00  0.00    -0.062 SA
BRANCH  10  11
ATOM     11  C   UNL d   1     -55.117 -99.818 -45.330  0.00  0.00     0.099 C 
BRANCH  11  12
ATOM     12  C   UNL d   1     -55.349 -99.147 -45.751  0.00  0.00     0.286 C 
ATOM     13  N   UNL d   1     -56.054 -98.763 -45.559  0.00  0.00    -0.200 NA
ATOM     14  O   UNL d   1     -54.876 -98.860 -46.364  0.00  0.00    -0.265 OA
BRANCH  13  15
ATOM     15  C   UNL d   1     -56.527 -99.050 -44.945  0.00  0.00     0.171 C 
BRANCH  15  16
ATOM     16  C   UNL d   1     -57.349 -99.045 -45.021  0.00  0.00     0.320 C 
ATOM     17  O   UNL d   1     -57.698 -98.755 -45.711  0.00  0.00    -0.257 OA
BRANCH  16  18
ATOM     18  O   UNL d   1     -57.822 -99.328 -44.407  0.00  0.00    -0.270 OA
BRANCH  18  19
ATOM     19  C   UNL d   1     -58.193 -98.799 -43.894  0.00  0.00     0.126 C 
ATOM     20  C   UNL d   1     -58.213 -98.956 -43.085  0.00  0.00     0.029 C 
ENDBRANCH  18  19
ENDBRANCH  16  18
ENDBRANCH  15  16
ENDBRANCH  13  15
ENDBRANCH  11  12
ENDBRANCH  10  11
ENDBRANCH   6  10
BRANCH   1  21
ATOM     21  C   UNL d   1     -54.747-101.255 -41.351  0.00  0.00     0.085 A 
ATOM     22  C   UNL d   1     -54.740-100.985 -40.575  0.00  0.00     0.020 A 
ATOM     23  C   UNL d   1     -54.729-101.518 -39.955  0.00  0.00     0.013 A 
ATOM     24  C   UNL d   1     -54.724-102.332 -40.103  0.00  0.00     0.058 A 
ATOM     25  C   UNL d   1     -54.732-102.595 -40.896  0.00  0.00     0.013 A 
ATOM     26 CL   UNL d   1     -54.713-102.876 -39.476  0.00  0.00    -0.082 Cl
ATOM     27  C   UNL d   1     -54.743-102.058 -41.508  0.00  0.00     0.020 A 
ENDBRANCH   1  21
TORSDOF 8
ENDMDL
