MODEL 1
REMARK VINA RESULT:      -6.1      0.000      0.000
REMARK  3 active torsions:
REMARK  status: ('A' for Active; 'I' for Inactive)
REMARK    1  A    between atoms: C_5  and  C_1 
REMARK    2  A    between atoms: C_2  and  C_5 
REMARK    3  A    between atoms: C_12  and  C_5 
ROOT
ATOM      1  C   UNL d   1      53.759  32.873  54.028  0.00  0.00     0.021 C 
ENDROOT
BRANCH   1   2
ATOM      2  C   UNL d   1      53.177  33.452  54.109  0.00  0.00     0.021 A 
ATOM      3  C   UNL d   1      52.968  33.939  54.758  0.00  0.00     0.082 A 
ATOM      4  N   UNL d   1      52.341  34.412  54.506  0.00  0.00    -0.246 NA
ATOM      5  C   UNL d   1      53.315  33.953  55.511  0.00  0.00     0.021 C 
ATOM      6  C   UNL d   1      52.162  34.228  53.724  0.00  0.00     0.081 A 
ATOM      7  C   UNL d   1      52.683  33.635  53.486  0.00  0.00     0.019 A 
ATOM      8  C   UNL d   1      51.600  34.511  53.185  0.00  0.00     0.019 A 
ATOM      9  C   UNL d   1      52.643  33.328  52.721  0.00  0.00     0.002 A 
ATOM     10  C   UNL d   1      52.085  33.607  52.182  0.00  0.00     0.000 A 
ATOM     11  C   UNL d   1      51.579  34.187  52.422  0.00  0.00     0.002 A 
ENDBRANCH   1   2
BRANCH   1  12
ATOM     12  C   UNL d   1      53.618  32.093  54.287  0.00  0.00     0.021 A 
ATOM     13  C   UNL d   1      53.708  31.836  55.060  0.00  0.00     0.082 A 
ATOM     14  N   UNL d   1      53.514  31.035  55.081  0.00  0.00    -0.246 NA
ATOM     15  C   UNL d   1      53.957  32.306  55.719  0.00  0.00     0.021 C 
ATOM     16  C   UNL d   1      53.304  30.803  54.322  0.00  0.00     0.081 A 
ATOM     17  C   UNL d   1      53.368  31.456  53.832  0.00  0.00     0.019 A 
ATOM     18  C   UNL d   1      53.062  30.077  54.012  0.00  0.00     0.019 A 
ATOM     19  C   UNL d   1      53.190  31.388  53.027  0.00  0.00     0.002 A 
ATOM     20  C   UNL d   1      52.948  30.660  52.717  0.00  0.00     0.000 A 
ATOM     21  C   UNL d   1      52.884  30.007  53.207  0.00  0.00     0.002 A 
ENDBRANCH   1  12
BRANCH   1  22
ATOM     22  C   UNL d   1      54.482  33.052  53.693  0.00  0.00     0.082 A 
ATOM     23  N   UNL d   1      54.647  32.833  52.925  0.00  0.00    -0.244 NA
ATOM     24  C   UNL d   1      55.371  33.012  52.586  0.00  0.00     0.099 A 
ATOM     25  C   UNL d   1      55.939  33.425  53.049  0.00  0.00     0.021 A 
ATOM     26  C   UNL d   1      55.772  33.635  53.793  0.00  0.00     0.003 A 
ATOM     27  C   UNL d   1      55.053  33.460  54.137  0.00  0.00     0.019 A 
ENDBRANCH   1  22
TORSDOF 3
ENDMDL
MODEL 2
REMARK VINA RESULT:      -6.0      0.112      2.697
REMARK  3 active torsions:
REMARK  status: ('A' for Active; 'I' for Inactive)
REMARK    1  A    between atoms: C_5  and  C_1 
REMARK    2  A    between atoms: C_2  and  C_5 
REMARK    3  A    between atoms: C_12  and  C_5 
ROOT
ATOM      1  C   UNL d   1      53.766  32.842  54.031  0.00  0.00     0.021 C 
ENDROOT
BRANCH   1   2
ATOM      2  C   UNL d   1      53.625  32.088  54.334  0.00  0.00     0.021 A 
ATOM      3  C   UNL d   1      53.658  31.791  55.117  0.00  0.00     0.082 A 
ATOM      4  N   UNL d   1      53.461  30.991  55.075  0.00  0.00    -0.246 NA
ATOM      5  C   UNL d   1      53.851  32.208  55.807  0.00  0.00     0.021 C 
ATOM      6  C   UNL d   1      53.309  30.792  54.291  0.00  0.00     0.081 A 
ATOM      7  C   UNL d   1      53.412  31.474  53.841  0.00  0.00     0.019 A 
ATOM      8  C   UNL d   1      53.089  30.088  53.913  0.00  0.00     0.019 A 
ATOM      9  C   UNL d   1      53.299  31.455  53.023  0.00  0.00     0.002 A 
ATOM     10  C   UNL d   1      53.080  30.755  52.644  0.00  0.00     0.000 A 
ATOM     11  C   UNL d   1      52.981  30.092  53.091  0.00  0.00     0.002 A 
ENDBRANCH   1   2
BRANCH   1  12
ATOM     12  C   UNL d   1      53.173  33.428  54.064  0.00  0.00     0.021 A 
ATOM     13  C   UNL d   1      53.043  33.922  54.705  0.00  0.00     0.082 A 
ATOM     14  N   UNL d   1      52.411  34.416  54.515  0.00  0.00    -0.246 NA
ATOM     15  C   UNL d   1      53.478  33.926  55.431  0.00  0.00     0.021 C 
ATOM     16  C   UNL d   1      52.155  34.224  53.759  0.00  0.00     0.081 A 
ATOM     17  C   UNL d   1      52.625  33.614  53.481  0.00  0.00     0.019 A 
ATOM     18  C   UNL d   1      51.551  34.527  53.285  0.00  0.00     0.019 A 
ATOM     19  C   UNL d   1      52.495  33.302  52.726  0.00  0.00     0.002 A 
ATOM     20  C   UNL d   1      51.889  33.607  52.252  0.00  0.00     0.000 A 
ATOM     21  C   UNL d   1      51.419  34.217  52.530  0.00  0.00     0.002 A 
ENDBRANCH   1  12
BRANCH   1  22
ATOM     22  C   UNL d   1      54.486  33.028  53.695  0.00  0.00     0.082 A 
ATOM     23  N   UNL d   1      54.621  32.882  52.904  0.00  0.00    -0.244 NA
ATOM     24  C   UNL d   1      55.343  33.067  52.562  0.00  0.00     0.099 A 
ATOM     25  C   UNL d   1      55.939  33.410  53.046  0.00  0.00     0.021 A 
ATOM     26  C   UNL d   1      55.801  33.549  53.812  0.00  0.00     0.003 A 
ATOM     27  C   UNL d   1      55.085  33.367  54.159  0.00  0.00     0.019 A 
ENDBRANCH   1  22
TORSDOF 3
ENDMDL
MODEL 3
REMARK VINA RESULT:      -5.8      1.018      2.907
REMARK  3 active torsions:
REMARK  status: ('A' for Active; 'I' for Inactive)
REMARK    1  A    between atoms: C_5  and  C_1 
REMARK    2  A    between atoms: C_2  and  C_5 
REMARK    3  A    between atoms: C_12  and  C_5 
ROOT
ATOM      1  C   UNL d   1      53.280  32.125  53.497  0.00  0.00     0.021 C 
ENDROOT
BRANCH   1   2
ATOM      2  C   UNL d   1      54.000  32.485  53.678  0.00  0.00     0.021 A 
ATOM      3  C   UNL d   1      54.725  32.515  53.258  0.00  0.00     0.082 A 
ATOM      4  N   UNL d   1      55.246  32.957  53.719  0.00  0.00    -0.246 NA
ATOM      5  C   UNL d   1      54.896  32.171  52.523  0.00  0.00     0.021 C 
ATOM      6  C   UNL d   1      54.862  33.197  54.406  0.00  0.00     0.081 A 
ATOM      7  C   UNL d   1      54.094  32.901  54.373  0.00  0.00     0.019 A 
ATOM      8  C   UNL d   1      55.095  33.643  55.065  0.00  0.00     0.019 A 
ATOM      9  C   UNL d   1      53.563  33.049  54.988  0.00  0.00     0.002 A 
ATOM     10  C   UNL d   1      53.792  33.494  55.645  0.00  0.00     0.000 A 
ATOM     11  C   UNL d   1      54.545  33.779  55.670  0.00  0.00     0.002 A 
ENDBRANCH   1   2
BRANCH   1  12
ATOM     12  C   UNL d   1      53.225  31.295  53.437  0.00  0.00     0.021 A 
ATOM     13  C   UNL d   1      53.150  30.884  52.732  0.00  0.00     0.082 A 
ATOM     14  N   UNL d   1      53.115  30.080  52.914  0.00  0.00    -0.246 NA
ATOM     15  C   UNL d   1      53.115  31.221  51.956  0.00  0.00     0.021 C 
ATOM     16  C   UNL d   1      53.168  30.001  53.730  0.00  0.00     0.081 A 
ATOM     17  C   UNL d   1      53.236  30.751  54.052  0.00  0.00     0.019 A 
ATOM     18  C   UNL d   1      53.163  29.339  54.224  0.00  0.00     0.019 A 
ATOM     19  C   UNL d   1      53.301  30.845  54.871  0.00  0.00     0.002 A 
ATOM     20  C   UNL d   1      53.296  30.181  55.365  0.00  0.00     0.000 A 
ATOM     21  C   UNL d   1      53.227  29.431  55.043  0.00  0.00     0.002 A 
ENDBRANCH   1  12
BRANCH   1  22
ATOM     22  C   UNL d   1      52.609  32.575  53.373  0.00  0.00     0.082 A 
ATOM     23  N   UNL d   1      51.954  32.478  53.850  0.00  0.00    -0.244 NA
ATOM     24  C   UNL d   1      51.280  32.927  53.729  0.00  0.00     0.099 A 
ATOM     25  C   UNL d   1      51.280  33.489  53.103  0.00  0.00     0.021 A 
ATOM     26  C   UNL d   1      51.918  33.577  52.644  0.00  0.00     0.003 A 
ATOM     27  C   UNL d   1      52.593  33.133  52.759  0.00  0.00     0.019 A 
ENDBRANCH   1  22
TORSDOF 3
ENDMDL
MODEL 4
REMARK VINA RESULT:      -5.5      1.034      3.254
REMARK  3 active torsions:
REMARK  status: ('A' for Active; 'I' for Inactive)
REMARK    1  A    between atoms: C_5  and  C_1 
REMARK    2  A    between atoms: C_2  and  C_5 
REMARK    3  A    between atoms: C_12  and  C_5 
ROOT
ATOM      1  C   UNL d   1      52.993  33.134  53.565  0.00  0.00     0.021 C 
ENDROOT
BRANCH   1   2
ATOM      2  C   UNL d   1      53.422  33.460  54.190  0.00  0.00     0.021 A 
ATOM      3  C   UNL d   1      53.173  33.815  54.907  0.00  0.00     0.082 A 
ATOM      4  N   UNL d   1      53.856  34.037  55.311  0.00  0.00    -0.246 NA
ATOM      5  C   UNL d   1      52.394  33.928  55.170  0.00  0.00     0.021 C 
ATOM      6  C   UNL d   1      54.514  33.828  54.863  0.00  0.00     0.081 A 
ATOM      7  C   UNL d   1      54.238  33.473  54.173  0.00  0.00     0.019 A 
ATOM      8  C   UNL d   1      55.332  33.907  54.977  0.00  0.00     0.019 A 
ATOM      9  C   UNL d   1      54.769  33.199  53.603  0.00  0.00     0.002 A 
ATOM     10  C   UNL d   1      55.583  33.276  53.714  0.00  0.00     0.000 A 
ATOM     11  C   UNL d   1      55.846  33.625  54.391  0.00  0.00     0.002 A 
ENDBRANCH   1   2
BRANCH   1  12
ATOM     12  C   UNL d   1      52.545  33.623  53.060  0.00  0.00     0.021 A 
ATOM     13  C   UNL d   1      52.862  34.103  52.476  0.00  0.00     0.082 A 
ATOM     14  N   UNL d   1      52.237  34.492  52.105  0.00  0.00    -0.246 NA
ATOM     15  C   UNL d   1      53.684  34.186  52.286  0.00  0.00     0.021 C 
ATOM     16  C   UNL d   1      51.538  34.250  52.462  0.00  0.00     0.081 A 
ATOM     17  C   UNL d   1      51.729  33.713  53.051  0.00  0.00     0.019 A 
ATOM     18  C   UNL d   1      50.748  34.449  52.326  0.00  0.00     0.019 A 
ATOM     19  C   UNL d   1      51.131  33.372  53.510  0.00  0.00     0.002 A 
ATOM     20  C   UNL d   1      50.339  33.573  53.373  0.00  0.00     0.000 A 
ATOM     21  C   UNL d   1      50.149  34.109  52.783  0.00  0.00     0.002 A 
ENDBRANCH   1  12
BRANCH   1  22
ATOM     22  C   UNL d   1      53.000  32.329  53.432  0.00  0.00     0.082 A 
ATOM     23  N   UNL d   1      53.160  32.035  52.688  0.00  0.00    -0.244 NA
ATOM     24  C   UNL d   1      53.167  31.228  52.550  0.00  0.00     0.099 A 
ATOM     25  C   UNL d   1      53.006  30.710  53.193  0.00  0.00     0.021 A 
ATOM     26  C   UNL d   1      52.851  31.001  53.912  0.00  0.00     0.003 A 
ATOM     27  C   UNL d   1      52.842  31.804  54.056  0.00  0.00     0.019 A 
ENDBRANCH   1  22
TORSDOF 3
ENDMDL
MODEL 5
REMARK VINA RESULT:      -5.5      0.877      3.404
REMARK  3 active torsions:
REMARK  status: ('A' for Active; 'I' for Inactive)
REMARK    1  A    between atoms: C_5  and  C_1 
REMARK    2  A    between atoms: C_2  and  C_5 
REMARK    3  A    between atoms: C_12  and  C_5 
ROOT
ATOM      1  C   UNL d   1      53.465  32.345  53.806  0.00  0.00     0.021 C 
ENDROOT
BRANCH   1   2
ATOM      2  C   UNL d   1      53.367  31.567  54.064  0.00  0.00     0.021 A 
ATOM      3  C   UNL d   1      53.388  31.233  54.833  0.00  0.00     0.082 A 
ATOM      4  N   UNL d   1      53.253  30.425  54.743  0.00  0.00    -0.246 NA
ATOM      5  C   UNL d   1      53.518  31.627  55.551  0.00  0.00     0.021 C 
ATOM      6  C   UNL d   1      53.150  30.256  53.944  0.00  0.00     0.081 A 
ATOM      7  C   UNL d   1      53.222  30.967  53.532  0.00  0.00     0.019 A 
ATOM      8  C   UNL d   1      53.000  29.559  53.521  0.00  0.00     0.019 A 
ATOM      9  C   UNL d   1      53.146  30.981  52.710  0.00  0.00     0.002 A 
ATOM     10  C   UNL d   1      52.997  30.289  52.287  0.00  0.00     0.000 A 
ATOM     11  C   UNL d   1      52.928  29.598  52.697  0.00  0.00     0.002 A 
ENDBRANCH   1   2
BRANCH   1  12
ATOM     12  C   UNL d   1      54.213  32.711  53.840  0.00  0.00     0.021 A 
ATOM     13  C   UNL d   1      54.802  32.618  53.278  0.00  0.00     0.082 A 
ATOM     14  N   UNL d   1      55.449  33.070  53.517  0.00  0.00    -0.246 NA
ATOM     15  C   UNL d   1      54.757  32.144  52.578  0.00  0.00     0.021 C 
ATOM     16  C   UNL d   1      55.255  33.438  54.225  0.00  0.00     0.081 A 
ATOM     17  C   UNL d   1      54.492  33.217  54.424  0.00  0.00     0.019 A 
ATOM     18  C   UNL d   1      55.677  33.951  54.717  0.00  0.00     0.019 A 
ATOM     19  C   UNL d   1      54.145  33.505  55.117  0.00  0.00     0.002 A 
ATOM     20  C   UNL d   1      54.569  34.019  55.609  0.00  0.00     0.000 A 
ATOM     21  C   UNL d   1      55.332  34.240  55.410  0.00  0.00     0.002 A 
ENDBRANCH   1  12
BRANCH   1  22
ATOM     22  C   UNL d   1      52.831  32.768  53.513  0.00  0.00     0.082 A 
ATOM     23  N   UNL d   1      52.835  33.036  52.742  0.00  0.00    -0.244 NA
ATOM     24  C   UNL d   1      52.201  33.461  52.444  0.00  0.00     0.099 A 
ATOM     25  C   UNL d   1      51.548  33.614  52.951  0.00  0.00     0.021 A 
ATOM     26  C   UNL d   1      51.551  33.352  53.697  0.00  0.00     0.003 A 
ATOM     27  C   UNL d   1      52.178  32.928  54.000  0.00  0.00     0.019 A 
ENDBRANCH   1  22
TORSDOF 3
ENDMDL
MODEL 6
REMARK VINA RESULT:      -5.4      1.067      2.215
REMARK  3 active torsions:
REMARK  status: ('A' for Active; 'I' for Inactive)
REMARK    1  A    between atoms: C_5  and  C_1 
REMARK    2  A    between atoms: C_2  and  C_5 
REMARK    3  A    between atoms: C_12  and  C_5 
ROOT
ATOM      1  C   UNL d   1      53.028  33.654  53.473  0.00  0.00     0.021 C 
ENDROOT
BRANCH   1   2
ATOM      2  C   UNL d   1      52.532  33.951  52.884  0.00  0.00     0.021 A 
ATOM      3  C   UNL d   1      52.703  34.311  52.146  0.00  0.00     0.082 A 
ATOM      4  N   UNL d   1      51.979  34.492  51.798  0.00  0.00    -0.246 NA
ATOM      5  C   UNL d   1      53.451  34.460  51.819  0.00  0.00     0.021 C 
ATOM      6  C   UNL d   1      51.371  34.254  52.300  0.00  0.00     0.081 A 
ATOM      7  C   UNL d   1      51.721  33.921  52.967  0.00  0.00     0.019 A 
ATOM      8  C   UNL d   1      50.544  34.290  52.253  0.00  0.00     0.019 A 
ATOM      9  C   UNL d   1      51.253  33.627  53.581  0.00  0.00     0.002 A 
ATOM     10  C   UNL d   1      50.430  33.661  53.537  0.00  0.00     0.000 A 
ATOM     11  C   UNL d   1      50.095  33.988  52.881  0.00  0.00     0.002 A 
ENDBRANCH   1   2
BRANCH   1  12
ATOM     12  C   UNL d   1      53.457  32.950  53.349  0.00  0.00     0.021 A 
ATOM     13  C   UNL d   1      54.263  32.916  53.209  0.00  0.00     0.082 A 
ATOM     14  N   UNL d   1      54.468  32.123  53.117  0.00  0.00    -0.246 NA
ATOM     15  C   UNL d   1      54.793  33.575  53.165  0.00  0.00     0.021 C 
ATOM     16  C   UNL d   1      53.787  31.672  53.201  0.00  0.00     0.081 A 
ATOM     17  C   UNL d   1      53.163  32.183  53.344  0.00  0.00     0.019 A 
ATOM     18  C   UNL d   1      53.653  30.858  53.165  0.00  0.00     0.019 A 
ATOM     19  C   UNL d   1      52.399  31.884  53.453  0.00  0.00     0.002 A 
ATOM     20  C   UNL d   1      52.266  31.068  53.417  0.00  0.00     0.000 A 
ATOM     21  C   UNL d   1      52.890  30.557  53.274  0.00  0.00     0.002 A 
ENDBRANCH   1  12
BRANCH   1  22
ATOM     22  C   UNL d   1      53.106  34.044  54.186  0.00  0.00     0.082 A 
ATOM     23  N   UNL d   1      53.027  33.637  54.889  0.00  0.00    -0.244 NA
ATOM     24  C   UNL d   1      53.105  34.024  55.607  0.00  0.00     0.099 A 
ATOM     25  C   UNL d   1      53.267  34.850  55.601  0.00  0.00     0.021 A 
ATOM     26  C   UNL d   1      53.342  35.238  54.916  0.00  0.00     0.003 A 
ATOM     27  C   UNL d   1      53.266  34.858  54.198  0.00  0.00     0.019 A 
ENDBRANCH   1  22
TORSDOF 3
ENDMDL
MODEL 7
REMARK VINA RESULT:      -5.3      1.072      2.708
REMARK  3 active torsions:
REMARK  status: ('A' for Active; 'I' for Inactive)
REMARK    1  A    between atoms: C_5  and  C_1 
REMARK    2  A    between atoms: C_2  and  C_5 
REMARK    3  A    between atoms: C_12  and  C_5 
ROOT
ATOM      1  C   UNL d   1      52.925  33.137  53.447  0.00  0.00     0.021 C 
ENDROOT
BRANCH   1   2
ATOM      2  C   UNL d   1      52.523  33.663  52.955  0.00  0.00     0.021 A 
ATOM      3  C   UNL d   1      52.801  34.210  52.385  0.00  0.00     0.082 A 
ATOM      4  N   UNL d   1      52.137  34.582  52.069  0.00  0.00    -0.246 NA
ATOM      5  C   UNL d   1      53.589  34.359  52.171  0.00  0.00     0.021 C 
ATOM      6  C   UNL d   1      51.462  34.278  52.429  0.00  0.00     0.081 A 
ATOM      7  C   UNL d   1      51.709  33.712  52.974  0.00  0.00     0.019 A 
ATOM      8  C   UNL d   1      50.651  34.430  52.344  0.00  0.00     0.019 A 
ATOM      9  C   UNL d   1      51.155  33.302  53.429  0.00  0.00     0.002 A 
ATOM     10  C   UNL d   1      50.348  33.452  53.347  0.00  0.00     0.000 A 
ATOM     11  C   UNL d   1      50.114  34.006  52.812  0.00  0.00     0.002 A 
ENDBRANCH   1   2
BRANCH   1  12
ATOM     12  C   UNL d   1      53.366  33.420  54.096  0.00  0.00     0.021 A 
ATOM     13  C   UNL d   1      53.041  33.710  54.789  0.00  0.00     0.082 A 
ATOM     14  N   UNL d   1      53.662  33.930  55.285  0.00  0.00    -0.246 NA
ATOM     15  C   UNL d   1      52.215  33.774  54.967  0.00  0.00     0.021 C 
ATOM     16  C   UNL d   1      54.367  33.773  54.894  0.00  0.00     0.081 A 
ATOM     17  C   UNL d   1      54.185  33.459  54.160  0.00  0.00     0.019 A 
ATOM     18  C   UNL d   1      55.157  33.878  55.113  0.00  0.00     0.019 A 
ATOM     19  C   UNL d   1      54.790  33.246  53.639  0.00  0.00     0.002 A 
ATOM     20  C   UNL d   1      55.581  33.351  53.859  0.00  0.00     0.000 A 
ATOM     21  C   UNL d   1      55.764  33.666  54.593  0.00  0.00     0.002 A 
ENDBRANCH   1  12
BRANCH   1  22
ATOM     22  C   UNL d   1      52.897  32.333  53.308  0.00  0.00     0.082 A 
ATOM     23  N   UNL d   1      53.085  32.035  52.573  0.00  0.00    -0.244 NA
ATOM     24  C   UNL d   1      53.059  31.229  52.429  0.00  0.00     0.099 A 
ATOM     25  C   UNL d   1      52.834  30.718  53.058  0.00  0.00     0.021 A 
ATOM     26  C   UNL d   1      52.653  31.013  53.769  0.00  0.00     0.003 A 
ATOM     27  C   UNL d   1      52.677  31.815  53.918  0.00  0.00     0.019 A 
ENDBRANCH   1  22
TORSDOF 3
ENDMDL
MODEL 8
REMARK VINA RESULT:      -4.5      1.059      3.377
REMARK  3 active torsions:
REMARK  status: ('A' for Active; 'I' for Inactive)
REMARK    1  A    between atoms: C_5  and  C_1 
REMARK    2  A    between atoms: C_2  and  C_5 
REMARK    3  A    between atoms: C_12  and  C_5 
ROOT
ATOM      1  C   UNL d   1      53.101  33.619  53.527  0.00  0.00     0.021 C 
ENDROOT
BRANCH   1   2
ATOM      2  C   UNL d   1      53.555  32.947  53.376  0.00  0.00     0.021 A 
ATOM      3  C   UNL d   1      54.367  32.859  53.185  0.00  0.00     0.082 A 
ATOM      4  N   UNL d   1      54.502  32.051  53.097  0.00  0.00    -0.246 NA
ATOM      5  C   UNL d   1      54.933  33.459  53.100  0.00  0.00     0.021 C 
ATOM      6  C   UNL d   1      53.799  31.644  53.227  0.00  0.00     0.081 A 
ATOM      7  C   UNL d   1      53.220  32.204  53.399  0.00  0.00     0.019 A 
ATOM      8  C   UNL d   1      53.593  30.841  53.216  0.00  0.00     0.019 A 
ATOM      9  C   UNL d   1      52.445  31.968  53.557  0.00  0.00     0.002 A 
ATOM     10  C   UNL d   1      52.237  31.169  53.547  0.00  0.00     0.000 A 
ATOM     11  C   UNL d   1      52.808  30.627  53.379  0.00  0.00     0.002 A 
ENDBRANCH   1   2
BRANCH   1  12
ATOM     12  C   UNL d   1      52.573  33.910  52.951  0.00  0.00     0.021 A 
ATOM     13  C   UNL d   1      52.800  34.262  52.247  0.00  0.00     0.082 A 
ATOM     14  N   UNL d   1      52.114  34.470  51.839  0.00  0.00    -0.246 NA
ATOM     15  C   UNL d   1      53.594  34.390  51.984  0.00  0.00     0.021 C 
ATOM     16  C   UNL d   1      51.469  34.245  52.294  0.00  0.00     0.081 A 
ATOM     17  C   UNL d   1      51.752  33.900  52.980  0.00  0.00     0.019 A 
ATOM     18  C   UNL d   1      50.654  34.310  52.171  0.00  0.00     0.019 A 
ATOM     19  C   UNL d   1      51.223  33.617  53.550  0.00  0.00     0.002 A 
ATOM     20  C   UNL d   1      50.407  33.683  53.426  0.00  0.00     0.000 A 
ATOM     21  C   UNL d   1      50.124  34.028  52.739  0.00  0.00     0.002 A 
ENDBRANCH   1  12
BRANCH   1  22
ATOM     22  C   UNL d   1      53.162  34.010  54.241  0.00  0.00     0.082 A 
ATOM     23  N   UNL d   1      53.083  33.602  54.943  0.00  0.00    -0.244 NA
ATOM     24  C   UNL d   1      53.142  33.990  55.661  0.00  0.00     0.099 A 
ATOM     25  C   UNL d   1      53.287  34.819  55.658  0.00  0.00     0.021 A 
ATOM     26  C   UNL d   1      53.362  35.209  54.974  0.00  0.00     0.003 A 
ATOM     27  C   UNL d   1      53.304  34.828  54.255  0.00  0.00     0.019 A 
ENDBRANCH   1  22
TORSDOF 3
ENDMDL
