MODEL 1
REMARK VINA RESULT:      41.9      0.000      0.000
REMARK  9 active torsions:
REMARK  status: ('A' for Active; 'I' for Inactive)
REMARK    1  A    between atoms: C_2  and  S_1 
REMARK    2  A    between atoms: N_3  and  S_1 
REMARK    3  A    between atoms: C_14  and  N_3 
REMARK    4  A    between atoms: C_15  and  N_3 
REMARK    5  A    between atoms: C_6  and  C_7 
REMARK    6  A    between atoms: C_7  and  C_8 
REMARK    7  A    between atoms: C_8  and  C_12 
REMARK    8  A    between atoms: C_21  and  C_14 
REMARK    9  A    between atoms: C_20  and  C_15 
ROOT
ATOM      1  C   UNL d   1      59.787  49.585  50.636  0.00  0.00     0.104 A 
ATOM      2  C   UNL d   1      60.206  49.571  49.922  0.00  0.00     0.012 A 
ATOM      3  C   UNL d   1      58.950  49.631  50.632  0.00  0.00     0.013 A 
ATOM      4  C   UNL d   1      58.551  49.662  49.923  0.00  0.00     0.001 A 
ATOM      5  C   UNL d   1      59.807  49.602  49.213  0.00  0.00     0.001 A 
ATOM      6  C   UNL d   1      58.978  49.647  49.200  0.00  0.00     0.000 A 
ATOM      7  C   UNL d   1      61.030  49.526  49.934  0.00  0.00     0.001 C 
ENDROOT
BRANCH   1   8
ATOM      8  S   UNL d   1      60.197  49.553  51.364  0.00  0.00     0.272 S 
ATOM      9  O   UNL d   1      60.910  49.435  50.958  0.00  0.00    -0.200 OA
ATOM     10  O   UNL d   1      59.491  49.670  51.767  0.00  0.00    -0.200 OA
BRANCH   8  11
ATOM     11  N   UNL d   1      60.596  49.522  52.074  0.00  0.00    -0.223 N 
BRANCH  11  12
ATOM     12  C   UNL d   1      61.407  49.301  52.090  0.00  0.00     0.137 C 
BRANCH  12  13
ATOM     13  C   UNL d   1      61.889  49.568  52.690  0.00  0.00     0.254 C 
ATOM     14  O   UNL d   1      62.701  49.626  52.576  0.00  0.00    -0.281 OA
ENDBRANCH  12  13
ENDBRANCH  11  12
BRANCH  11  15
ATOM     15  C   UNL d   1      60.207  49.708  52.784  0.00  0.00     0.137 C 
BRANCH  15  16
ATOM     16  C   UNL d   1      60.090  49.112  53.346  0.00  0.00     0.254 C 
ATOM     17  O   UNL d   1      59.759  48.396  53.104  0.00  0.00    -0.281 OA
ENDBRANCH  15  16
ENDBRANCH  11  15
ENDBRANCH   8  11
ENDBRANCH   1   8
BRANCH   4  18
ATOM     18  C   UNL d   1      57.728  49.707  49.906  0.00  0.00     0.006 C 
BRANCH  18  19
ATOM     19  C   UNL d   1      57.280  49.023  49.940  0.00  0.00     0.070 C 
BRANCH  19  20
ATOM     20  C   UNL d   1      56.597  48.981  50.395  0.00  0.00     0.211 C 
ATOM     21  O   UNL d   1      56.470  48.311  50.880  0.00  0.00    -0.644 OA
ATOM     22  O   UNL d   1      56.049  49.575  50.380  0.00  0.00    -0.644 OA
ENDBRANCH  19  20
ENDBRANCH  18  19
ENDBRANCH   4  18
TORSDOF 9
ENDMDL
