MODEL 1
REMARK VINA RESULT:      33.5      0.000      0.000
REMARK  3 active torsions:
REMARK  status: ('A' for Active; 'I' for Inactive)
REMARK    1  A    between atoms: N_9  and  C_3 
REMARK    2  A    between atoms: C_14  and  C_4 
REMARK       I    between atoms: C_10  and  N_11 
REMARK    3  A    between atoms: C_13  and  C_10 
ROOT
ATOM      1  N   UNL d   1      45.882 -17.406  43.063  0.00  0.00    -0.196 N 
ATOM      2  C   UNL d   1      46.106 -18.180  42.912  0.00  0.00     0.167 A 
ATOM      3  C   UNL d   1      45.828 -17.131  43.840  0.00  0.00     0.152 A 
ATOM      4  C   UNL d   1      46.110 -18.291  42.099  0.00  0.00     0.057 A 
ATOM      5  N   UNL d   1      45.745 -17.034  42.344  0.00  0.00    -0.161 NA
ATOM      6  N   UNL d   1      46.281 -18.691  43.536  0.00  0.00    -0.227 NA
ATOM      7  C   UNL d   1      46.003 -17.644  44.468  0.00  0.00     0.057 A 
ATOM      8  C   UNL d   1      45.889 -17.589  41.750  0.00  0.00     0.124 A 
ATOM      9  C   UNL d   1      46.228 -18.418  44.317  0.00  0.00     0.086 A 
ATOM     10  C   UNL d   1      46.403 -18.928  44.955  0.00  0.00     0.021 C 
ENDROOT
BRANCH   3  11
ATOM     11  N   UNL d   1      45.604 -16.357  43.991  0.00  0.00    -0.286 N 
ATOM     12  C   UNL d   1      46.013 -15.727  43.663  0.00  0.00     0.101 A 
ATOM     13  C   UNL d   1      45.783 -14.945  43.817  0.00  0.00     0.102 A 
ATOM     14  N   UNL d   1      45.133 -14.803  44.308  0.00  0.00    -0.267 N 
ATOM     15  C   UNL d   1      44.895 -14.020  44.469  0.00  0.00     0.288 C 
ATOM     16  C   UNL d   1      44.722 -15.428  44.637  0.00  0.00     0.102 A 
ATOM     17  O   UNL d   1      44.250 -13.869  44.955  0.00  0.00    -0.264 OA
ATOM     18  C   UNL d   1      44.952 -16.209  44.482  0.00  0.00     0.101 A 
BRANCH  15  19
ATOM     19  C   UNL d   1      45.313 -13.392  44.135  0.00  0.00     0.156 A 
ATOM     20  O   UNL d   1      45.360 -13.106  43.370  0.00  0.00    -0.300 OA
ATOM     21  C   UNL d   1      45.873 -12.455  43.365  0.00  0.00     0.123 A 
ATOM     22  C   UNL d   1      46.134 -12.348  44.120  0.00  0.00     0.029 A 
ATOM     23  C   UNL d   1      45.795 -12.920  44.601  0.00  0.00     0.032 A 
ENDBRANCH  15  19
ENDBRANCH   3  11
BRANCH   4  24
ATOM     24  C   UNL d   1      46.288 -18.945  41.631  0.00  0.00     0.004 A 
ATOM     25  C   UNL d   1      46.465 -19.675  41.988  0.00  0.00     0.000 A 
ATOM     26  C   UNL d   1      46.643 -20.329  41.520  0.00  0.00     0.000 A 
ATOM     27  C   UNL d   1      46.645 -20.265  40.696  0.00  0.00     0.000 A 
ATOM     28  C   UNL d   1      46.469 -19.539  40.339  0.00  0.00     0.000 A 
ATOM     29  C   UNL d   1      46.291 -18.885  40.808  0.00  0.00     0.000 A 
ENDBRANCH   4  24
TORSDOF 3
ENDMDL
