MODEL 1
REMARK VINA RESULT:      -9.3      0.000      0.000
REMARK  4 active torsions:
REMARK  status: ('A' for Active; 'I' for Inactive)
REMARK    1  A    between atoms: S_2  and  C_1 
REMARK    2  A    between atoms: C_10  and  S_2 
REMARK    3  A    between atoms: N_7  and  C_5 
REMARK    4  A    between atoms: C_11  and  N_7 
ROOT
ATOM      1  C   UNL d   1      52.610  33.054  53.355  0.00  0.00     0.187 A 
ATOM      2  N   UNL d   1      52.880  32.331  53.076  0.00  0.00    -0.208 NA
ATOM      3  C   UNL d   1      53.072  33.273  54.004  0.00  0.00     0.118 A 
ATOM      4  C   UNL d   1      53.509  32.100  53.551  0.00  0.00     0.196 A 
ATOM      5  S   UNL d   1      53.626  32.674  54.116  0.00  0.00    -0.035 SA
ATOM      6 CL   UNL d   1      52.994  33.952  54.448  0.00  0.00    -0.073 Cl
ENDROOT
BRANCH   1   7
ATOM      7  S   UNL d   1      51.983  33.492  53.044  0.00  0.00     0.228 S 
ATOM      8  O   UNL d   1      51.489  32.950  53.412  0.00  0.00    -0.216 OA
ATOM      9  O   UNL d   1      52.484  34.030  52.679  0.00  0.00    -0.216 OA
BRANCH   7  10
ATOM     10  C   UNL d   1      51.305  33.874  52.770  0.00  0.00     0.089 A 
ATOM     11  C   UNL d   1      50.678  34.035  53.293  0.00  0.00     0.011 A 
ATOM     12  C   UNL d   1      49.996  34.420  53.013  0.00  0.00     0.001 A 
ATOM     13  C   UNL d   1      49.937  34.644  52.220  0.00  0.00     0.000 A 
ATOM     14  C   UNL d   1      50.572  34.479  51.699  0.00  0.00     0.001 A 
ATOM     15  C   UNL d   1      51.250  34.097  51.974  0.00  0.00     0.011 A 
ENDBRANCH   7  10
ENDBRANCH   1   7
BRANCH   4  16
ATOM     16  N   UNL d   1      53.944  31.406  53.465  0.00  0.00    -0.221 NA
BRANCH  16  17
ATOM     17  C   UNL d   1      53.564  30.678  53.508  0.00  0.00     0.087 A 
ATOM     18  C   UNL d   1      53.569  30.262  54.208  0.00  0.00     0.061 A 
ATOM     19  C   UNL d   1      53.191  29.535  54.256  0.00  0.00     0.197 A 
ATOM     20  O   UNL d   1      53.198  29.117  54.963  0.00  0.00    -0.286 OA
ATOM     21  C   UNL d   1      52.807  29.226  53.596  0.00  0.00     0.042 A 
ATOM     22  C   UNL d   1      52.805  29.652  52.889  0.00  0.00     0.005 A 
ATOM     23  C   UNL d   1      53.182  30.377  52.841  0.00  0.00     0.019 A 
ENDBRANCH  16  17
ENDBRANCH   4  16
TORSDOF 4
ENDMDL
MODEL 2
REMARK VINA RESULT:      -8.9      1.249      4.216
REMARK  4 active torsions:
REMARK  status: ('A' for Active; 'I' for Inactive)
REMARK    1  A    between atoms: S_2  and  C_1 
REMARK    2  A    between atoms: C_10  and  S_2 
REMARK    3  A    between atoms: N_7  and  C_5 
REMARK    4  A    between atoms: C_11  and  N_7 
ROOT
ATOM      1  C   UNL d   1      53.293  32.421  53.553  0.00  0.00     0.187 A 
ATOM      2  N   UNL d   1      52.638  32.915  53.545  0.00  0.00    -0.208 NA
ATOM      3  C   UNL d   1      53.971  32.884  53.464  0.00  0.00     0.118 A 
ATOM      4  C   UNL d   1      52.909  33.685  53.451  0.00  0.00     0.196 A 
ATOM      5  S   UNL d   1      53.721  33.666  53.402  0.00  0.00    -0.035 SA
ATOM      6 CL   UNL d   1      54.742  32.617  53.442  0.00  0.00    -0.073 Cl
ENDROOT
BRANCH   1   7
ATOM      7  S   UNL d   1      53.281  31.599  53.635  0.00  0.00     0.228 S 
ATOM      8  O   UNL d   1      53.009  31.578  52.861  0.00  0.00    -0.216 OA
ATOM      9  O   UNL d   1      53.553  31.630  54.409  0.00  0.00    -0.216 OA
BRANCH   7  10
ATOM     10  C   UNL d   1      53.241  30.776  53.637  0.00  0.00     0.089 A 
ATOM     11  C   UNL d   1      53.416  30.352  54.332  0.00  0.00     0.011 A 
ATOM     12  C   UNL d   1      53.374  29.521  54.330  0.00  0.00     0.001 A 
ATOM     13  C   UNL d   1      53.160  29.114  53.643  0.00  0.00     0.000 A 
ATOM     14  C   UNL d   1      52.985  29.547  52.948  0.00  0.00     0.001 A 
ATOM     15  C   UNL d   1      53.026  30.371  52.947  0.00  0.00     0.011 A 
ENDBRANCH   7  10
ENDBRANCH   1   7
BRANCH   4  16
ATOM     16  N   UNL d   1      52.435  34.358  53.414  0.00  0.00    -0.221 NA
BRANCH  16  17
ATOM     17  C   UNL d   1      51.771  34.363  52.930  0.00  0.00     0.087 A 
ATOM     18  C   UNL d   1      51.028  34.389  53.262  0.00  0.00     0.061 A 
ATOM     19  C   UNL d   1      50.363  34.395  52.784  0.00  0.00     0.197 A 
ATOM     20  O   UNL d   1      49.615  34.421  53.122  0.00  0.00    -0.286 OA
ATOM     21  C   UNL d   1      50.445  34.375  51.963  0.00  0.00     0.042 A 
ATOM     22  C   UNL d   1      51.200  34.349  51.631  0.00  0.00     0.005 A 
ATOM     23  C   UNL d   1      51.864  34.343  52.109  0.00  0.00     0.019 A 
ENDBRANCH  16  17
ENDBRANCH   4  16
TORSDOF 4
ENDMDL
MODEL 3
REMARK VINA RESULT:      -8.7      1.923      2.692
REMARK  4 active torsions:
REMARK  status: ('A' for Active; 'I' for Inactive)
REMARK    1  A    between atoms: S_2  and  C_1 
REMARK    2  A    between atoms: C_10  and  S_2 
REMARK    3  A    between atoms: N_7  and  C_5 
REMARK    4  A    between atoms: C_11  and  N_7 
ROOT
ATOM      1  C   UNL d   1      52.085  33.023  52.963  0.00  0.00     0.187 A 
ATOM      2  N   UNL d   1      52.831  33.320  53.135  0.00  0.00    -0.208 NA
ATOM      3  C   UNL d   1      52.125  32.198  52.963  0.00  0.00     0.118 A 
ATOM      4  C   UNL d   1      53.334  32.680  53.243  0.00  0.00     0.196 A 
ATOM      5  S   UNL d   1      52.905  31.997  53.138  0.00  0.00    -0.035 SA
ATOM      6 CL   UNL d   1      51.512  31.682  52.818  0.00  0.00    -0.073 Cl
ENDROOT
BRANCH   1   7
ATOM      7  S   UNL d   1      51.407  33.470  52.813  0.00  0.00     0.228 S 
ATOM      8  O   UNL d   1      51.749  33.651  52.089  0.00  0.00    -0.216 OA
ATOM      9  O   UNL d   1      51.072  33.283  53.539  0.00  0.00    -0.216 OA
BRANCH   7  10
ATOM     10  C   UNL d   1      50.764  33.935  52.588  0.00  0.00     0.089 A 
ATOM     11  C   UNL d   1      50.549  33.989  51.786  0.00  0.00     0.011 A 
ATOM     12  C   UNL d   1      49.900  34.460  51.564  0.00  0.00     0.001 A 
ATOM     13  C   UNL d   1      49.467  34.873  52.134  0.00  0.00     0.000 A 
ATOM     14  C   UNL d   1      49.689  34.813  52.939  0.00  0.00     0.001 A 
ATOM     15  C   UNL d   1      50.332  34.348  53.163  0.00  0.00     0.011 A 
ENDBRANCH   7  10
ENDBRANCH   1   7
BRANCH   4  16
ATOM     16  N   UNL d   1      54.136  32.728  53.426  0.00  0.00    -0.221 NA
BRANCH  16  17
ATOM     17  C   UNL d   1      54.370  32.967  54.177  0.00  0.00     0.087 A 
ATOM     18  C   UNL d   1      54.852  33.617  54.262  0.00  0.00     0.061 A 
ATOM     19  C   UNL d   1      55.088  33.859  55.009  0.00  0.00     0.197 A 
ATOM     20  O   UNL d   1      55.575  34.516  55.092  0.00  0.00    -0.286 OA
ATOM     21  C   UNL d   1      54.838  33.443  55.676  0.00  0.00     0.042 A 
ATOM     22  C   UNL d   1      54.350  32.784  55.584  0.00  0.00     0.005 A 
ATOM     23  C   UNL d   1      54.114  32.543  54.838  0.00  0.00     0.019 A 
ENDBRANCH  16  17
ENDBRANCH   4  16
TORSDOF 4
ENDMDL
MODEL 4
REMARK VINA RESULT:      -8.1      1.427      2.193
REMARK  4 active torsions:
REMARK  status: ('A' for Active; 'I' for Inactive)
REMARK    1  A    between atoms: S_2  and  C_1 
REMARK    2  A    between atoms: C_10  and  S_2 
REMARK    3  A    between atoms: N_7  and  C_5 
REMARK    4  A    between atoms: C_11  and  N_7 
ROOT
ATOM      1  C   UNL d   1      52.454  33.146  53.342  0.00  0.00     0.187 A 
ATOM      2  N   UNL d   1      52.951  32.541  53.098  0.00  0.00    -0.208 NA
ATOM      3  C   UNL d   1      51.676  32.933  53.168  0.00  0.00     0.118 A 
ATOM      4  C   UNL d   1      52.482  31.951  52.771  0.00  0.00     0.196 A 
ATOM      5  S   UNL d   1      51.705  32.190  52.814  0.00  0.00    -0.035 SA
ATOM      6 CL   UNL d   1      51.006  33.374  53.317  0.00  0.00    -0.073 Cl
ENDROOT
BRANCH   1   7
ATOM      7  S   UNL d   1      52.689  33.852  53.702  0.00  0.00     0.228 S 
ATOM      8  O   UNL d   1      52.613  33.452  54.415  0.00  0.00    -0.216 OA
ATOM      9  O   UNL d   1      52.762  34.244  52.985  0.00  0.00    -0.216 OA
BRANCH   7  10
ATOM     10  C   UNL d   1      52.915  34.516  54.136  0.00  0.00     0.089 A 
ATOM     11  C   UNL d   1      52.802  35.278  53.821  0.00  0.00     0.011 A 
ATOM     12  C   UNL d   1      53.032  35.944  54.262  0.00  0.00     0.001 A 
ATOM     13  C   UNL d   1      53.371  35.855  55.010  0.00  0.00     0.000 A 
ATOM     14  C   UNL d   1      53.482  35.086  55.321  0.00  0.00     0.001 A 
ATOM     15  C   UNL d   1      53.256  34.422  54.886  0.00  0.00     0.011 A 
ENDBRANCH   7  10
ENDBRANCH   1   7
BRANCH   4  16
ATOM     16  N   UNL d   1      52.756  31.241  52.456  0.00  0.00    -0.221 NA
BRANCH  16  17
ATOM     17  C   UNL d   1      53.028  30.649  52.957  0.00  0.00     0.087 A 
ATOM     18  C   UNL d   1      52.509  30.092  53.243  0.00  0.00     0.061 A 
ATOM     19  C   UNL d   1      52.775  29.499  53.744  0.00  0.00     0.197 A 
ATOM     20  O   UNL d   1      52.248  28.938  54.030  0.00  0.00    -0.286 OA
ATOM     21  C   UNL d   1      53.570  29.468  53.958  0.00  0.00     0.042 A 
ATOM     22  C   UNL d   1      54.093  30.035  53.666  0.00  0.00     0.005 A 
ATOM     23  C   UNL d   1      53.827  30.626  53.167  0.00  0.00     0.019 A 
ENDBRANCH  16  17
ENDBRANCH   4  16
TORSDOF 4
ENDMDL
MODEL 5
REMARK VINA RESULT:      -7.9      1.922      4.536
REMARK  4 active torsions:
REMARK  status: ('A' for Active; 'I' for Inactive)
REMARK    1  A    between atoms: S_2  and  C_1 
REMARK    2  A    between atoms: C_10  and  S_2 
REMARK    3  A    between atoms: N_7  and  C_5 
REMARK    4  A    between atoms: C_11  and  N_7 
ROOT
ATOM      1  C   UNL d   1      53.245  31.346  53.540  0.00  0.00     0.187 A 
ATOM      2  N   UNL d   1      53.771  31.961  53.677  0.00  0.00    -0.208 NA
ATOM      3  C   UNL d   1      52.636  31.624  53.057  0.00  0.00     0.118 A 
ATOM      4  C   UNL d   1      53.489  32.621  53.278  0.00  0.00     0.196 A 
ATOM      5  S   UNL d   1      52.798  32.417  52.901  0.00  0.00    -0.035 SA
ATOM      6 CL   UNL d   1      51.997  31.196  52.786  0.00  0.00    -0.073 Cl
ENDROOT
BRANCH   1   7
ATOM      7  S   UNL d   1      53.309  30.577  53.835  0.00  0.00     0.228 S 
ATOM      8  O   UNL d   1      53.256  30.914  54.581  0.00  0.00    -0.216 OA
ATOM      9  O   UNL d   1      53.362  30.248  53.084  0.00  0.00    -0.216 OA
BRANCH   7  10
ATOM     10  C   UNL d   1      53.368  29.843  54.206  0.00  0.00     0.089 A 
ATOM     11  C   UNL d   1      53.090  29.746  54.984  0.00  0.00     0.011 A 
ATOM     12  C   UNL d   1      53.152  29.004  55.355  0.00  0.00     0.001 A 
ATOM     13  C   UNL d   1      53.487  28.363  54.956  0.00  0.00     0.000 A 
ATOM     14  C   UNL d   1      53.765  28.467  54.174  0.00  0.00     0.001 A 
ATOM     15  C   UNL d   1      53.706  29.202  53.803  0.00  0.00     0.011 A 
ENDBRANCH   7  10
ENDBRANCH   1   7
BRANCH   4  16
ATOM     16  N   UNL d   1      53.849  33.362  53.267  0.00  0.00    -0.221 NA
BRANCH  16  17
ATOM     17  C   UNL d   1      53.497  33.994  53.657  0.00  0.00     0.087 A 
ATOM     18  C   UNL d   1      53.685  34.143  54.435  0.00  0.00     0.061 A 
ATOM     19  C   UNL d   1      53.336  34.772  54.829  0.00  0.00     0.197 A 
ATOM     20  O   UNL d   1      53.528  34.920  55.614  0.00  0.00    -0.286 OA
ATOM     21  C   UNL d   1      52.795  35.255  54.438  0.00  0.00     0.042 A 
ATOM     22  C   UNL d   1      52.607  35.100  53.649  0.00  0.00     0.005 A 
ATOM     23  C   UNL d   1      52.956  34.472  53.256  0.00  0.00     0.019 A 
ENDBRANCH  16  17
ENDBRANCH   4  16
TORSDOF 4
ENDMDL
MODEL 6
REMARK VINA RESULT:      -7.8      2.222      4.825
REMARK  4 active torsions:
REMARK  status: ('A' for Active; 'I' for Inactive)
REMARK    1  A    between atoms: S_2  and  C_1 
REMARK    2  A    between atoms: C_10  and  S_2 
REMARK    3  A    between atoms: N_7  and  C_5 
REMARK    4  A    between atoms: C_11  and  N_7 
ROOT
ATOM      1  C   UNL d   1      51.976  33.972  53.317  0.00  0.00     0.187 A 
ATOM      2  N   UNL d   1      51.201  33.753  53.477  0.00  0.00    -0.208 NA
ATOM      3  C   UNL d   1      51.998  34.334  52.575  0.00  0.00     0.118 A 
ATOM      4  C   UNL d   1      50.742  33.979  52.835  0.00  0.00     0.196 A 
ATOM      5  S   UNL d   1      51.226  34.333  52.285  0.00  0.00    -0.035 SA
ATOM      6 CL   UNL d   1      52.656  34.635  52.200  0.00  0.00    -0.073 Cl
ENDROOT
BRANCH   1   7
ATOM      7  S   UNL d   1      52.627  33.852  53.811  0.00  0.00     0.228 S 
ATOM      8  O   UNL d   1      52.619  33.075  53.547  0.00  0.00    -0.216 OA
ATOM      9  O   UNL d   1      52.628  34.631  54.069  0.00  0.00    -0.216 OA
BRANCH   7  10
ATOM     10  C   UNL d   1      53.277  33.652  54.277  0.00  0.00     0.089 A 
ATOM     11  C   UNL d   1      53.551  32.866  54.294  0.00  0.00     0.011 A 
ATOM     12  C   UNL d   1      54.207  32.669  54.766  0.00  0.00     0.001 A 
ATOM     13  C   UNL d   1      54.588  33.247  55.218  0.00  0.00     0.000 A 
ATOM     14  C   UNL d   1      54.306  34.035  55.196  0.00  0.00     0.001 A 
ATOM     15  C   UNL d   1      53.656  34.235  54.729  0.00  0.00     0.011 A 
ENDBRANCH   7  10
ENDBRANCH   1   7
BRANCH   4  16
ATOM     16  N   UNL d   1      49.929  33.864  52.765  0.00  0.00    -0.221 NA
BRANCH  16  17
ATOM     17  C   UNL d   1      49.437  34.506  52.617  0.00  0.00     0.087 A 
ATOM     18  C   UNL d   1      49.249  35.018  53.221  0.00  0.00     0.061 A 
ATOM     19  C   UNL d   1      48.758  35.660  53.078  0.00  0.00     0.197 A 
ATOM     20  O   UNL d   1      48.570  36.175  53.690  0.00  0.00    -0.286 OA
ATOM     21  C   UNL d   1      48.455  35.786  52.322  0.00  0.00     0.042 A 
ATOM     22  C   UNL d   1      48.648  35.264  51.713  0.00  0.00     0.005 A 
ATOM     23  C   UNL d   1      49.138  34.624  51.856  0.00  0.00     0.019 A 
ENDBRANCH  16  17
ENDBRANCH   4  16
TORSDOF 4
ENDMDL
