MODEL 1
REMARK VINA RESULT:      -5.9      0.000      0.000
REMARK  7 active torsions:
REMARK  status: ('A' for Active; 'I' for Inactive)
REMARK    1  A    between atoms: C_11  and  C_1 
REMARK    2  A    between atoms: C_15  and  N_3 
REMARK    3  A    between atoms: C_7  and  S_12 
REMARK    4  A    between atoms: C_13  and  C_11 
REMARK    5  A    between atoms: S_12  and  C_13 
REMARK    6  A    between atoms: C_20  and  C_15 
REMARK    7  A    between atoms: O_19  and  C_20 
ROOT
ATOM      1  C   UNL d   1     -47.214  13.594  22.883  0.00  0.00     0.057 A 
ATOM      2  C   UNL d   1     -47.926  13.206  22.974  0.00  0.00     0.067 A 
ATOM      3  N   UNL d   1     -48.511  13.767  22.855  0.00  0.00    -0.303 N 
ATOM      4  C   UNL d   1     -47.364  14.371  22.712  0.00  0.00     0.022 A 
ATOM      5  C   UNL d   1     -48.156  14.468  22.698  0.00  0.00     0.064 A 
ATOM      6  C   UNL d   1     -48.032  12.408  23.152  0.00  0.00     0.019 C 
ATOM      7  C   UNL d   1     -48.555  15.196  22.540  0.00  0.00     0.019 C 
ENDROOT
BRANCH   1   8
ATOM      8  C   UNL d   1     -46.462  13.239  22.955  0.00  0.00     0.203 C 
ATOM      9  O   UNL d   1     -46.200  13.003  23.698  0.00  0.00    -0.286 OA
BRANCH   8  10
ATOM     10  C   UNL d   1     -45.987  13.126  22.293  0.00  0.00     0.079 C 
BRANCH  10  11
ATOM     11  S   UNL d   1     -45.186  12.939  22.379  0.00  0.00    -0.056 SA
BRANCH  11  12
ATOM     12  C   UNL d   1     -44.434  12.744  22.083  0.00  0.00     0.164 A 
ATOM     13  S   UNL d   1     -44.009  13.204  21.539  0.00  0.00    -0.039 SA
ATOM     14  C   UNL d   1     -43.284  12.808  21.390  0.00  0.00     0.134 A 
ATOM     15  C   UNL d   1     -42.681  13.071  20.877  0.00  0.00     0.030 C 
ATOM     16  N   UNL d   1     -43.272  12.107  21.846  0.00  0.00    -0.140 NA
ATOM     17  N   UNL d   1     -43.991  12.076  22.273  0.00  0.00    -0.134 NA
ENDBRANCH  11  12
ENDBRANCH  10  11
ENDBRANCH   8  10
ENDBRANCH   1   8
BRANCH   3  18
ATOM     18  C   UNL d   1     -49.344  13.658  22.886  0.00  0.00     0.107 C 
BRANCH  18  19
ATOM     19  C   UNL d   1     -49.744  13.411  22.198  0.00  0.00     0.135 C 
BRANCH  19  20
ATOM     20  O   UNL d   1     -50.536  13.249  22.209  0.00  0.00    -0.325 OA
ATOM     21  C   UNL d   1     -50.877  13.176  21.615  0.00  0.00     0.182 C 
ENDBRANCH  19  20
ENDBRANCH  18  19
ENDBRANCH   3  18
TORSDOF 7
ENDMDL
MODEL 2
REMARK VINA RESULT:      -5.6      1.827      2.340
REMARK  7 active torsions:
REMARK  status: ('A' for Active; 'I' for Inactive)
REMARK    1  A    between atoms: C_11  and  C_1 
REMARK    2  A    between atoms: C_15  and  N_3 
REMARK    3  A    between atoms: C_7  and  S_12 
REMARK    4  A    between atoms: C_13  and  C_11 
REMARK    5  A    between atoms: S_12  and  C_13 
REMARK    6  A    between atoms: C_20  and  C_15 
REMARK    7  A    between atoms: O_19  and  C_20 
ROOT
ATOM      1  C   UNL d   1     -47.932  12.363  23.399  0.00  0.00     0.057 A 
ATOM      2  C   UNL d   1     -48.301  12.965  22.990  0.00  0.00     0.067 A 
ATOM      3  N   UNL d   1     -49.103  12.802  23.015  0.00  0.00    -0.303 N 
ATOM      4  C   UNL d   1     -48.497  11.848  23.665  0.00  0.00     0.022 A 
ATOM      5  C   UNL d   1     -49.208  12.123  23.427  0.00  0.00     0.064 A 
ATOM      6  C   UNL d   1     -47.935  13.608  22.626  0.00  0.00     0.019 C 
ATOM      7  C   UNL d   1     -49.951  11.753  23.585  0.00  0.00     0.019 C 
ENDROOT
BRANCH   1   8
ATOM      8  C   UNL d   1     -47.108  12.299  23.517  0.00  0.00     0.203 C 
ATOM      9  O   UNL d   1     -46.675  12.974  23.698  0.00  0.00    -0.286 OA
BRANCH   8  10
ATOM     10  C   UNL d   1     -46.732  11.570  23.455  0.00  0.00     0.079 C 
BRANCH  10  11
ATOM     11  S   UNL d   1     -45.911  11.514  23.540  0.00  0.00    -0.056 SA
BRANCH  11  12
ATOM     12  C   UNL d   1     -45.187  11.107  23.499  0.00  0.00     0.164 A 
ATOM     13  S   UNL d   1     -45.086  10.307  23.691  0.00  0.00    -0.039 SA
ATOM     14  C   UNL d   1     -44.276  10.121  23.573  0.00  0.00     0.134 A 
ATOM     15  C   UNL d   1     -43.923   9.376  23.698  0.00  0.00     0.030 C 
ATOM     16  N   UNL d   1     -43.887  10.812  23.308  0.00  0.00    -0.140 NA
ATOM     17  N   UNL d   1     -44.462  11.420  23.266  0.00  0.00    -0.134 NA
ENDBRANCH  11  12
ENDBRANCH  10  11
ENDBRANCH   8  10
ENDBRANCH   1   8
BRANCH   3  18
ATOM     18  C   UNL d   1     -49.731  13.249  22.678  0.00  0.00     0.107 C 
BRANCH  18  19
ATOM     19  C   UNL d   1     -50.016  13.916  23.089  0.00  0.00     0.135 C 
BRANCH  19  20
ATOM     20  O   UNL d   1     -50.453  14.484  22.714  0.00  0.00    -0.325 OA
ATOM     21  C   UNL d   1     -51.062  14.671  22.972  0.00  0.00     0.182 C 
ENDBRANCH  19  20
ENDBRANCH  18  19
ENDBRANCH   3  18
TORSDOF 7
ENDMDL
MODEL 3
REMARK VINA RESULT:      -4.2      8.271      9.189
REMARK  7 active torsions:
REMARK  status: ('A' for Active; 'I' for Inactive)
REMARK    1  A    between atoms: C_11  and  C_1 
REMARK    2  A    between atoms: C_15  and  N_3 
REMARK    3  A    between atoms: C_7  and  S_12 
REMARK    4  A    between atoms: C_13  and  C_11 
REMARK    5  A    between atoms: S_12  and  C_13 
REMARK    6  A    between atoms: C_20  and  C_15 
REMARK    7  A    between atoms: O_19  and  C_20 
ROOT
ATOM      1  C   UNL d   1     -39.440  15.098  19.085  0.00  0.00     0.057 A 
ATOM      2  C   UNL d   1     -39.017  15.523  18.532  0.00  0.00     0.067 A 
ATOM      3  N   UNL d   1     -39.439  15.472  17.832  0.00  0.00    -0.303 N 
ATOM      4  C   UNL d   1     -40.101  14.797  18.729  0.00  0.00     0.022 A 
ATOM      5  C   UNL d   1     -40.093  15.030  17.966  0.00  0.00     0.064 A 
ATOM      6  C   UNL d   1     -38.306  15.922  18.656  0.00  0.00     0.019 C 
ATOM      7  C   UNL d   1     -40.683  14.838  17.392  0.00  0.00     0.019 C 
ENDROOT
BRANCH   1   8
ATOM      8  C   UNL d   1     -39.217  14.996  19.884  0.00  0.00     0.203 C 
ATOM      9  O   UNL d   1     -39.270  15.635  20.399  0.00  0.00    -0.286 OA
BRANCH   8  10
ATOM     10  C   UNL d   1     -38.948  14.268  20.154  0.00  0.00     0.079 C 
BRANCH  10  11
ATOM     11  S   UNL d   1     -38.828  14.140  20.962  0.00  0.00    -0.056 SA
BRANCH  11  12
ATOM     12  C   UNL d   1     -38.583  13.682  21.612  0.00  0.00     0.164 A 
ATOM     13  S   UNL d   1     -38.819  13.815  22.396  0.00  0.00    -0.039 SA
ATOM     14  C   UNL d   1     -38.448  13.231  22.871  0.00  0.00     0.134 A 
ATOM     15  C   UNL d   1     -38.526  13.152  23.698  0.00  0.00     0.030 C 
ATOM     16  N   UNL d   1     -37.986  12.744  22.372  0.00  0.00    -0.140 NA
ATOM     17  N   UNL d   1     -38.077  13.032  21.591  0.00  0.00    -0.134 NA
ENDBRANCH  11  12
ENDBRANCH  10  11
ENDBRANCH   8  10
ENDBRANCH   1   8
BRANCH   3  18
ATOM     18  C   UNL d   1     -39.246  15.813  17.087  0.00  0.00     0.107 C 
BRANCH  18  19
ATOM     19  C   UNL d   1     -38.705  15.416  16.591  0.00  0.00     0.135 C 
BRANCH  19  20
ATOM     20  O   UNL d   1     -38.439  15.755  15.907  0.00  0.00    -0.325 OA
ATOM     21  C   UNL d   1     -37.940  15.448  15.547  0.00  0.00     0.182 C 
ENDBRANCH  19  20
ENDBRANCH  18  19
ENDBRANCH   3  18
TORSDOF 7
ENDMDL
MODEL 4
REMARK VINA RESULT:      -3.9      6.982      8.801
REMARK  7 active torsions:
REMARK  status: ('A' for Active; 'I' for Inactive)
REMARK    1  A    between atoms: C_11  and  C_1 
REMARK    2  A    between atoms: C_15  and  N_3 
REMARK    3  A    between atoms: C_7  and  S_12 
REMARK    4  A    between atoms: C_13  and  C_11 
REMARK    5  A    between atoms: S_12  and  C_13 
REMARK    6  A    between atoms: C_20  and  C_15 
REMARK    7  A    between atoms: O_19  and  C_20 
ROOT
ATOM      1  C   UNL d   1     -40.097  15.073  19.526  0.00  0.00     0.057 A 
ATOM      2  C   UNL d   1     -39.722  15.380  20.182  0.00  0.00     0.067 A 
ATOM      3  N   UNL d   1     -40.088  15.046  20.833  0.00  0.00    -0.303 N 
ATOM      4  C   UNL d   1     -40.676  14.566  19.773  0.00  0.00     0.022 A 
ATOM      5  C   UNL d   1     -40.664  14.555  20.572  0.00  0.00     0.064 A 
ATOM      6  C   UNL d   1     -39.098  15.919  20.184  0.00  0.00     0.019 C 
ATOM      7  C   UNL d   1     -41.179  14.096  21.060  0.00  0.00     0.019 C 
ENDROOT
BRANCH   1   8
ATOM      8  C   UNL d   1     -39.906  15.259  18.734  0.00  0.00     0.203 C 
ATOM      9  O   UNL d   1     -40.379  15.792  18.323  0.00  0.00    -0.286 OA
BRANCH   8  10
ATOM     10  C   UNL d   1     -39.255  14.915  18.369  0.00  0.00     0.079 C 
BRANCH  10  11
ATOM     11  S   UNL d   1     -39.218  14.861  17.544  0.00  0.00    -0.056 SA
BRANCH  11  12
ATOM     12  C   UNL d   1     -38.819  14.724  16.827  0.00  0.00     0.164 A 
ATOM     13  S   UNL d   1     -38.720  13.978  16.479  0.00  0.00    -0.039 SA
ATOM     14  C   UNL d   1     -38.290  14.089  15.767  0.00  0.00     0.134 A 
ATOM     15  C   UNL d   1     -38.063  13.488  15.235  0.00  0.00     0.030 C 
ATOM     16  N   UNL d   1     -38.130  14.906  15.685  0.00  0.00    -0.140 NA
ATOM     17  N   UNL d   1     -38.463  15.292  16.349  0.00  0.00    -0.134 NA
ENDBRANCH  11  12
ENDBRANCH  10  11
ENDBRANCH   8  10
ENDBRANCH   1   8
BRANCH   3  18
ATOM     18  C   UNL d   1     -39.913  15.175  21.646  0.00  0.00     0.107 C 
BRANCH  18  19
ATOM     19  C   UNL d   1     -39.236  14.816  21.975  0.00  0.00     0.135 C 
BRANCH  19  20
ATOM     20  O   UNL d   1     -39.022  14.951  22.743  0.00  0.00    -0.325 OA
ATOM     21  C   UNL d   1     -38.657  14.476  23.082  0.00  0.00     0.182 C 
ENDBRANCH  19  20
ENDBRANCH  18  19
ENDBRANCH   3  18
TORSDOF 7
ENDMDL
MODEL 5
REMARK VINA RESULT:      -3.9      8.164      8.874
REMARK  7 active torsions:
REMARK  status: ('A' for Active; 'I' for Inactive)
REMARK    1  A    between atoms: C_11  and  C_1 
REMARK    2  A    between atoms: C_15  and  N_3 
REMARK    3  A    between atoms: C_7  and  S_12 
REMARK    4  A    between atoms: C_13  and  C_11 
REMARK    5  A    between atoms: S_12  and  C_13 
REMARK    6  A    between atoms: C_20  and  C_15 
REMARK    7  A    between atoms: O_19  and  C_20 
ROOT
ATOM      1  C   UNL d   1     -39.109  15.469  20.501  0.00  0.00     0.057 A 
ATOM      2  C   UNL d   1     -38.540  15.040  20.898  0.00  0.00     0.067 A 
ATOM      3  N   UNL d   1     -38.677  15.161  21.696  0.00  0.00    -0.303 N 
ATOM      4  C   UNL d   1     -39.579  15.841  21.044  0.00  0.00     0.022 A 
ATOM      5  C   UNL d   1     -39.308  15.648  21.771  0.00  0.00     0.064 A 
ATOM      6  C   UNL d   1     -37.947  14.577  20.560  0.00  0.00     0.019 C 
ATOM      7  C   UNL d   1     -39.639  15.918  22.500  0.00  0.00     0.019 C 
ENDROOT
BRANCH   1   8
ATOM      8  C   UNL d   1     -39.185  15.510  19.669  0.00  0.00     0.203 C 
ATOM      9  O   UNL d   1     -38.511  15.616  19.211  0.00  0.00    -0.286 OA
BRANCH   8  10
ATOM     10  C   UNL d   1     -39.923  15.444  19.313  0.00  0.00     0.079 C 
BRANCH  10  11
ATOM     11  S   UNL d   1     -39.986  15.374  18.492  0.00  0.00    -0.056 SA
BRANCH  11  12
ATOM     12  C   UNL d   1     -40.416  15.270  17.787  0.00  0.00     0.164 A 
ATOM     13  S   UNL d   1     -40.933  15.832  17.464  0.00  0.00    -0.039 SA
ATOM     14  C   UNL d   1     -41.247  15.506  16.757  0.00  0.00     0.134 A 
ATOM     15  C   UNL d   1     -41.793  15.879  16.248  0.00  0.00     0.030 C 
ATOM     16  N   UNL d   1     -40.918  14.744  16.654  0.00  0.00    -0.140 NA
ATOM     17  N   UNL d   1     -40.403  14.606  17.299  0.00  0.00    -0.134 NA
ENDBRANCH  11  12
ENDBRANCH  10  11
ENDBRANCH   8  10
ENDBRANCH   1   8
BRANCH   3  18
ATOM     18  C   UNL d   1     -38.248  14.845  22.347  0.00  0.00     0.107 C 
BRANCH  18  19
ATOM     19  C   UNL d   1     -38.526  14.151  22.714  0.00  0.00     0.135 C 
BRANCH  19  20
ATOM     20  O   UNL d   1     -38.161  13.847  23.368  0.00  0.00    -0.325 OA
ATOM     21  C   UNL d   1     -38.247  13.183  23.529  0.00  0.00     0.182 C 
ENDBRANCH  19  20
ENDBRANCH  18  19
ENDBRANCH   3  18
TORSDOF 7
ENDMDL
MODEL 6
REMARK VINA RESULT:      -3.6      8.092      9.619
REMARK  7 active torsions:
REMARK  status: ('A' for Active; 'I' for Inactive)
REMARK    1  A    between atoms: C_11  and  C_1 
REMARK    2  A    between atoms: C_15  and  N_3 
REMARK    3  A    between atoms: C_7  and  S_12 
REMARK    4  A    between atoms: C_13  and  C_11 
REMARK    5  A    between atoms: S_12  and  C_13 
REMARK    6  A    between atoms: C_20  and  C_15 
REMARK    7  A    between atoms: O_19  and  C_20 
ROOT
ATOM      1  C   UNL d   1     -39.263  14.532  17.915  0.00  0.00     0.057 A 
ATOM      2  C   UNL d   1     -38.688  14.247  17.410  0.00  0.00     0.067 A 
ATOM      3  N   UNL d   1     -38.724  14.712  16.737  0.00  0.00    -0.303 N 
ATOM      4  C   UNL d   1     -39.637  15.152  17.556  0.00  0.00     0.022 A 
ATOM      5  C   UNL d   1     -39.303  15.256  16.838  0.00  0.00     0.064 A 
ATOM      6  C   UNL d   1     -38.176  13.618  17.553  0.00  0.00     0.019 C 
ATOM      7  C   UNL d   1     -39.527  15.846  16.277  0.00  0.00     0.019 C 
ENDROOT
BRANCH   1   8
ATOM      8  C   UNL d   1     -39.429  14.225  18.674  0.00  0.00     0.203 C 
ATOM      9  O   UNL d   1     -39.992  13.631  18.752  0.00  0.00    -0.286 OA
BRANCH   8  10
ATOM     10  C   UNL d   1     -39.035  14.512  19.336  0.00  0.00     0.079 C 
BRANCH  10  11
ATOM     11  S   UNL d   1     -39.336  14.376  20.094  0.00  0.00    -0.056 SA
BRANCH  11  12
ATOM     12  C   UNL d   1     -39.300  14.412  20.924  0.00  0.00     0.164 A 
ATOM     13  S   UNL d   1     -39.029  13.798  21.410  0.00  0.00    -0.039 SA
ATOM     14  C   UNL d   1     -39.085  14.063  22.205  0.00  0.00     0.134 A 
ATOM     15  C   UNL d   1     -38.872  13.626  22.882  0.00  0.00     0.030 C 
ATOM     16  N   UNL d   1     -39.392  14.841  22.197  0.00  0.00    -0.140 NA
ATOM     17  N   UNL d   1     -39.523  15.049  21.397  0.00  0.00    -0.134 NA
ENDBRANCH  11  12
ENDBRANCH  10  11
ENDBRANCH   8  10
ENDBRANCH   1   8
BRANCH   3  18
ATOM     18  C   UNL d   1     -38.251  14.653  16.044  0.00  0.00     0.107 C 
BRANCH  18  19
ATOM     19  C   UNL d   1     -38.437  14.070  15.477  0.00  0.00     0.135 C 
BRANCH  19  20
ATOM     20  O   UNL d   1     -37.940  13.913  14.859  0.00  0.00    -0.325 OA
ATOM     21  C   UNL d   1     -38.185  13.604  14.295  0.00  0.00     0.182 C 
ENDBRANCH  19  20
ENDBRANCH  18  19
ENDBRANCH   3  18
TORSDOF 7
ENDMDL
MODEL 7
REMARK VINA RESULT:      -3.2      2.157      4.865
REMARK  7 active torsions:
REMARK  status: ('A' for Active; 'I' for Inactive)
REMARK    1  A    between atoms: C_11  and  C_1 
REMARK    2  A    between atoms: C_15  and  N_3 
REMARK    3  A    between atoms: C_7  and  S_12 
REMARK    4  A    between atoms: C_13  and  C_11 
REMARK    5  A    between atoms: S_12  and  C_13 
REMARK    6  A    between atoms: C_20  and  C_15 
REMARK    7  A    between atoms: O_19  and  C_20 
ROOT
ATOM      1  C   UNL d   1     -47.171  12.689  23.220  0.00  0.00     0.057 A 
ATOM      2  C   UNL d   1     -46.472  12.275  23.141  0.00  0.00     0.067 A 
ATOM      3  N   UNL d   1     -45.889  12.834  23.002  0.00  0.00    -0.303 N 
ATOM      4  C   UNL d   1     -47.016  13.478  23.130  0.00  0.00     0.022 A 
ATOM      5  C   UNL d   1     -46.232  13.557  22.997  0.00  0.00     0.064 A 
ATOM      6  C   UNL d   1     -46.375  11.458  23.193  0.00  0.00     0.019 C 
ATOM      7  C   UNL d   1     -45.832  14.291  22.873  0.00  0.00     0.019 C 
ENDROOT
BRANCH   1   8
ATOM      8  C   UNL d   1     -47.918  12.344  23.368  0.00  0.00     0.203 C 
ATOM      9  O   UNL d   1     -47.969  11.530  23.474  0.00  0.00    -0.286 OA
BRANCH   8  10
ATOM     10  C   UNL d   1     -48.593  12.811  23.409  0.00  0.00     0.079 C 
BRANCH  10  11
ATOM     11  S   UNL d   1     -49.249  12.640  22.935  0.00  0.00    -0.056 SA
BRANCH  11  12
ATOM     12  C   UNL d   1     -49.875  12.851  22.429  0.00  0.00     0.164 A 
ATOM     13  S   UNL d   1     -50.032  13.624  22.174  0.00  0.00    -0.039 SA
ATOM     14  C   UNL d   1     -50.706  13.592  21.676  0.00  0.00     0.134 A 
ATOM     15  C   UNL d   1     -51.063  14.241  21.293  0.00  0.00     0.030 C 
ATOM     16  N   UNL d   1     -50.957  12.795  21.631  0.00  0.00    -0.140 NA
ATOM     17  N   UNL d   1     -50.434  12.342  22.103  0.00  0.00    -0.134 NA
ENDBRANCH  11  12
ENDBRANCH  10  11
ENDBRANCH   8  10
ENDBRANCH   1   8
BRANCH   3  18
ATOM     18  C   UNL d   1     -45.068  12.702  22.880  0.00  0.00     0.107 C 
BRANCH  18  19
ATOM     19  C   UNL d   1     -44.770  12.706  22.101  0.00  0.00     0.135 C 
BRANCH  19  20
ATOM     20  O   UNL d   1     -44.007  12.488  21.943  0.00  0.00    -0.325 OA
ATOM     21  C   UNL d   1     -43.766  12.536  21.301  0.00  0.00     0.182 C 
ENDBRANCH  19  20
ENDBRANCH  18  19
ENDBRANCH   3  18
TORSDOF 7
ENDMDL
