MODEL 1
REMARK VINA RESULT:      -4.4      0.000      0.000
REMARK  3 active torsions:
REMARK  status: ('A' for Active; 'I' for Inactive)
REMARK    1  A    between atoms: C_10  and  N_1 
REMARK    2  A    between atoms: C_11  and  C_14 
REMARK    3  A    between atoms: O_20  and  C_11 
ROOT
ATOM      1  N   UNL d   1      57.785  -0.039  31.109  0.00  0.00    -0.242 N 
ATOM      2  C   UNL d   1      57.823  -0.316  30.350  0.00  0.00     0.267 A 
ATOM      3  C   UNL d   1      58.494   0.322  31.323  0.00  0.00     0.267 A 
ATOM      4  C   UNL d   1      58.585  -0.126  30.067  0.00  0.00     0.061 A 
ATOM      5  C   UNL d   1      58.993   0.261  30.657  0.00  0.00     0.061 A 
ATOM      6  C   UNL d   1      59.771   0.520  30.534  0.00  0.00     0.005 A 
ATOM      7  C   UNL d   1      58.943  -0.267  29.335  0.00  0.00     0.005 A 
ATOM      8  C   UNL d   1      60.119   0.375  29.804  0.00  0.00     0.000 A 
ATOM      9  C   UNL d   1      59.711  -0.012  29.214  0.00  0.00     0.000 A 
ATOM     10  O   UNL d   1      57.205  -0.707  29.964  0.00  0.00    -0.267 OA
ATOM     11  O   UNL d   1      58.686   0.682  32.060  0.00  0.00    -0.267 OA
ATOM     12  C   UNL d   1      60.920   0.643  29.684  0.00  0.00     0.000 C 
ATOM     13  C   UNL d   1      60.072  -0.163  28.455  0.00  0.00     0.000 C 
ENDROOT
BRANCH   1  14
ATOM     14  C   UNL d   1      57.168  -0.072  31.651  0.00  0.00     0.070 A 
ATOM     15  C   UNL d   1      56.831   0.629  31.942  0.00  0.00     0.018 A 
ATOM     16  C   UNL d   1      56.217   0.610  32.483  0.00  0.00     0.007 A 
ATOM     17  C   UNL d   1      55.941  -0.123  32.732  0.00  0.00     0.063 A 
ATOM     18  C   UNL d   1      56.274  -0.828  32.445  0.00  0.00     0.007 A 
ATOM     19  C   UNL d   1      56.886  -0.786  31.905  0.00  0.00     0.018 A 
BRANCH  17  20
ATOM     20  C   UNL d   1      55.307  -0.158  33.290  0.00  0.00     0.296 C 
ATOM     21  O   UNL d   1      55.217  -0.807  33.766  0.00  0.00    -0.259 OA
BRANCH  20  22
ATOM     22  O   UNL d   1      54.789   0.476  33.336  0.00  0.00    -0.296 OA
ATOM     23  C   UNL d   1      54.461   0.679  34.057  0.00  0.00     0.185 C 
ENDBRANCH  20  22
ENDBRANCH  17  20
ENDBRANCH   1  14
TORSDOF 3
ENDMDL
MODEL 2
REMARK VINA RESULT:      -4.0      1.058      1.680
REMARK  3 active torsions:
REMARK  status: ('A' for Active; 'I' for Inactive)
REMARK    1  A    between atoms: C_10  and  N_1 
REMARK    2  A    between atoms: C_11  and  C_14 
REMARK    3  A    between atoms: O_20  and  C_11 
ROOT
ATOM      1  N   UNL d   1      57.359  -0.531  31.348  0.00  0.00    -0.242 N 
ATOM      2  C   UNL d   1      57.933  -0.099  30.978  0.00  0.00     0.267 A 
ATOM      3  C   UNL d   1      57.308  -1.287  31.023  0.00  0.00     0.267 A 
ATOM      4  C   UNL d   1      58.264  -0.596  30.393  0.00  0.00     0.061 A 
ATOM      5  C   UNL d   1      57.884  -1.317  30.420  0.00  0.00     0.061 A 
ATOM      6  C   UNL d   1      58.096  -1.926  29.900  0.00  0.00     0.005 A 
ATOM      7  C   UNL d   1      58.867  -0.462  29.844  0.00  0.00     0.005 A 
ATOM      8  C   UNL d   1      58.696  -1.785  29.358  0.00  0.00     0.000 A 
ATOM      9  C   UNL d   1      59.076  -1.064  29.330  0.00  0.00     0.000 A 
ATOM     10  O   UNL d   1      58.127   0.681  31.169  0.00  0.00    -0.267 OA
ATOM     11  O   UNL d   1      56.785  -1.909  31.247  0.00  0.00    -0.267 OA
ATOM     12  C   UNL d   1      58.910  -2.416  28.825  0.00  0.00     0.000 C 
ATOM     13  C   UNL d   1      59.700  -0.915  28.767  0.00  0.00     0.000 C 
ENDROOT
BRANCH   1  14
ATOM     14  C   UNL d   1      56.858  -0.322  31.964  0.00  0.00     0.070 A 
ATOM     15  C   UNL d   1      56.588   0.460  32.035  0.00  0.00     0.018 A 
ATOM     16  C   UNL d   1      56.089   0.682  32.644  0.00  0.00     0.007 A 
ATOM     17  C   UNL d   1      55.859   0.109  33.187  0.00  0.00     0.063 A 
ATOM     18  C   UNL d   1      56.125  -0.676  33.122  0.00  0.00     0.007 A 
ATOM     19  C   UNL d   1      56.624  -0.875  32.506  0.00  0.00     0.018 A 
BRANCH  17  20
ATOM     20  C   UNL d   1      55.343   0.323  33.821  0.00  0.00     0.296 C 
ATOM     21  O   UNL d   1      54.545   0.199  33.759  0.00  0.00    -0.259 OA
BRANCH  20  22
ATOM     22  O   UNL d   1      55.669   0.656  34.496  0.00  0.00    -0.296 OA
ATOM     23  C   UNL d   1      55.239   0.665  35.192  0.00  0.00     0.185 C 
ENDBRANCH  20  22
ENDBRANCH  17  20
ENDBRANCH   1  14
TORSDOF 3
ENDMDL
MODEL 3
REMARK VINA RESULT:      -2.8      1.011      1.396
REMARK  3 active torsions:
REMARK  status: ('A' for Active; 'I' for Inactive)
REMARK    1  A    between atoms: C_10  and  N_1 
REMARK    2  A    between atoms: C_11  and  C_14 
REMARK    3  A    between atoms: O_20  and  C_11 
ROOT
ATOM      1  N   UNL d   1      57.271  -0.654  31.465  0.00  0.00    -0.242 N 
ATOM      2  C   UNL d   1      57.305  -1.331  31.026  0.00  0.00     0.267 A 
ATOM      3  C   UNL d   1      57.809  -0.096  31.185  0.00  0.00     0.267 A 
ATOM      4  C   UNL d   1      57.888  -1.204  30.441  0.00  0.00     0.061 A 
ATOM      5  C   UNL d   1      58.194  -0.455  30.537  0.00  0.00     0.061 A 
ATOM      6  C   UNL d   1      58.787  -0.172  30.032  0.00  0.00     0.005 A 
ATOM      7  C   UNL d   1      58.166  -1.695  29.836  0.00  0.00     0.005 A 
ATOM      8  C   UNL d   1      59.058  -0.666  29.434  0.00  0.00     0.000 A 
ATOM      9  C   UNL d   1      58.752  -1.415  29.337  0.00  0.00     0.000 A 
ATOM     10  O   UNL d   1      56.838  -2.000  31.160  0.00  0.00    -0.267 OA
ATOM     11  O   UNL d   1      57.950   0.679  31.483  0.00  0.00    -0.267 OA
ATOM     12  C   UNL d   1      59.669  -0.369  28.917  0.00  0.00     0.000 C 
ATOM     13  C   UNL d   1      59.032  -1.929  28.716  0.00  0.00     0.000 C 
ENDROOT
BRANCH   1  14
ATOM     14  C   UNL d   1      56.797  -0.469  32.111  0.00  0.00     0.070 A 
ATOM     15  C   UNL d   1      56.093  -0.887  32.245  0.00  0.00     0.018 A 
ATOM     16  C   UNL d   1      55.613  -0.713  32.884  0.00  0.00     0.007 A 
ATOM     17  C   UNL d   1      55.845  -0.111  33.393  0.00  0.00     0.063 A 
ATOM     18  C   UNL d   1      56.549   0.313  33.264  0.00  0.00     0.007 A 
ATOM     19  C   UNL d   1      57.014   0.122  32.620  0.00  0.00     0.018 A 
BRANCH  17  20
ATOM     20  C   UNL d   1      55.360   0.081  34.057  0.00  0.00     0.296 C 
ATOM     21  O   UNL d   1      54.562   0.184  33.965  0.00  0.00    -0.259 OA
BRANCH  20  22
ATOM     22  O   UNL d   1      55.715   0.160  34.792  0.00  0.00    -0.296 OA
ATOM     23  C   UNL d   1      55.377   0.649  35.355  0.00  0.00     0.185 C 
ENDBRANCH  20  22
ENDBRANCH  17  20
ENDBRANCH   1  14
TORSDOF 3
ENDMDL
