MODEL 1
REMARK VINA RESULT:      -6.9      0.000      0.000
REMARK  3 active torsions:
REMARK  status: ('A' for Active; 'I' for Inactive)
REMARK    1  A    between atoms: N_3  and  S_1 
REMARK    2  A    between atoms: C_7  and  S_1 
REMARK    3  A    between atoms: C_10  and  N_3 
ROOT
ATOM      1  S   UNL d   1     -41.649-122.919 -52.001  0.00  0.00     0.327 S 
ATOM      2  O   UNL d   1     -41.886-123.627 -51.659  0.00  0.00    -0.186 OA
ATOM      3  O   UNL d   1     -41.450-122.278 -51.526  0.00  0.00    -0.186 OA
ENDROOT
BRANCH   1   4
ATOM      4  N   UNL d   1     -41.689-122.995 -51.185  0.00  0.00    -0.314 NA
BRANCH   4   5
ATOM      5  C   UNL d   1     -41.731-123.072 -50.351  0.00  0.00     0.184 A 
ATOM      6  C   UNL d   1     -42.395-122.778 -49.947  0.00  0.00     0.226 A 
ATOM      7  O   UNL d   1     -43.004-122.416 -50.359  0.00  0.00    -0.284 OA
ATOM      8  C   UNL d   1     -42.433-122.855 -49.124  0.00  0.00     0.045 A 
ATOM      9  C   UNL d   1     -41.816-123.221 -48.714  0.00  0.00     0.004 A 
ATOM     10  C   UNL d   1     -41.163-123.509 -49.123  0.00  0.00     0.003 A 
ATOM     11  C   UNL d   1     -41.123-123.432 -49.943  0.00  0.00     0.036 A 
ENDBRANCH   4   5
ENDBRANCH   1   4
BRANCH   1  12
ATOM     12  C   UNL d   1     -41.612-122.852 -52.818  0.00  0.00     0.118 A 
ATOM     13  C   UNL d   1     -42.013-122.245 -53.197  0.00  0.00     0.035 A 
ATOM     14  C   UNL d   1     -41.978-122.173 -54.021  0.00  0.00     0.105 A 
ATOM     15  N   UNL d   1     -42.314-121.634 -54.547  0.00  0.00    -0.189 NA
ATOM     16  C   UNL d   1     -41.535-122.719 -54.464  0.00  0.00     0.104 A 
ATOM     17  C   UNL d   1     -42.081-121.844 -55.318  0.00  0.00     0.369 A 
ATOM     18  O   UNL d   1     -42.292-121.453 -56.011  0.00  0.00    -0.242 OA
ATOM     19  N   UNL d   1     -41.600-122.513 -55.260  0.00  0.00    -0.189 NA
ATOM     20  C   UNL d   1     -41.131-123.330 -54.078  0.00  0.00     0.022 A 
ATOM     21  C   UNL d   1     -41.173-123.392 -53.257  0.00  0.00     0.016 A 
ENDBRANCH   1  12
TORSDOF 3
ENDMDL
MODEL 2
REMARK VINA RESULT:      -5.7      1.185      1.595
REMARK  3 active torsions:
REMARK  status: ('A' for Active; 'I' for Inactive)
REMARK    1  A    between atoms: N_3  and  S_1 
REMARK    2  A    between atoms: C_7  and  S_1 
REMARK    3  A    between atoms: C_10  and  N_3 
ROOT
ATOM      1  S   UNL d   1     -41.609-122.945 -50.813  0.00  0.00     0.327 S 
ATOM      2  O   UNL d   1     -41.123-122.606 -50.245  0.00  0.00    -0.186 OA
ATOM      3  O   UNL d   1     -42.223-123.442 -50.584  0.00  0.00    -0.186 OA
ENDROOT
BRANCH   1   4
ATOM      4  N   UNL d   1     -41.729-123.097 -50.015  0.00  0.00    -0.314 NA
BRANCH   4   5
ATOM      5  C   UNL d   1     -41.852-123.253 -49.200  0.00  0.00     0.184 A 
ATOM      6  C   UNL d   1     -42.570-123.028 -48.846  0.00  0.00     0.226 A 
ATOM      7  O   UNL d   1     -43.152-122.657 -49.287  0.00  0.00    -0.284 OA
ATOM      8  C   UNL d   1     -42.688-123.183 -48.042  0.00  0.00     0.045 A 
ATOM      9  C   UNL d   1     -42.097-123.558 -47.601  0.00  0.00     0.004 A 
ATOM     10  C   UNL d   1     -41.391-123.776 -47.962  0.00  0.00     0.003 A 
ATOM     11  C   UNL d   1     -41.271-123.622 -48.763  0.00  0.00     0.036 A 
ENDBRANCH   4   5
ENDBRANCH   1   4
BRANCH   1  12
ATOM     12  C   UNL d   1     -41.481-122.788 -51.608  0.00  0.00     0.118 A 
ATOM     13  C   UNL d   1     -41.520-123.397 -52.156  0.00  0.00     0.035 A 
ATOM     14  C   UNL d   1     -41.392-123.243 -52.959  0.00  0.00     0.105 A 
ATOM     15  N   UNL d   1     -41.393-123.728 -53.626  0.00  0.00    -0.189 NA
ATOM     16  C   UNL d   1     -41.224-122.468 -53.209  0.00  0.00     0.104 A 
ATOM     17  C   UNL d   1     -41.227-123.257 -54.291  0.00  0.00     0.369 A 
ATOM     18  O   UNL d   1     -41.175-123.519 -55.070  0.00  0.00    -0.242 OA
ATOM     19  N   UNL d   1     -41.123-122.481 -54.028  0.00  0.00    -0.189 NA
ATOM     20  C   UNL d   1     -41.186-121.856 -52.652  0.00  0.00     0.022 A 
ATOM     21  C   UNL d   1     -41.315-122.021 -51.855  0.00  0.00     0.016 A 
ENDBRANCH   1  12
TORSDOF 3
ENDMDL
