MODEL 1
REMARK VINA RESULT:      -5.7      0.000      0.000
REMARK  6 active torsions:
REMARK  status: ('A' for Active; 'I' for Inactive)
REMARK    1  A    between atoms: C_2  and  C_4 
REMARK    2  A    between atoms: C_3  and  C_2 
REMARK       I    between atoms: N_8  and  C_3 
REMARK    3  A    between atoms: C_5  and  C_9 
REMARK    4  A    between atoms: O_16  and  C_5 
REMARK    5  A    between atoms: C_15  and  N_8 
REMARK    6  A    between atoms: C_21  and  O_16 
ROOT
ATOM      1  C   UNL d   1     -42.036-123.204 -49.663  0.00  0.00     0.064 A 
ATOM      2  C   UNL d   1     -41.568-123.775 -50.039  0.00  0.00     0.007 A 
ATOM      3  C   UNL d   1     -42.199-122.487 -50.049  0.00  0.00     0.007 A 
ATOM      4  C   UNL d   1     -41.435-122.910 -51.169  0.00  0.00     0.085 A 
ATOM      5  C   UNL d   1     -41.898-122.344 -50.798  0.00  0.00     0.019 A 
ATOM      6  C   UNL d   1     -41.267-123.630 -50.791  0.00  0.00     0.019 A 
ENDROOT
BRANCH   4   7
ATOM      7  N   UNL d   1     -41.133-122.765 -51.921  0.00  0.00    -0.208 NA
ATOM      8  C   UNL d   1     -41.426-123.179 -52.574  0.00  0.00     0.281 C 
ATOM      9  O   UNL d   1     -42.023-123.738 -52.462  0.00  0.00    -0.265 OA
BRANCH   8  10
ATOM     10  C   UNL d   1     -41.125-123.033 -53.322  0.00  0.00     0.086 C 
BRANCH  10  11
ATOM     11  C   UNL d   1     -41.597-122.666 -53.898  0.00  0.00     0.144 A 
ATOM     12  C   UNL d   1     -41.610-122.966 -54.667  0.00  0.00     0.297 A 
ATOM     13  N   UNL d   1     -42.074-122.610 -55.246  0.00  0.00    -0.204 NA
ATOM     14  O   UNL d   1     -41.151-123.630 -54.856  0.00  0.00    -0.264 OA
ATOM     15  C   UNL d   1     -42.525-121.951 -55.047  0.00  0.00     0.123 A 
ATOM     16  C   UNL d   1     -42.512-121.652 -54.278  0.00  0.00     0.120 A 
ATOM     17  N   UNL d   1     -42.048-122.010 -53.705  0.00  0.00    -0.237 NA
ENDBRANCH  10  11
ENDBRANCH   8  10
ENDBRANCH   4   7
BRANCH   1  18
ATOM     18  C   UNL d   1     -42.338-123.352 -48.907  0.00  0.00     0.300 C 
ATOM     19  O   UNL d   1     -43.072-123.719 -48.820  0.00  0.00    -0.259 OA
BRANCH  18  20
ATOM     20  O   UNL d   1     -41.909-123.134 -48.240  0.00  0.00    -0.271 OA
BRANCH  20  21
ATOM     21  C   UNL d   1     -42.228-123.247 -47.493  0.00  0.00     0.126 C 
ATOM     22  C   UNL d   1     -41.798-123.044 -46.827  0.00  0.00     0.029 C 
ENDBRANCH  20  21
ENDBRANCH  18  20
ENDBRANCH   1  18
TORSDOF 6
ENDMDL
MODEL 2
REMARK VINA RESULT:      -4.4      1.482      5.187
REMARK  6 active torsions:
REMARK  status: ('A' for Active; 'I' for Inactive)
REMARK    1  A    between atoms: C_2  and  C_4 
REMARK    2  A    between atoms: C_3  and  C_2 
REMARK       I    between atoms: N_8  and  C_3 
REMARK    3  A    between atoms: C_5  and  C_9 
REMARK    4  A    between atoms: O_16  and  C_5 
REMARK    5  A    between atoms: C_15  and  N_8 
REMARK    6  A    between atoms: C_21  and  O_16 
ROOT
ATOM      1  C   UNL d   1     -41.444-122.621 -53.496  0.00  0.00     0.064 A 
ATOM      2  C   UNL d   1     -41.554-121.965 -53.001  0.00  0.00     0.007 A 
ATOM      3  C   UNL d   1     -41.228-123.352 -53.167  0.00  0.00     0.007 A 
ATOM      4  C   UNL d   1     -41.231-122.776 -51.868  0.00  0.00     0.085 A 
ATOM      5  C   UNL d   1     -41.123-123.425 -52.357  0.00  0.00     0.019 A 
ATOM      6  C   UNL d   1     -41.447-122.041 -52.189  0.00  0.00     0.019 A 
ENDROOT
BRANCH   4   7
ATOM      7  N   UNL d   1     -41.125-122.851 -51.056  0.00  0.00    -0.208 NA
ATOM      8  C   UNL d   1     -41.693-122.555 -50.533  0.00  0.00     0.281 C 
ATOM      9  O   UNL d   1     -42.365-122.184 -50.835  0.00  0.00    -0.265 OA
BRANCH   8  10
ATOM     10  C   UNL d   1     -41.585-122.630 -49.724  0.00  0.00     0.086 C 
BRANCH  10  11
ATOM     11  C   UNL d   1     -42.149-123.029 -49.264  0.00  0.00     0.144 A 
ATOM     12  C   UNL d   1     -41.992-123.182 -48.468  0.00  0.00     0.297 A 
ATOM     13  N   UNL d   1     -42.544-123.577 -48.002  0.00  0.00    -0.204 NA
ATOM     14  O   UNL d   1     -41.273-122.935 -48.137  0.00  0.00    -0.264 OA
ATOM     15  C   UNL d   1     -43.254-123.817 -48.342  0.00  0.00     0.123 A 
ATOM     16  C   UNL d   1     -43.410-123.665 -49.138  0.00  0.00     0.120 A 
ATOM     17  N   UNL d   1     -42.857-123.271 -49.597  0.00  0.00    -0.237 NA
ENDBRANCH  10  11
ENDBRANCH   8  10
ENDBRANCH   4   7
BRANCH   1  18
ATOM     18  C   UNL d   1     -41.551-122.543 -54.312  0.00  0.00     0.300 C 
ATOM     19  O   UNL d   1     -41.303-123.144 -54.821  0.00  0.00    -0.259 OA
BRANCH  18  20
ATOM     20  O   UNL d   1     -41.906-121.868 -54.621  0.00  0.00    -0.271 OA
BRANCH  20  21
ATOM     21  C   UNL d   1     -42.393-121.925 -55.278  0.00  0.00     0.126 C 
ATOM     22  C   UNL d   1     -42.192-121.543 -55.974  0.00  0.00     0.029 C 
ENDBRANCH  20  21
ENDBRANCH  18  20
ENDBRANCH   1  18
TORSDOF 6
ENDMDL
