MODEL 1
REMARK VINA RESULT:      -5.0      0.000      0.000
REMARK  2 active torsions:
REMARK  status: ('A' for Active; 'I' for Inactive)
REMARK    1  A    between atoms: C_9  and  C_4 
REMARK    2  A    between atoms: C_13  and  C_6 
ROOT
ATOM      1  N   UNL d   1     -41.613-122.174 -51.666  0.00  0.00    -0.185 N 
ATOM      2  C   UNL d   1     -41.444-121.542 -51.159  0.00  0.00     0.219 A 
ATOM      3  N   UNL d   1     -41.911-122.786 -51.215  0.00  0.00    -0.153 NA
ATOM      4  C   UNL d   1     -41.932-122.545 -50.431  0.00  0.00     0.156 A 
ATOM      5  S   UNL d   1     -41.644-121.776 -50.395  0.00  0.00    -0.024 SA
ATOM      6  C   UNL d   1     -41.414-121.944 -52.432  0.00  0.00     0.187 A 
ATOM      7  N   UNL d   1     -41.123-121.169 -52.401  0.00  0.00    -0.127 NA
ATOM      8  N   UNL d   1     -41.143-120.925 -51.612  0.00  0.00    -0.120 NA
ENDROOT
BRANCH   6   9
ATOM      9  C   UNL d   1     -41.489-122.398 -53.112  0.00  0.00     0.038 A 
ATOM     10  C   UNL d   1     -41.123-123.135 -53.163  0.00  0.00     0.004 A 
ATOM     11  C   UNL d   1     -41.199-123.589 -53.844  0.00  0.00     0.011 A 
ATOM     12  C   UNL d   1     -41.644-123.302 -54.476  0.00  0.00     0.058 A 
ATOM     13  C   UNL d   1     -42.013-122.561 -54.425  0.00  0.00     0.011 A 
ATOM     14 CL   UNL d   1     -41.723-123.756 -55.164  0.00  0.00    -0.082 Cl
ATOM     15  C   UNL d   1     -41.930-122.119 -53.742  0.00  0.00     0.004 A 
ENDBRANCH   6   9
BRANCH   4  16
ATOM     16  C   UNL d   1     -42.196-122.991 -49.787  0.00  0.00     0.126 A 
ATOM     17  O   UNL d   1     -41.836-123.016 -49.044  0.00  0.00    -0.298 OA
ATOM     18  C   UNL d   1     -42.277-123.526 -48.571  0.00  0.00     0.134 A 
ATOM     19 BR   UNL d   1     -42.123-123.719 -47.788  0.00  0.00    -0.022 Br
ATOM     20  C   UNL d   1     -42.912-123.817 -49.020  0.00  0.00     0.034 A 
ATOM     21  C   UNL d   1     -42.860-123.485 -49.772  0.00  0.00     0.029 A 
ENDBRANCH   4  16
TORSDOF 2
ENDMDL
