MODEL 1
REMARK VINA RESULT:      74.6      0.000      0.000
REMARK  5 active torsions:
REMARK  status: ('A' for Active; 'I' for Inactive)
REMARK    1  A    between atoms: C_7  and  C_1 
REMARK    2  A    between atoms: C_8  and  C_2 
REMARK    3  A    between atoms: O_16  and  C_8 
REMARK    4  A    between atoms: O_17  and  C_12 
REMARK    5  A    between atoms: C_21  and  O_16 
ROOT
ATOM      1  C   UNL d   1     -56.487 -99.385 -44.373  0.00  0.00     0.069 A 
ATOM      2  C   UNL d   1     -56.314 -99.602 -43.596  0.00  0.00     0.166 A 
ATOM      3  C   UNL d   1     -57.245 -99.119 -44.568  0.00  0.00     0.200 A 
ATOM      4  O   UNL d   1     -56.892 -99.556 -43.003  0.00  0.00    -0.301 OA
ATOM      5  C   UNL d   1     -57.825 -99.071 -43.983  0.00  0.00     0.062 A 
ATOM      6  C   UNL d   1     -57.648 -99.288 -43.207  0.00  0.00     0.106 A 
ATOM      7  C   UNL d   1     -58.240 -99.238 -42.615  0.00  0.00     0.067 A 
ATOM      8  C   UNL d   1     -58.587 -98.804 -44.177  0.00  0.00     0.009 A 
ATOM      9  O   UNL d   1     -57.425 -98.901 -45.343  0.00  0.00    -0.286 OA
ATOM     10  C   UNL d   1     -58.993 -98.973 -42.811  0.00  0.00     0.198 A 
ATOM     11  C   UNL d   1     -59.168 -98.755 -43.596  0.00  0.00     0.042 A 
ATOM     12  O   UNL d   1     -59.574 -98.924 -42.231  0.00  0.00    -0.286 OA
ENDROOT
BRANCH   1  13
ATOM     13  C   UNL d   1     -55.905 -99.435 -44.954  0.00  0.00     0.028 A 
ATOM     14  C   UNL d   1     -55.558-100.166 -45.114  0.00  0.00     0.094 A 
ATOM     15  C   UNL d   1     -54.976-100.217 -45.695  0.00  0.00     0.024 A 
ATOM     16  C   UNL d   1     -54.738 -99.543 -46.115  0.00  0.00     0.002 A 
ATOM     17  C   UNL d   1     -55.092 -98.817 -45.946  0.00  0.00     0.000 A 
ATOM     18  C   UNL d   1     -55.677 -98.760 -45.365  0.00  0.00     0.002 A 
BRANCH  14  19
ATOM     19  O   UNL d   1     -55.792-100.831 -44.700  0.00  0.00    -0.328 OA
ATOM     20  C   UNL d   1     -55.467-101.565 -44.891  0.00  0.00     0.181 C 
ENDBRANCH  14  19
ENDBRANCH   1  13
BRANCH   2  21
ATOM     21  C   UNL d   1     -55.551 -99.869 -43.402  0.00  0.00     0.323 C 
ATOM     22  O   UNL d   1     -55.009-100.031 -44.005  0.00  0.00    -0.257 OA
BRANCH  21  23
ATOM     23  O   UNL d   1     -55.338 -99.971 -42.611  0.00  0.00    -0.270 OA
BRANCH  23  24
ATOM     24  C   UNL d   1     -54.790-100.543 -42.412  0.00  0.00     0.126 C 
ATOM     25  C   UNL d   1     -54.754-100.833 -41.641  0.00  0.00     0.029 C 
ENDBRANCH  23  24
ENDBRANCH  21  23
ENDBRANCH   2  21
TORSDOF 5
ENDMDL
