MODEL 1
REMARK VINA RESULT:      -5.8      0.000      0.000
REMARK  3 active torsions:
REMARK  status: ('A' for Active; 'I' for Inactive)
REMARK    1  A    between atoms: C_7  and  C_4 
REMARK    2  A    between atoms: C_8  and  C_7 
REMARK    3  A    between atoms: C_11  and  C_8 
ROOT
ATOM      1  N   UNL d   1      59.007  -0.385  29.431  0.00  0.00    -0.269 N 
ATOM      2  C   UNL d   1      58.496  -0.116  30.019  0.00  0.00     0.282 A 
ATOM      3  N   UNL d   1      57.997  -1.439  30.186  0.00  0.00    -0.239 NA
ATOM      4  C   UNL d   1      57.992  -0.642  30.396  0.00  0.00     0.138 A 
ATOM      5  C   UNL d   1      59.012  -1.182  29.222  0.00  0.00     0.085 A 
ATOM      6  C   UNL d   1      58.508  -1.708  29.598  0.00  0.00     0.098 A 
ATOM      7  O   UNL d   1      58.490   0.682  30.229  0.00  0.00    -0.265 OA
ATOM      8  C   UNL d   1      59.291   0.558  29.384  0.00  0.00     0.102 C 
ATOM      9  C   UNL d   1      59.524  -1.452  28.633  0.00  0.00     0.019 A 
ATOM     10  C   UNL d   1      58.513  -2.506  29.388  0.00  0.00     0.021 A 
ATOM     11  C   UNL d   1      59.509  -2.207  28.455  0.00  0.00     0.002 A 
ATOM     12  C   UNL d   1      59.005  -2.733  28.832  0.00  0.00     0.002 A 
ENDROOT
BRANCH   4  13
ATOM     13  C   UNL d   1      57.480  -0.372  30.984  0.00  0.00     0.024 C 
BRANCH  13  14
ATOM     14  C   UNL d   1      57.036  -0.910  31.424  0.00  0.00     0.002 C 
BRANCH  14  15
ATOM     15  C   UNL d   1      56.558  -0.644  32.042  0.00  0.00     0.000 A 
ATOM     16  C   UNL d   1      56.436   0.165  32.150  0.00  0.00     0.000 A 
ATOM     17  C   UNL d   1      55.959   0.431  32.767  0.00  0.00     0.000 A 
ATOM     18  C   UNL d   1      55.603  -0.111  33.277  0.00  0.00     0.000 A 
ATOM     19  C   UNL d   1      55.725  -0.920  33.170  0.00  0.00     0.000 A 
ATOM     20  C   UNL d   1      56.203  -1.186  32.552  0.00  0.00     0.000 A 
ENDBRANCH  14  15
ENDBRANCH  13  14
ENDBRANCH   4  13
TORSDOF 3
ENDMDL
MODEL 2
REMARK VINA RESULT:      -5.6      1.693      2.059
REMARK  3 active torsions:
REMARK  status: ('A' for Active; 'I' for Inactive)
REMARK    1  A    between atoms: C_7  and  C_4 
REMARK    2  A    between atoms: C_8  and  C_7 
REMARK    3  A    between atoms: C_11  and  C_8 
ROOT
ATOM      1  N   UNL d   1      58.846   0.571  29.272  0.00  0.00    -0.269 N 
ATOM      2  C   UNL d   1      58.163   0.529  29.732  0.00  0.00     0.282 A 
ATOM      3  N   UNL d   1      58.960   0.557  30.912  0.00  0.00    -0.239 NA
ATOM      4  C   UNL d   1      58.220   0.522  30.550  0.00  0.00     0.138 A 
ATOM      5  C   UNL d   1      59.586   0.606  29.634  0.00  0.00     0.085 A 
ATOM      6  C   UNL d   1      59.643   0.599  30.452  0.00  0.00     0.098 A 
ATOM      7  O   UNL d   1      57.422   0.494  29.371  0.00  0.00    -0.265 OA
ATOM      8  C   UNL d   1      58.218   0.547  28.513  0.00  0.00     0.102 C 
ATOM      9  C   UNL d   1      60.269   0.649  29.174  0.00  0.00     0.019 A 
ATOM     10  C   UNL d   1      60.383   0.635  30.814  0.00  0.00     0.021 A 
ATOM     11  C   UNL d   1      60.953   0.681  29.540  0.00  0.00     0.002 A 
ATOM     12  C   UNL d   1      61.010   0.674  30.358  0.00  0.00     0.002 A 
ENDROOT
BRANCH   4  13
ATOM     13  C   UNL d   1      57.536   0.480  31.011  0.00  0.00     0.024 C 
BRANCH  13  14
ATOM     14  C   UNL d   1      57.582   0.233  31.796  0.00  0.00     0.002 C 
BRANCH  14  15
ATOM     15  C   UNL d   1      56.893   0.045  32.210  0.00  0.00     0.000 A 
ATOM     16  C   UNL d   1      56.651  -0.743  32.270  0.00  0.00     0.000 A 
ATOM     17  C   UNL d   1      55.963  -0.932  32.684  0.00  0.00     0.000 A 
ATOM     18  C   UNL d   1      55.517  -0.335  33.039  0.00  0.00     0.000 A 
ATOM     19  C   UNL d   1      55.760   0.452  32.979  0.00  0.00     0.000 A 
ATOM     20  C   UNL d   1      56.448   0.641  32.564  0.00  0.00     0.000 A 
ENDBRANCH  14  15
ENDBRANCH  13  14
ENDBRANCH   4  13
TORSDOF 3
ENDMDL
