MODEL 1
REMARK VINA RESULT:      87.4      0.000      0.000
REMARK  5 active torsions:
REMARK  status: ('A' for Active; 'I' for Inactive)
REMARK    1  A    between atoms: N_6  and  C_1 
REMARK    2  A    between atoms: C_8  and  C_2 
REMARK    3  A    between atoms: C_11  and  C_3 
REMARK       I    between atoms: C_7  and  N_6 
REMARK    4  A    between atoms: C_9  and  C_7 
REMARK    5  A    between atoms: C_20  and  C_11 
ROOT
ATOM      1  C   UNL d   1     -54.851-101.198 -40.704  0.00  0.00     0.119 A 
ATOM      2  C   UNL d   1     -55.025-101.522 -41.436  0.00  0.00     0.084 A 
ATOM      3  C   UNL d   1     -54.814-100.210 -41.602  0.00  0.00     0.031 A 
ATOM      4  S   UNL d   1     -54.719-100.385 -40.797  0.00  0.00    -0.068 SA
ATOM      5  C   UNL d   1     -55.002-100.910 -41.994  0.00  0.00     0.013 A 
ATOM      6  C   UNL d   1     -55.142-100.979 -42.806  0.00  0.00     0.001 C 
ENDROOT
BRANCH   1   7
ATOM      7  N   UNL d   1     -54.813-101.618 -39.978  0.00  0.00    -0.201 NA
ATOM      8  C   UNL d   1     -54.893-101.211 -39.255  0.00  0.00     0.280 C 
ATOM      9  O   UNL d   1     -55.010-100.395 -39.246  0.00  0.00    -0.265 OA
BRANCH   8  10
ATOM     10  C   UNL d   1     -54.854-101.632 -38.542  0.00  0.00     0.058 A 
ATOM     11  C   UNL d   1     -54.834-101.225 -37.820  0.00  0.00     0.005 A 
ATOM     12  C   UNL d   1     -54.797-101.638 -37.132  0.00  0.00     0.000 A 
ATOM     13  C   UNL d   1     -54.778-101.197 -36.423  0.00  0.00     0.000 A 
ATOM     14  C   UNL d   1     -54.777-102.449 -37.108  0.00  0.00     0.000 A 
ATOM     15  C   UNL d   1     -54.740-101.590 -35.710  0.00  0.00     0.000 A 
ATOM     16  C   UNL d   1     -54.720-102.413 -35.682  0.00  0.00     0.000 A 
ATOM     17  C   UNL d   1     -54.739-102.841 -36.391  0.00  0.00     0.000 A 
ATOM     18  C   UNL d   1     -54.797-102.878 -37.843  0.00  0.00     0.000 A 
ATOM     19  C   UNL d   1     -54.836-102.456 -38.552  0.00  0.00     0.005 A 
ENDBRANCH   8  10
ENDBRANCH   1   7
BRANCH   2  20
ATOM     20  C   UNL d   1     -55.194-102.312 -41.602  0.00  0.00     0.299 C 
ATOM     21  O   UNL d   1     -55.947-102.665 -41.296  0.00  0.00    -0.264 OA
ATOM     22  N   UNL d   1     -54.712-102.742 -42.015  0.00  0.00    -0.102 N 
ENDBRANCH   2  20
BRANCH   3  23
ATOM     23  C   UNL d   1     -54.752 -99.495 -42.027  0.00  0.00     0.007 C 
BRANCH  23  24
ATOM     24  C   UNL d   1     -55.156 -99.409 -42.750  0.00  0.00     0.003 A 
ATOM     25  C   UNL d   1     -55.981 -99.493 -42.769  0.00  0.00     0.026 A 
ATOM     26  C   UNL d   1     -56.388 -99.409 -43.479  0.00  0.00     0.119 A 
ATOM     27  O   UNL d   1     -57.184 -99.462 -43.662  0.00  0.00    -0.300 OA
ATOM     28  C   UNL d   1     -55.977 -99.241 -44.173  0.00  0.00     0.119 A 
ATOM     29  C   UNL d   1     -57.270 -99.327 -44.465  0.00  0.00     0.304 A 
ATOM     30  O   UNL d   1     -56.522 -99.190 -44.780  0.00  0.00    -0.300 OA
ATOM     31  C   UNL d   1     -55.159 -99.156 -44.158  0.00  0.00     0.026 A 
ATOM     32  C   UNL d   1     -54.745 -99.240 -43.444  0.00  0.00     0.002 A 
ENDBRANCH  23  24
ENDBRANCH   3  23
TORSDOF 5
ENDMDL
