MODEL 1
REMARK VINA RESULT:       1.6      0.000      0.000
REMARK  4 active torsions:
REMARK  status: ('A' for Active; 'I' for Inactive)
REMARK    1  A    between atoms: C_2  and  N_1 
REMARK    2  A    between atoms: C_14  and  C_7 
REMARK    3  A    between atoms: O_20  and  C_14 
REMARK    4  A    between atoms: C_23  and  O_20 
ROOT
ATOM      1  C   UNL d   1     -41.972-123.123 -51.285  0.00  0.00     0.105 A 
ATOM      2  C   UNL d   1     -41.590-122.462 -51.613  0.00  0.00     0.086 A 
ATOM      3  S   UNL d   1     -42.095-123.679 -51.874  0.00  0.00    -0.069 SA
ATOM      4  C   UNL d   1     -41.492-122.650 -52.416  0.00  0.00     0.013 A 
ATOM      5  C   UNL d   1     -41.799-123.388 -52.569  0.00  0.00     0.031 A 
ATOM      6  C   UNL d   1     -41.157-122.237 -53.040  0.00  0.00     0.001 A 
ATOM      7  C   UNL d   1     -41.780-123.710 -53.303  0.00  0.00     0.006 A 
ATOM      8  C   UNL d   1     -41.129-122.557 -53.802  0.00  0.00     0.000 A 
ATOM      9  C   UNL d   1     -41.442-123.296 -53.934  0.00  0.00     0.001 A 
ENDROOT
BRANCH   1  10
ATOM     10  N   UNL d   1     -42.157-123.114 -50.467  0.00  0.00    -0.236 N 
ATOM     11  C   UNL d   1     -42.841-122.750 -50.197  0.00  0.00     0.266 A 
ATOM     12  C   UNL d   1     -42.846-122.845 -49.393  0.00  0.00     0.069 A 
ATOM     13  O   UNL d   1     -43.404-122.364 -50.688  0.00  0.00    -0.267 OA
ATOM     14  C   UNL d   1     -43.384-122.602 -48.822  0.00  0.00     0.165 A 
ATOM     15  C   UNL d   1     -42.162-123.270 -49.164  0.00  0.00     0.069 A 
ATOM     16  C   UNL d   1     -43.259-122.771 -48.023  0.00  0.00     0.006 A 
ATOM     17  O   UNL d   1     -42.608-123.052 -48.828  0.00  0.00    -0.341 OA
ATOM     18  C   UNL d   1     -42.575-123.196 -47.794  0.00  0.00     0.006 A 
ATOM     19  C   UNL d   1     -42.038-123.438 -48.370  0.00  0.00     0.165 A 
ATOM     20  C   UNL d   1     -41.742-123.432 -49.829  0.00  0.00     0.266 A 
ATOM     21  O   UNL d   1     -41.142-123.777 -49.860  0.00  0.00    -0.267 OA
ENDBRANCH   1  10
BRANCH   2  22
ATOM     22  C   UNL d   1     -41.355-121.765 -51.230  0.00  0.00     0.302 C 
ATOM     23  O   UNL d   1     -41.123-121.732 -50.744  0.00  0.00    -0.259 OA
BRANCH  22  24
ATOM     24  O   UNL d   1     -41.482-121.026 -51.621  0.00  0.00    -0.271 OA
BRANCH  24  25
ATOM     25  C   UNL d   1     -41.126-120.365 -51.328  0.00  0.00     0.126 C 
ATOM     26  C   UNL d   1     -41.222-119.649 -51.753  0.00  0.00     0.029 C 
ENDBRANCH  24  25
ENDBRANCH  22  24
ENDBRANCH   2  22
TORSDOF 4
ENDMDL
MODEL 2
REMARK VINA RESULT:       3.4      1.141      3.929
REMARK  4 active torsions:
REMARK  status: ('A' for Active; 'I' for Inactive)
REMARK    1  A    between atoms: C_2  and  N_1 
REMARK    2  A    between atoms: C_14  and  C_7 
REMARK    3  A    between atoms: O_20  and  C_14 
REMARK    4  A    between atoms: C_23  and  O_20 
ROOT
ATOM      1  C   UNL d   1     -41.653-122.900 -50.901  0.00  0.00     0.105 A 
ATOM      2  C   UNL d   1     -42.304-122.658 -50.444  0.00  0.00     0.086 A 
ATOM      3  S   UNL d   1     -41.125-123.301 -50.420  0.00  0.00    -0.069 SA
ATOM      4  C   UNL d   1     -42.138-122.932 -49.678  0.00  0.00     0.013 A 
ATOM      5  C   UNL d   1     -41.424-123.320 -49.668  0.00  0.00     0.031 A 
ATOM      6  C   UNL d   1     -42.555-122.875 -48.973  0.00  0.00     0.001 A 
ATOM      7  C   UNL d   1     -41.127-123.642 -48.997  0.00  0.00     0.006 A 
ATOM      8  C   UNL d   1     -42.261-123.202 -48.273  0.00  0.00     0.000 A 
ATOM      9  C   UNL d   1     -41.544-123.587 -48.285  0.00  0.00     0.001 A 
ENDROOT
BRANCH   1  10
ATOM     10  N   UNL d   1     -41.643-122.710 -51.718  0.00  0.00    -0.236 N 
ATOM     11  C   UNL d   1     -41.388-121.972 -51.971  0.00  0.00     0.266 A 
ATOM     12  C   UNL d   1     -41.449-121.977 -52.779  0.00  0.00     0.069 A 
ATOM     13  O   UNL d   1     -41.123-121.357 -51.464  0.00  0.00    -0.267 OA
ATOM     14  C   UNL d   1     -41.277-121.401 -53.338  0.00  0.00     0.165 A 
ATOM     15  C   UNL d   1     -41.743-122.721 -53.026  0.00  0.00     0.069 A 
ATOM     16  C   UNL d   1     -41.390-121.546 -54.144  0.00  0.00     0.006 A 
ATOM     17  O   UNL d   1     -41.589-122.242 -53.352  0.00  0.00    -0.341 OA
ATOM     18  C   UNL d   1     -41.683-122.290 -54.391  0.00  0.00     0.006 A 
ATOM     19  C   UNL d   1     -41.855-122.865 -53.826  0.00  0.00     0.165 A 
ATOM     20  C   UNL d   1     -41.860-123.167 -52.369  0.00  0.00     0.266 A 
ATOM     21  O   UNL d   1     -42.099-123.817 -52.353  0.00  0.00    -0.267 OA
ENDBRANCH   1  10
BRANCH   2  22
ATOM     22  C   UNL d   1     -42.973-122.237 -50.692  0.00  0.00     0.302 C 
ATOM     23  O   UNL d   1     -42.973-121.777 -50.975  0.00  0.00    -0.259 OA
BRANCH  22  24
ATOM     24  O   UNL d   1     -43.737-122.539 -50.494  0.00  0.00    -0.271 OA
BRANCH  24  25
ATOM     25  C   UNL d   1     -44.378-122.055 -50.566  0.00  0.00     0.126 C 
ATOM     26  C   UNL d   1     -45.028-122.188 -50.054  0.00  0.00     0.029 C 
ENDBRANCH  24  25
ENDBRANCH  22  24
ENDBRANCH   2  22
TORSDOF 4
ENDMDL
