MODEL 1
REMARK VINA RESULT:       4.8      0.000      0.000
REMARK  1 active torsions:
REMARK  status: ('A' for Active; 'I' for Inactive)
REMARK    1  A    between atoms: C_6  and  C_1 
ROOT
ATOM      1  C   UNL d   1     -50.884  25.359  33.327  0.00  0.00     0.168 A 
ATOM      2  C   UNL d   1     -51.374  24.697  33.324  0.00  0.00     0.045 A 
ATOM      3  N   UNL d   1     -50.100  25.105  33.317  0.00  0.00    -0.142 NA
ATOM      4  N   UNL d   1     -50.103  24.277  33.307  0.00  0.00    -0.148 NA
ATOM      5  C   UNL d   1     -50.902  24.025  33.312  0.00  0.00     0.105 A 
ATOM      6  C   UNL d   1     -52.196  24.612  33.331  0.00  0.00     0.003 A 
ATOM      7  C   UNL d   1     -51.231  23.268  33.306  0.00  0.00     0.021 A 
ATOM      8  C   UNL d   1     -52.535  23.863  33.325  0.00  0.00     0.000 A 
ATOM      9  C   UNL d   1     -52.052  23.189  33.313  0.00  0.00     0.002 A 
ATOM     10  C   UNL d   1     -53.358  23.778  33.332  0.00  0.00     0.000 C 
ENDROOT
BRANCH   1  11
ATOM     11  C   UNL d   1     -51.136  26.144  33.339  0.00  0.00     0.231 C 
ATOM     12  O   UNL d   1     -51.943  26.324  33.307  0.00  0.00    -0.643 OA
ATOM     13  O   UNL d   1     -50.582  26.755  33.382  0.00  0.00    -0.643 OA
ENDBRANCH   1  11
TORSDOF 1
ENDMDL
MODEL 2
REMARK VINA RESULT:       5.0      1.442      2.457
REMARK  1 active torsions:
REMARK  status: ('A' for Active; 'I' for Inactive)
REMARK    1  A    between atoms: C_6  and  C_1 
ROOT
ATOM      1  C   UNL d   1     -52.321  23.912  33.410  0.00  0.00     0.168 A 
ATOM      2  C   UNL d   1     -51.848  24.586  33.392  0.00  0.00     0.045 A 
ATOM      3  N   UNL d   1     -51.834  23.248  33.365  0.00  0.00    -0.142 NA
ATOM      4  N   UNL d   1     -51.051  23.513  33.319  0.00  0.00    -0.148 NA
ATOM      5  C   UNL d   1     -51.063  24.350  33.335  0.00  0.00     0.105 A 
ATOM      6  C   UNL d   1     -52.027  25.392  33.419  0.00  0.00     0.003 A 
ATOM      7  C   UNL d   1     -50.450  24.902  33.306  0.00  0.00     0.021 A 
ATOM      8  C   UNL d   1     -51.423  25.951  33.390  0.00  0.00     0.000 A 
ATOM      9  C   UNL d   1     -50.634  25.706  33.333  0.00  0.00     0.002 A 
ATOM     10  C   UNL d   1     -51.602  26.758  33.417  0.00  0.00     0.000 C 
ENDROOT
BRANCH   1  11
ATOM     11  C   UNL d   1     -53.143  23.902  33.464  0.00  0.00     0.231 C 
ATOM     12  O   UNL d   1     -53.580  24.588  33.306  0.00  0.00    -0.643 OA
ATOM     13  O   UNL d   1     -53.536  23.207  33.677  0.00  0.00    -0.643 OA
ENDBRANCH   1  11
TORSDOF 1
ENDMDL
