MODEL 1
REMARK VINA RESULT:      -7.0      0.000      0.000
REMARK  9 active torsions:
REMARK  status: ('A' for Active; 'I' for Inactive)
REMARK    1  A    between atoms: C_6  and  N_1 
REMARK    2  A    between atoms: C_7  and  C_2 
REMARK    3  A    between atoms: C_3  and  C_9 
REMARK    4  A    between atoms: O_5  and  C_3 
REMARK    5  A    between atoms: C_4  and  O_5 
REMARK    6  A    between atoms: C_8  and  C_7 
REMARK    7  A    between atoms: C_12  and  C_8 
REMARK    8  A    between atoms: C_10  and  C_12 
REMARK    9  A    between atoms: O_25  and  C_23 
ROOT
ATOM      1  C   UNL d   1     -48.568  12.549  22.678  0.00  0.00     0.064 A 
ATOM      2  C   UNL d   1     -47.796  12.366  22.903  0.00  0.00     0.106 A 
ATOM      3  C   UNL d   1     -49.198  12.079  22.945  0.00  0.00     0.029 A 
ATOM      4  C   UNL d   1     -47.654  11.711  23.395  0.00  0.00     0.027 A 
ATOM      5  C   UNL d   1     -49.054  11.432  23.432  0.00  0.00     0.094 A 
ATOM      6  C   UNL d   1     -48.281  11.248  23.657  0.00  0.00     0.026 A 
ENDROOT
BRANCH   2   7
ATOM      7  O   UNL d   1     -47.165  12.828  22.642  0.00  0.00    -0.273 OA
BRANCH   7   8
ATOM      8  C   UNL d   1     -46.422  12.742  22.990  0.00  0.00     0.300 C 
ATOM      9  O   UNL d   1     -46.340  12.335  23.698  0.00  0.00    -0.259 OA
BRANCH   8  10
ATOM     10  C   UNL d   1     -45.761  13.068  22.622  0.00  0.00     0.065 A 
ATOM     11  C   UNL d   1     -45.152  12.578  22.371  0.00  0.00     0.029 A 
ATOM     12  C   UNL d   1     -44.492  12.895  22.004  0.00  0.00     0.127 A 
ATOM     13  C   UNL d   1     -44.434  13.714  21.883  0.00  0.00     0.024 A 
ATOM     14  C   UNL d   1     -45.048  14.203  22.137  0.00  0.00     0.002 A 
ATOM     15  C   UNL d   1     -45.715  13.882  22.508  0.00  0.00     0.005 A 
BRANCH  12  16
ATOM     16  N   UNL d   1     -43.872  12.402  21.747  0.00  0.00    -0.114 N 
ATOM     17  O   UNL d   1     -43.549  11.846  22.255  0.00  0.00    -0.532 OA
ATOM     18  O   UNL d   1     -43.589  12.484  20.973  0.00  0.00    -0.532 OA
ENDBRANCH  12  16
ENDBRANCH   8  10
ENDBRANCH   7   8
ENDBRANCH   2   7
BRANCH   1  19
ATOM     19  C   UNL d   1     -48.711  13.200  22.189  0.00  0.00     0.198 C 
ATOM     20  O   UNL d   1     -48.624  13.127  21.371  0.00  0.00    -0.286 OA
BRANCH  19  21
ATOM     21  C   UNL d   1     -48.940  13.920  22.516  0.00  0.00     0.043 C 
BRANCH  21  22
ATOM     22  C   UNL d   1     -49.546  14.355  22.168  0.00  0.00     0.010 C 
BRANCH  22  23
ATOM     23  C   UNL d   1     -49.951  14.919  22.609  0.00  0.00     0.030 A 
ATOM     24  S   UNL d   1     -49.623  15.458  23.140  0.00  0.00    -0.086 SA
ATOM     25  C   UNL d   1     -50.229  15.919  23.457  0.00  0.00     0.035 A 
ATOM     26  C   UNL d   1     -50.939  15.669  23.124  0.00  0.00     0.007 A 
ATOM     27  C   UNL d   1     -50.770  15.052  22.601  0.00  0.00     0.007 A 
ENDBRANCH  22  23
ENDBRANCH  21  22
ENDBRANCH  19  21
ENDBRANCH   1  19
BRANCH   5  28
ATOM     28  O   UNL d   1     -49.681  10.968  23.695  0.00  0.00    -0.328 OA
ATOM     29  C   UNL d   1     -50.452  11.249  23.639  0.00  0.00     0.181 C 
ENDBRANCH   5  28
TORSDOF 9
ENDMDL
MODEL 2
REMARK VINA RESULT:      -5.7      1.587      3.980
REMARK  9 active torsions:
REMARK  status: ('A' for Active; 'I' for Inactive)
REMARK    1  A    between atoms: C_6  and  N_1 
REMARK    2  A    between atoms: C_7  and  C_2 
REMARK    3  A    between atoms: C_3  and  C_9 
REMARK    4  A    between atoms: O_5  and  C_3 
REMARK    5  A    between atoms: C_4  and  O_5 
REMARK    6  A    between atoms: C_8  and  C_7 
REMARK    7  A    between atoms: C_12  and  C_8 
REMARK    8  A    between atoms: C_10  and  C_12 
REMARK    9  A    between atoms: O_25  and  C_23 
ROOT
ATOM      1  C   UNL d   1     -46.049  13.592  22.640  0.00  0.00     0.064 A 
ATOM      2  C   UNL d   1     -46.345  12.823  22.685  0.00  0.00     0.106 A 
ATOM      3  C   UNL d   1     -45.310  13.728  22.287  0.00  0.00     0.029 A 
ATOM      4  C   UNL d   1     -45.902  12.191  22.376  0.00  0.00     0.027 A 
ATOM      5  C   UNL d   1     -44.874  13.101  21.982  0.00  0.00     0.094 A 
ATOM      6  C   UNL d   1     -45.170  12.332  22.027  0.00  0.00     0.026 A 
ENDROOT
BRANCH   2   7
ATOM      7  O   UNL d   1     -47.078  12.678  23.034  0.00  0.00    -0.273 OA
BRANCH   7   8
ATOM      8  C   UNL d   1     -47.397  11.917  23.019  0.00  0.00     0.300 C 
ATOM      9  O   UNL d   1     -46.903  11.261  23.010  0.00  0.00    -0.259 OA
BRANCH   8  10
ATOM     10  C   UNL d   1     -48.214  11.820  23.015  0.00  0.00     0.065 A 
ATOM     11  C   UNL d   1     -48.640  11.993  22.334  0.00  0.00     0.029 A 
ATOM     12  C   UNL d   1     -49.454  11.899  22.321  0.00  0.00     0.127 A 
ATOM     13  C   UNL d   1     -49.854  11.628  22.996  0.00  0.00     0.024 A 
ATOM     14  C   UNL d   1     -49.422  11.456  23.678  0.00  0.00     0.002 A 
ATOM     15  C   UNL d   1     -48.600  11.551  23.690  0.00  0.00     0.005 A 
BRANCH  12  16
ATOM     16  N   UNL d   1     -49.890  12.073  21.633  0.00  0.00    -0.114 N 
ATOM     17  O   UNL d   1     -49.512  12.130  20.908  0.00  0.00    -0.532 OA
ATOM     18  O   UNL d   1     -50.708  12.186  21.696  0.00  0.00    -0.532 OA
ENDBRANCH  12  16
ENDBRANCH   8  10
ENDBRANCH   7   8
ENDBRANCH   2   7
BRANCH   1  19
ATOM     19  C   UNL d   1     -46.488  14.221  22.947  0.00  0.00     0.198 C 
ATOM     20  O   UNL d   1     -46.313  14.518  23.697  0.00  0.00    -0.286 OA
BRANCH  19  21
ATOM     21  C   UNL d   1     -47.099  14.551  22.506  0.00  0.00     0.043 C 
BRANCH  21  22
ATOM     22  C   UNL d   1     -47.482  15.228  22.776  0.00  0.00     0.010 C 
BRANCH  22  23
ATOM     23  C   UNL d   1     -48.270  15.360  22.579  0.00  0.00     0.030 A 
ATOM     24  S   UNL d   1     -48.573  15.502  21.825  0.00  0.00    -0.086 SA
ATOM     25  C   UNL d   1     -49.389  15.604  21.882  0.00  0.00     0.035 A 
ATOM     26  C   UNL d   1     -49.599  15.525  22.674  0.00  0.00     0.007 A 
ATOM     27  C   UNL d   1     -48.911  15.374  23.106  0.00  0.00     0.007 A 
ENDBRANCH  22  23
ENDBRANCH  21  22
ENDBRANCH  19  21
ENDBRANCH   1  19
BRANCH   5  28
ATOM     28  O   UNL d   1     -44.142  13.240  21.633  0.00  0.00    -0.328 OA
ATOM     29  C   UNL d   1     -43.542  12.680  21.698  0.00  0.00     0.181 C 
ENDBRANCH   5  28
TORSDOF 9
ENDMDL
MODEL 3
REMARK VINA RESULT:      -5.2      1.428      2.784
REMARK  9 active torsions:
REMARK  status: ('A' for Active; 'I' for Inactive)
REMARK    1  A    between atoms: C_6  and  N_1 
REMARK    2  A    between atoms: C_7  and  C_2 
REMARK    3  A    between atoms: C_3  and  C_9 
REMARK    4  A    between atoms: O_5  and  C_3 
REMARK    5  A    between atoms: C_4  and  O_5 
REMARK    6  A    between atoms: C_8  and  C_7 
REMARK    7  A    between atoms: C_12  and  C_8 
REMARK    8  A    between atoms: C_10  and  C_12 
REMARK    9  A    between atoms: O_25  and  C_23 
ROOT
ATOM      1  C   UNL d   1     -48.028  13.754  22.316  0.00  0.00     0.064 A 
ATOM      2  C   UNL d   1     -47.236  13.924  22.468  0.00  0.00     0.106 A 
ATOM      3  C   UNL d   1     -48.579  14.373  22.262  0.00  0.00     0.029 A 
ATOM      4  C   UNL d   1     -46.994  14.713  22.567  0.00  0.00     0.027 A 
ATOM      5  C   UNL d   1     -48.337  15.153  22.360  0.00  0.00     0.094 A 
ATOM      6  C   UNL d   1     -47.544  15.323  22.512  0.00  0.00     0.026 A 
ENDROOT
BRANCH   2   7
ATOM      7  O   UNL d   1     -46.682  13.315  22.524  0.00  0.00    -0.273 OA
BRANCH   7   8
ATOM      8  C   UNL d   1     -45.925  13.474  22.813  0.00  0.00     0.300 C 
ATOM      9  O   UNL d   1     -45.788  14.141  23.271  0.00  0.00    -0.259 OA
BRANCH   8  10
ATOM     10  C   UNL d   1     -45.309  12.957  22.638  0.00  0.00     0.065 A 
ATOM     11  C   UNL d   1     -45.242  12.250  23.050  0.00  0.00     0.029 A 
ATOM     12  C   UNL d   1     -44.631  11.730  22.883  0.00  0.00     0.127 A 
ATOM     13  C   UNL d   1     -44.075  11.914  22.295  0.00  0.00     0.024 A 
ATOM     14  C   UNL d   1     -44.146  12.626  21.884  0.00  0.00     0.002 A 
ATOM     15  C   UNL d   1     -44.763  13.151  22.054  0.00  0.00     0.005 A 
BRANCH  12  16
ATOM     16  N   UNL d   1     -44.560  11.011  23.298  0.00  0.00    -0.114 N 
ATOM     17  O   UNL d   1     -45.218  10.669  23.647  0.00  0.00    -0.532 OA
ATOM     18  O   UNL d   1     -43.816  10.652  23.350  0.00  0.00    -0.532 OA
ENDBRANCH  12  16
ENDBRANCH   8  10
ENDBRANCH   7   8
ENDBRANCH   2   7
BRANCH   1  19
ATOM     19  C   UNL d   1     -48.270  12.970  22.218  0.00  0.00     0.198 C 
ATOM     20  O   UNL d   1     -48.110  12.575  21.512  0.00  0.00    -0.286 OA
BRANCH  19  21
ATOM     21  C   UNL d   1     -48.670  12.583  22.824  0.00  0.00     0.043 C 
BRANCH  21  22
ATOM     22  C   UNL d   1     -49.102  11.901  22.662  0.00  0.00     0.010 C 
BRANCH  22  23
ATOM     23  C   UNL d   1     -49.816  11.766  23.047  0.00  0.00     0.030 A 
ATOM     24  S   UNL d   1     -50.409  12.319  23.195  0.00  0.00    -0.086 SA
ATOM     25  C   UNL d   1     -51.026  11.946  23.594  0.00  0.00     0.035 A 
ATOM     26  C   UNL d   1     -50.820  11.156  23.697  0.00  0.00     0.007 A 
ATOM     27  C   UNL d   1     -50.074  11.042  23.360  0.00  0.00     0.007 A 
ENDBRANCH  22  23
ENDBRANCH  21  22
ENDBRANCH  19  21
ENDBRANCH   1  19
BRANCH   5  28
ATOM     28  O   UNL d   1     -48.886  15.764  22.306  0.00  0.00    -0.328 OA
ATOM     29  C   UNL d   1     -49.389  15.921  22.937  0.00  0.00     0.181 C 
ENDBRANCH   5  28
TORSDOF 9
ENDMDL
