MODEL 1
REMARK VINA RESULT:      -5.5      0.000      0.000
REMARK  6 active torsions:
REMARK  status: ('A' for Active; 'I' for Inactive)
REMARK    1  A    between atoms: C_12  and  C_3 
REMARK    2  A    between atoms: N_16  and  C_4 
REMARK    3  A    between atoms: N_11  and  C_23 
REMARK    4  A    between atoms: C_26  and  N_16 
REMARK    5  A    between atoms: C_23  and  C_24 
REMARK    6  A    between atoms: C_24  and  C_26 
ROOT
ATOM      1  C   UNL d   1     -48.530  12.768  23.067  0.00  0.00     0.168 A 
ATOM      2  N   UNL d   1     -48.088  12.056  23.218  0.00  0.00    -0.184 N 
ATOM      3  C   UNL d   1     -49.339  12.740  23.008  0.00  0.00     0.057 A 
ATOM      4  C   UNL d   1     -47.284  12.103  23.273  0.00  0.00     0.218 A 
ATOM      5  N   UNL d   1     -49.307  11.321  23.244  0.00  0.00    -0.160 NA
ATOM      6  N   UNL d   1     -48.138  13.479  22.980  0.00  0.00    -0.227 NA
ATOM      7  C   UNL d   1     -46.879  12.815  23.187  0.00  0.00     0.071 A 
ATOM      8  C   UNL d   1     -49.735  12.011  23.097  0.00  0.00     0.124 A 
ATOM      9  C   UNL d   1     -47.314  13.516  23.038  0.00  0.00     0.087 A 
ATOM     10  C   UNL d   1     -46.901  14.265  22.947  0.00  0.00     0.021 C 
ENDROOT
BRANCH   4  11
ATOM     11  N   UNL d   1     -46.835  11.386  23.426  0.00  0.00    -0.380 NA
BRANCH  11  12
ATOM     12  C   UNL d   1     -46.327  10.713  23.590  0.00  0.00     0.164 C 
BRANCH  12  13
ATOM     13  C   UNL d   1     -45.493  10.839  23.695  0.00  0.00     0.054 C 
BRANCH  13  14
ATOM     14  C   UNL d   1     -44.949  10.196  23.551  0.00  0.00     0.084 C 
BRANCH  14  15
ATOM     15  N   UNL d   1     -44.120  10.362  23.382  0.00  0.00    -0.285 N 
ATOM     16  C   UNL d   1     -43.816  11.032  22.945  0.00  0.00     0.183 A 
ATOM     17  N   UNL d   1     -42.966  10.966  22.917  0.00  0.00    -0.222 NA
ATOM     18  C   UNL d   1     -42.745  10.253  23.339  0.00  0.00     0.120 A 
ATOM     19  C   UNL d   1     -43.454   9.881  23.624  0.00  0.00     0.102 A 
ENDBRANCH  14  15
ENDBRANCH  13  14
ENDBRANCH  12  13
ENDBRANCH  11  12
ENDBRANCH   4  11
BRANCH   3  20
ATOM     20  C   UNL d   1     -49.767  13.430  22.861  0.00  0.00     0.005 A 
ATOM     21  C   UNL d   1     -49.889  13.675  22.094  0.00  0.00     0.001 A 
ATOM     22  C   UNL d   1     -50.317  14.365  21.947  0.00  0.00     0.011 A 
ATOM     23  C   UNL d   1     -50.616  14.798  22.570  0.00  0.00     0.058 A 
ATOM     24  C   UNL d   1     -50.486  14.541  23.340  0.00  0.00     0.011 A 
ATOM     25 CL   UNL d   1     -51.064  15.521  22.416  0.00  0.00    -0.082 Cl
ATOM     26  C   UNL d   1     -50.065  13.862  23.484  0.00  0.00     0.001 A 
ENDBRANCH   3  20
TORSDOF 6
ENDMDL
MODEL 2
REMARK VINA RESULT:      -4.5      1.542      2.307
REMARK  6 active torsions:
REMARK  status: ('A' for Active; 'I' for Inactive)
REMARK    1  A    between atoms: C_12  and  C_3 
REMARK    2  A    between atoms: N_16  and  C_4 
REMARK    3  A    between atoms: N_11  and  C_23 
REMARK    4  A    between atoms: C_26  and  N_16 
REMARK    5  A    between atoms: C_23  and  C_24 
REMARK    6  A    between atoms: C_24  and  C_26 
ROOT
ATOM      1  C   UNL d   1     -47.701  13.557  22.982  0.00  0.00     0.168 A 
ATOM      2  N   UNL d   1     -46.889  13.303  22.965  0.00  0.00    -0.184 N 
ATOM      3  C   UNL d   1     -47.891  14.324  22.799  0.00  0.00     0.057 A 
ATOM      4  C   UNL d   1     -46.718  12.536  23.150  0.00  0.00     0.218 A 
ATOM      5  N   UNL d   1     -46.499  14.616  22.579  0.00  0.00    -0.160 NA
ATOM      6  N   UNL d   1     -48.289  13.027  23.182  0.00  0.00    -0.227 NA
ATOM      7  C   UNL d   1     -47.304  11.993  23.354  0.00  0.00     0.071 A 
ATOM      8  C   UNL d   1     -47.286  14.862  22.595  0.00  0.00     0.124 A 
ATOM      9  C   UNL d   1     -48.104  12.243  23.370  0.00  0.00     0.087 A 
ATOM     10  C   UNL d   1     -48.723  11.685  23.581  0.00  0.00     0.021 C 
ENDROOT
BRANCH   4  11
ATOM     11  N   UNL d   1     -45.899  12.275  23.135  0.00  0.00    -0.380 NA
BRANCH  11  12
ATOM     12  C   UNL d   1     -45.075  12.046  23.053  0.00  0.00     0.164 C 
BRANCH  12  13
ATOM     13  C   UNL d   1     -44.637  12.311  22.374  0.00  0.00     0.054 C 
BRANCH  13  14
ATOM     14  C   UNL d   1     -43.834  12.042  22.261  0.00  0.00     0.084 C 
BRANCH  14  15
ATOM     15  N   UNL d   1     -43.318  12.450  21.704  0.00  0.00    -0.285 N 
ATOM     16  C   UNL d   1     -43.529  12.723  20.921  0.00  0.00     0.183 A 
ATOM     17  N   UNL d   1     -42.844  13.094  20.575  0.00  0.00    -0.222 NA
ATOM     18  C   UNL d   1     -42.206  13.050  21.147  0.00  0.00     0.120 A 
ATOM     19  C   UNL d   1     -42.497  12.654  21.841  0.00  0.00     0.102 A 
ENDBRANCH  14  15
ENDBRANCH  13  14
ENDBRANCH  12  13
ENDBRANCH  11  12
ENDBRANCH   4  11
BRANCH   3  20
ATOM     20  C   UNL d   1     -48.678  14.571  22.815  0.00  0.00     0.005 A 
ATOM     21  C   UNL d   1     -48.990  14.885  23.498  0.00  0.00     0.001 A 
ATOM     22  C   UNL d   1     -49.778  15.132  23.514  0.00  0.00     0.011 A 
ATOM     23  C   UNL d   1     -50.239  15.059  22.846  0.00  0.00     0.058 A 
ATOM     24  C   UNL d   1     -49.914  14.741  22.162  0.00  0.00     0.011 A 
ATOM     25 CL   UNL d   1     -51.064  15.318  22.863  0.00  0.00    -0.082 Cl
ATOM     26  C   UNL d   1     -49.139  14.498  22.146  0.00  0.00     0.001 A 
ENDBRANCH   3  20
TORSDOF 6
ENDMDL
MODEL 3
REMARK VINA RESULT:      -3.5      7.036      9.491
REMARK  6 active torsions:
REMARK  status: ('A' for Active; 'I' for Inactive)
REMARK    1  A    between atoms: C_12  and  C_3 
REMARK    2  A    between atoms: N_16  and  C_4 
REMARK    3  A    between atoms: N_11  and  C_23 
REMARK    4  A    between atoms: C_26  and  N_16 
REMARK    5  A    between atoms: C_23  and  C_24 
REMARK    6  A    between atoms: C_24  and  C_26 
ROOT
ATOM      1  C   UNL d   1     -39.908  14.886  18.446  0.00  0.00     0.168 A 
ATOM      2  N   UNL d   1     -40.462  14.689  19.061  0.00  0.00    -0.184 N 
ATOM      3  C   UNL d   1     -40.103  14.762  17.668  0.00  0.00     0.057 A 
ATOM      4  C   UNL d   1     -40.250  14.820  19.829  0.00  0.00     0.218 A 
ATOM      5  N   UNL d   1     -41.385  14.248  18.072  0.00  0.00    -0.160 NA
ATOM      6  N   UNL d   1     -39.180  15.202  18.639  0.00  0.00    -0.227 NA
ATOM      7  C   UNL d   1     -39.518  15.138  20.035  0.00  0.00     0.071 A 
ATOM      8  C   UNL d   1     -40.848  14.439  17.475  0.00  0.00     0.124 A 
ATOM      9  C   UNL d   1     -38.973  15.332  19.429  0.00  0.00     0.087 A 
ATOM     10  C   UNL d   1     -38.207  15.664  19.633  0.00  0.00     0.021 C 
ENDROOT
BRANCH   4  11
ATOM     11  N   UNL d   1     -40.807  14.622  20.454  0.00  0.00    -0.380 NA
BRANCH  11  12
ATOM     12  C   UNL d   1     -41.369  14.496  21.092  0.00  0.00     0.164 C 
BRANCH  12  13
ATOM     13  C   UNL d   1     -41.765  13.747  21.154  0.00  0.00     0.054 C 
BRANCH  13  14
ATOM     14  C   UNL d   1     -42.617  13.715  21.092  0.00  0.00     0.084 C 
BRANCH  14  15
ATOM     15  N   UNL d   1     -43.052  13.074  21.470  0.00  0.00    -0.285 N 
ATOM     16  C   UNL d   1     -42.715  12.389  21.855  0.00  0.00     0.183 A 
ATOM     17  N   UNL d   1     -43.355  11.907  22.148  0.00  0.00    -0.222 NA
ATOM     18  C   UNL d   1     -44.091  12.297  21.941  0.00  0.00     0.120 A 
ATOM     19  C   UNL d   1     -43.905  13.014  21.525  0.00  0.00     0.102 A 
ENDBRANCH  14  15
ENDBRANCH  13  14
ENDBRANCH  12  13
ENDBRANCH  11  12
ENDBRANCH   4  11
BRANCH   3  20
ATOM     20  C   UNL d   1     -39.566  14.953  17.071  0.00  0.00     0.005 A 
ATOM     21  C   UNL d   1     -39.541  15.713  16.778  0.00  0.00     0.001 A 
ATOM     22  C   UNL d   1     -39.004  15.904  16.181  0.00  0.00     0.011 A 
ATOM     23  C   UNL d   1     -38.502  15.332  15.888  0.00  0.00     0.058 A 
ATOM     24  C   UNL d   1     -38.537  14.569  16.191  0.00  0.00     0.011 A 
ATOM     25 CL   UNL d   1     -37.940  15.533  15.262  0.00  0.00    -0.082 Cl
ATOM     26  C   UNL d   1     -39.065  14.381  16.778  0.00  0.00     0.001 A 
ENDBRANCH   3  20
TORSDOF 6
ENDMDL
MODEL 4
REMARK VINA RESULT:      -3.1      9.035     10.621
REMARK  6 active torsions:
REMARK  status: ('A' for Active; 'I' for Inactive)
REMARK    1  A    between atoms: C_12  and  C_3 
REMARK    2  A    between atoms: N_16  and  C_4 
REMARK    3  A    between atoms: N_11  and  C_23 
REMARK    4  A    between atoms: C_26  and  N_16 
REMARK    5  A    between atoms: C_23  and  C_24 
REMARK    6  A    between atoms: C_24  and  C_26 
ROOT
ATOM      1  C   UNL d   1     -39.152  14.625  17.858  0.00  0.00     0.168 A 
ATOM      2  N   UNL d   1     -39.505  14.917  18.575  0.00  0.00    -0.184 N 
ATOM      3  C   UNL d   1     -39.318  14.982  17.148  0.00  0.00     0.057 A 
ATOM      4  C   UNL d   1     -39.329  14.550  19.272  0.00  0.00     0.218 A 
ATOM      5  N   UNL d   1     -40.177  15.919  17.821  0.00  0.00    -0.160 NA
ATOM      6  N   UNL d   1     -38.647  13.984  17.885  0.00  0.00    -0.227 NA
ATOM      7  C   UNL d   1     -38.820  13.903  19.310  0.00  0.00     0.071 A 
ATOM      8  C   UNL d   1     -39.835  15.636  17.126  0.00  0.00     0.124 A 
ATOM      9  C   UNL d   1     -38.472  13.615  18.604  0.00  0.00     0.087 A 
ATOM     10  C   UNL d   1     -37.940  12.940  18.633  0.00  0.00     0.021 C 
ENDROOT
BRANCH   4  11
ATOM     11  N   UNL d   1     -39.683  14.842  19.999  0.00  0.00    -0.380 NA
BRANCH  11  12
ATOM     12  C   UNL d   1     -40.046  15.199  20.691  0.00  0.00     0.164 C 
BRANCH  12  13
ATOM     13  C   UNL d   1     -39.858  14.895  21.462  0.00  0.00     0.054 C 
BRANCH  13  14
ATOM     14  C   UNL d   1     -39.460  15.397  22.027  0.00  0.00     0.084 C 
BRANCH  14  15
ATOM     15  N   UNL d   1     -38.989  15.045  22.659  0.00  0.00    -0.285 N 
ATOM     16  C   UNL d   1     -39.099  14.270  23.002  0.00  0.00     0.183 A 
ATOM     17  N   UNL d   1     -38.507  14.161  23.607  0.00  0.00    -0.222 NA
ATOM     18  C   UNL d   1     -38.030  14.873  23.636  0.00  0.00     0.120 A 
ATOM     19  C   UNL d   1     -38.326  15.417  23.053  0.00  0.00     0.102 A 
ENDBRANCH  14  15
ENDBRANCH  13  14
ENDBRANCH  12  13
ENDBRANCH  11  12
ENDBRANCH   4  11
BRANCH   3  20
ATOM     20  C   UNL d   1     -38.976  14.699  16.453  0.00  0.00     0.005 A 
ATOM     21  C   UNL d   1     -38.337  15.086  16.129  0.00  0.00     0.001 A 
ATOM     22  C   UNL d   1     -37.995  14.803  15.433  0.00  0.00     0.011 A 
ATOM     23  C   UNL d   1     -38.298  14.137  15.074  0.00  0.00     0.058 A 
ATOM     24  C   UNL d   1     -38.943  13.754  15.410  0.00  0.00     0.011 A 
ATOM     25 CL   UNL d   1     -37.940  13.840  14.345  0.00  0.00    -0.082 Cl
ATOM     26  C   UNL d   1     -39.279  14.033  16.095  0.00  0.00     0.001 A 
ENDBRANCH   3  20
TORSDOF 6
ENDMDL
MODEL 5
REMARK VINA RESULT:      -3.0      8.749      9.551
REMARK  6 active torsions:
REMARK  status: ('A' for Active; 'I' for Inactive)
REMARK    1  A    between atoms: C_12  and  C_3 
REMARK    2  A    between atoms: N_16  and  C_4 
REMARK    3  A    between atoms: N_11  and  C_23 
REMARK    4  A    between atoms: C_26  and  N_16 
REMARK    5  A    between atoms: C_23  and  C_24 
REMARK    6  A    between atoms: C_24  and  C_26 
ROOT
ATOM      1  C   UNL d   1     -39.858  14.780  18.251  0.00  0.00     0.168 A 
ATOM      2  N   UNL d   1     -39.386  14.649  18.946  0.00  0.00    -0.184 N 
ATOM      3  C   UNL d   1     -40.372  15.407  18.220  0.00  0.00     0.057 A 
ATOM      4  C   UNL d   1     -38.880  14.020  18.959  0.00  0.00     0.218 A 
ATOM      5  N   UNL d   1     -39.979  15.794  19.549  0.00  0.00    -0.160 NA
ATOM      6  N   UNL d   1     -39.792  14.275  17.613  0.00  0.00    -0.227 NA
ATOM      7  C   UNL d   1     -38.806  13.504  18.321  0.00  0.00     0.071 A 
ATOM      8  C   UNL d   1     -40.436  15.921  18.874  0.00  0.00     0.124 A 
ATOM      9  C   UNL d   1     -39.270  13.633  17.635  0.00  0.00     0.087 A 
ATOM     10  C   UNL d   1     -39.201  13.101  16.964  0.00  0.00     0.021 C 
ENDROOT
BRANCH   4  11
ATOM     11  N   UNL d   1     -38.402  13.884  19.660  0.00  0.00    -0.380 NA
BRANCH  11  12
ATOM     12  C   UNL d   1     -37.940  13.817  20.382  0.00  0.00     0.164 C 
BRANCH  12  13
ATOM     13  C   UNL d   1     -38.334  13.875  21.133  0.00  0.00     0.054 C 
BRANCH  13  14
ATOM     14  C   UNL d   1     -37.940  14.257  21.786  0.00  0.00     0.084 C 
BRANCH  14  15
ATOM     15  N   UNL d   1     -38.382  14.459  22.499  0.00  0.00    -0.285 N 
ATOM     16  C   UNL d   1     -38.707  13.908  23.068  0.00  0.00     0.183 A 
ATOM     17  N   UNL d   1     -39.098  14.357  23.678  0.00  0.00    -0.222 NA
ATOM     18  C   UNL d   1     -39.014  15.188  23.485  0.00  0.00     0.120 A 
ATOM     19  C   UNL d   1     -38.574  15.251  22.760  0.00  0.00     0.102 A 
ENDBRANCH  14  15
ENDBRANCH  13  14
ENDBRANCH  12  13
ENDBRANCH  11  12
ENDBRANCH   4  11
BRANCH   3  20
ATOM     20  C   UNL d   1     -40.830  15.535  17.545  0.00  0.00     0.005 A 
ATOM     21  C   UNL d   1     -40.475  15.794  16.859  0.00  0.00     0.001 A 
ATOM     22  C   UNL d   1     -40.933  15.922  16.184  0.00  0.00     0.011 A 
ATOM     23  C   UNL d   1     -41.737  15.788  16.207  0.00  0.00     0.058 A 
ATOM     24  C   UNL d   1     -42.083  15.526  16.905  0.00  0.00     0.011 A 
ATOM     25 CL   UNL d   1     -42.216  15.922  15.500  0.00  0.00    -0.082 Cl
ATOM     26  C   UNL d   1     -41.633  15.401  17.569  0.00  0.00     0.001 A 
ENDBRANCH   3  20
TORSDOF 6
ENDMDL
