MODEL 1
REMARK VINA RESULT:      63.3      0.000      0.000
REMARK  7 active torsions:
REMARK  status: ('A' for Active; 'I' for Inactive)
REMARK    1  A    between atoms: C_2  and  C_1 
REMARK       I    between atoms: N_8  and  C_1 
REMARK    2  A    between atoms: C_5  and  C_2 
REMARK    3  A    between atoms: C_6  and  C_2 
REMARK    4  A    between atoms: N_3  and  C_9 
REMARK    5  A    between atoms: C_13  and  N_8 
REMARK    6  A    between atoms: C_9  and  C_10 
REMARK    7  A    between atoms: C_10  and  C_13 
ROOT
ATOM      1  C   UNL d   1      60.060  49.284  50.870  0.00  0.00     0.058 C 
ENDROOT
BRANCH   1   2
ATOM      2  C   UNL d   1      60.625  48.990  50.323  0.00  0.00     0.279 C 
ATOM      3  O   UNL d   1      61.072  49.546  49.870  0.00  0.00    -0.265 OA
ATOM      4  N   UNL d   1      60.744  48.167  50.228  0.00  0.00    -0.206 NA
BRANCH   4   5
ATOM      5  C   UNL d   1      61.299  47.888  49.691  0.00  0.00     0.104 C 
BRANCH   5   6
ATOM      6  C   UNL d   1      61.697  47.184  49.824  0.00  0.00     0.040 C 
BRANCH   6   7
ATOM      7  C   UNL d   1      61.893  46.701  49.197  0.00  0.00     0.082 C 
BRANCH   7   8
ATOM      8  N   UNL d   1      61.861  45.897  49.294  0.00  0.00    -0.299 N 
ATOM      9  C   UNL d   1      61.301  45.548  49.796  0.00  0.00     0.107 A 
ATOM     10  C   UNL d   1      61.276  44.725  49.889  0.00  0.00     0.142 A 
ATOM     11  O   UNL d   1      61.823  44.244  49.471  0.00  0.00    -0.300 OA
ATOM     12  C   UNL d   1      62.385  44.587  48.968  0.00  0.00     0.142 A 
ATOM     13  C   UNL d   1      62.403  45.408  48.881  0.00  0.00     0.107 A 
ENDBRANCH   7   8
ENDBRANCH   6   7
ENDBRANCH   5   6
ENDBRANCH   4   5
ENDBRANCH   1   2
BRANCH   1  14
ATOM     14  C   UNL d   1      59.287  49.424  50.631  0.00  0.00     0.005 A 
ATOM     15  C   UNL d   1      58.708  49.494  51.212  0.00  0.00     0.000 A 
ATOM     16  C   UNL d   1      57.926  49.634  50.996  0.00  0.00     0.000 A 
ATOM     17  C   UNL d   1      57.732  49.705  50.147  0.00  0.00     0.000 A 
ATOM     18  C   UNL d   1      58.337  49.629  49.585  0.00  0.00     0.000 A 
ATOM     19  C   UNL d   1      59.116  49.489  49.818  0.00  0.00     0.000 A 
ENDBRANCH   1  14
BRANCH   1  20
ATOM     20  C   UNL d   1      60.308  49.425  51.644  0.00  0.00     0.005 A 
ATOM     21  C   UNL d   1      61.096  49.559  51.808  0.00  0.00     0.000 A 
ATOM     22  C   UNL d   1      61.344  49.700  52.587  0.00  0.00     0.000 A 
ATOM     23  C   UNL d   1      60.777  49.705  53.206  0.00  0.00     0.000 A 
ATOM     24  C   UNL d   1      59.986  49.569  53.025  0.00  0.00     0.000 A 
ATOM     25  C   UNL d   1      59.752  49.430  52.250  0.00  0.00     0.000 A 
ENDBRANCH   1  20
TORSDOF 7
ENDMDL
MODEL 2
REMARK VINA RESULT:      64.5      0.337      2.325
REMARK  7 active torsions:
REMARK  status: ('A' for Active; 'I' for Inactive)
REMARK    1  A    between atoms: C_2  and  C_1 
REMARK       I    between atoms: N_8  and  C_1 
REMARK    2  A    between atoms: C_5  and  C_2 
REMARK    3  A    between atoms: C_6  and  C_2 
REMARK    4  A    between atoms: N_3  and  C_9 
REMARK    5  A    between atoms: C_13  and  N_8 
REMARK    6  A    between atoms: C_9  and  C_10 
REMARK    7  A    between atoms: C_10  and  C_13 
ROOT
ATOM      1  C   UNL d   1      60.299  49.214  50.956  0.00  0.00     0.058 C 
ENDROOT
BRANCH   1   2
ATOM      2  C   UNL d   1      60.793  48.893  50.358  0.00  0.00     0.279 C 
ATOM      3  O   UNL d   1      61.227  49.426  49.868  0.00  0.00    -0.265 OA
ATOM      4  N   UNL d   1      60.853  48.065  50.249  0.00  0.00    -0.206 NA
BRANCH   4   5
ATOM      5  C   UNL d   1      61.339  47.760  49.661  0.00  0.00     0.104 C 
BRANCH   5   6
ATOM      6  C   UNL d   1      61.322  46.962  49.473  0.00  0.00     0.040 C 
BRANCH   6   7
ATOM      7  C   UNL d   1      61.916  46.469  49.734  0.00  0.00     0.082 C 
BRANCH   7   8
ATOM      8  N   UNL d   1      61.900  45.687  49.520  0.00  0.00    -0.299 N 
ATOM      9  C   UNL d   1      62.495  45.361  49.044  0.00  0.00     0.107 A 
ATOM     10  C   UNL d   1      62.471  44.561  48.830  0.00  0.00     0.142 A 
ATOM     11  O   UNL d   1      61.837  44.080  49.100  0.00  0.00    -0.300 OA
ATOM     12  C   UNL d   1      61.239  44.399  49.577  0.00  0.00     0.142 A 
ATOM     13  C   UNL d   1      61.272  45.198  49.785  0.00  0.00     0.107 A 
ENDBRANCH   7   8
ENDBRANCH   6   7
ENDBRANCH   5   6
ENDBRANCH   4   5
ENDBRANCH   1   2
BRANCH   1  14
ATOM     14  C   UNL d   1      60.601  49.366  51.705  0.00  0.00     0.005 A 
ATOM     15  C   UNL d   1      61.401  49.550  51.771  0.00  0.00     0.000 A 
ATOM     16  C   UNL d   1      61.724  49.706  52.512  0.00  0.00     0.000 A 
ATOM     17  C   UNL d   1      61.203  49.673  53.213  0.00  0.00     0.000 A 
ATOM     18  C   UNL d   1      60.402  49.485  53.114  0.00  0.00     0.000 A 
ATOM     19  C   UNL d   1      60.093  49.331  52.365  0.00  0.00     0.000 A 
ENDBRANCH   1  14
BRANCH   1  20
ATOM     20  C   UNL d   1      59.511  49.368  50.767  0.00  0.00     0.005 A 
ATOM     21  C   UNL d   1      58.935  49.342  51.345  0.00  0.00     0.000 A 
ATOM     22  C   UNL d   1      58.142  49.497  51.154  0.00  0.00     0.000 A 
ATOM     23  C   UNL d   1      57.938  49.680  50.360  0.00  0.00     0.000 A 
ATOM     24  C   UNL d   1      58.529  49.702  49.789  0.00  0.00     0.000 A 
ATOM     25  C   UNL d   1      59.310  49.547  49.990  0.00  0.00     0.000 A 
ENDBRANCH   1  20
TORSDOF 7
ENDMDL
