MODEL 1
REMARK VINA RESULT:      -8.1      0.000      0.000
REMARK  6 active torsions:
REMARK  status: ('A' for Active; 'I' for Inactive)
REMARK    1  A    between atoms: C_3  and  C_1 
REMARK    2  A    between atoms: C_2  and  C_3 
REMARK    3  A    between atoms: C_4  and  C_2 
REMARK    4  A    between atoms: C_7  and  C_4 
REMARK    5  A    between atoms: O_17  and  C_5 
REMARK    6  A    between atoms: O_20  and  C_13 
ROOT
ATOM      1  C   UNL d   1      53.576  31.880  53.757  0.00  0.00     0.042 C 
ENDROOT
BRANCH   1   2
ATOM      2  C   UNL d   1      53.859  31.184  53.417  0.00  0.00     0.199 C 
ATOM      3  O   UNL d   1      54.550  31.191  52.968  0.00  0.00    -0.286 OA
BRANCH   2   4
ATOM      4  C   UNL d   1      53.446  30.475  53.527  0.00  0.00     0.079 A 
ATOM      5  C   UNL d   1      52.872  30.242  52.978  0.00  0.00     0.199 A 
ATOM      6  C   UNL d   1      52.458  29.531  53.090  0.00  0.00     0.043 A 
ATOM      7  O   UNL d   1      52.706  30.711  52.317  0.00  0.00    -0.286 OA
ATOM      8  C   UNL d   1      52.619  29.060  53.746  0.00  0.00     0.015 A 
ATOM      9  C   UNL d   1      53.193  29.293  54.295  0.00  0.00     0.058 A 
ATOM     10  C   UNL d   1      53.605  29.998  54.187  0.00  0.00     0.018 A 
ATOM     11 CL   UNL d   1      53.353  28.821  54.951  0.00  0.00    -0.082 Cl
ENDBRANCH   2   4
ENDBRANCH   1   2
BRANCH   1  12
ATOM     12  C   UNL d   1      54.101  32.486  53.939  0.00  0.00     0.005 C 
BRANCH  12  13
ATOM     13  C   UNL d   1      53.817  33.202  54.228  0.00  0.00     0.022 A 
ATOM     14  C   UNL d   1      54.260  33.634  54.780  0.00  0.00     0.096 A 
ATOM     15  C   UNL d   1      53.976  34.351  55.070  0.00  0.00     0.048 A 
ATOM     16  C   UNL d   1      53.249  34.640  54.812  0.00  0.00     0.096 A 
ATOM     17  C   UNL d   1      52.804  34.207  54.260  0.00  0.00     0.024 A 
ATOM     18  C   UNL d   1      53.093  33.490  53.972  0.00  0.00     0.004 A 
BRANCH  14  19
ATOM     19  O   UNL d   1      54.981  33.347  55.036  0.00  0.00    -0.328 OA
ATOM     20  C   UNL d   1      55.556  33.866  55.316  0.00  0.00     0.181 C 
ENDBRANCH  14  19
BRANCH  16  21
ATOM     21  O   UNL d   1      52.956  35.352  55.094  0.00  0.00    -0.328 OA
ATOM     22  C   UNL d   1      52.820  35.986  54.583  0.00  0.00     0.181 C 
ENDBRANCH  16  21
ENDBRANCH  12  13
ENDBRANCH   1  12
TORSDOF 6
ENDMDL
MODEL 2
REMARK VINA RESULT:      -7.7      1.525      1.972
REMARK  6 active torsions:
REMARK  status: ('A' for Active; 'I' for Inactive)
REMARK    1  A    between atoms: C_3  and  C_1 
REMARK    2  A    between atoms: C_2  and  C_3 
REMARK    3  A    between atoms: C_4  and  C_2 
REMARK    4  A    between atoms: C_7  and  C_4 
REMARK    5  A    between atoms: O_17  and  C_5 
REMARK    6  A    between atoms: O_20  and  C_13 
ROOT
ATOM      1  C   UNL d   1      52.743  32.093  53.338  0.00  0.00     0.042 C 
ENDROOT
BRANCH   1   2
ATOM      2  C   UNL d   1      53.398  31.595  53.404  0.00  0.00     0.199 C 
ATOM      3  O   UNL d   1      54.161  31.903  53.364  0.00  0.00    -0.286 OA
BRANCH   2   4
ATOM      4  C   UNL d   1      53.286  30.782  53.510  0.00  0.00     0.079 A 
ATOM      5  C   UNL d   1      53.130  30.297  52.857  0.00  0.00     0.199 A 
ATOM      6  C   UNL d   1      53.018  29.482  52.965  0.00  0.00     0.043 A 
ATOM      7  O   UNL d   1      53.086  30.618  52.096  0.00  0.00    -0.286 OA
ATOM      8  C   UNL d   1      53.061  29.157  53.720  0.00  0.00     0.015 A 
ATOM      9  C   UNL d   1      53.216  29.642  54.373  0.00  0.00     0.058 A 
ATOM     10  C   UNL d   1      53.328  30.450  54.270  0.00  0.00     0.018 A 
ATOM     11 CL   UNL d   1      53.259  29.315  55.129  0.00  0.00    -0.082 Cl
ENDBRANCH   2   4
ENDBRANCH   1   2
BRANCH   1  12
ATOM     12  C   UNL d   1      52.835  32.902  53.457  0.00  0.00     0.005 C 
BRANCH  12  13
ATOM     13  C   UNL d   1      52.194  33.407  53.354  0.00  0.00     0.022 A 
ATOM     14  C   UNL d   1      52.275  34.219  53.501  0.00  0.00     0.096 A 
ATOM     15  C   UNL d   1      51.633  34.725  53.398  0.00  0.00     0.048 A 
ATOM     16  C   UNL d   1      50.907  34.424  53.148  0.00  0.00     0.096 A 
ATOM     17  C   UNL d   1      50.826  33.611  53.000  0.00  0.00     0.024 A 
ATOM     18  C   UNL d   1      51.472  33.108  53.105  0.00  0.00     0.004 A 
BRANCH  14  19
ATOM     19  O   UNL d   1      52.994  34.517  53.749  0.00  0.00    -0.328 OA
ATOM     20  C   UNL d   1      53.030  35.252  54.117  0.00  0.00     0.181 C 
ENDBRANCH  14  19
BRANCH  16  21
ATOM     21  O   UNL d   1      50.262  34.917  53.042  0.00  0.00    -0.328 OA
ATOM     22  C   UNL d   1      49.617  34.680  52.585  0.00  0.00     0.181 C 
ENDBRANCH  16  21
ENDBRANCH  12  13
ENDBRANCH   1  12
TORSDOF 6
ENDMDL
MODEL 3
REMARK VINA RESULT:      -7.5      2.715      4.539
REMARK  6 active torsions:
REMARK  status: ('A' for Active; 'I' for Inactive)
REMARK    1  A    between atoms: C_3  and  C_1 
REMARK    2  A    between atoms: C_2  and  C_3 
REMARK    3  A    between atoms: C_4  and  C_2 
REMARK    4  A    between atoms: C_7  and  C_4 
REMARK    5  A    between atoms: O_17  and  C_5 
REMARK    6  A    between atoms: O_20  and  C_13 
ROOT
ATOM      1  C   UNL d   1      51.929  33.433  52.837  0.00  0.00     0.042 C 
ENDROOT
BRANCH   1   2
ATOM      2  C   UNL d   1      51.701  34.200  52.637  0.00  0.00     0.199 C 
ATOM      3  O   UNL d   1      52.261  34.804  52.597  0.00  0.00    -0.286 OA
BRANCH   2   4
ATOM      4  C   UNL d   1      50.906  34.363  52.477  0.00  0.00     0.079 A 
ATOM      5  C   UNL d   1      50.432  34.719  53.056  0.00  0.00     0.199 A 
ATOM      6  C   UNL d   1      49.635  34.882  52.894  0.00  0.00     0.043 A 
ATOM      7  O   UNL d   1      50.747  34.915  53.796  0.00  0.00    -0.286 OA
ATOM      8  C   UNL d   1      49.316  34.690  52.160  0.00  0.00     0.015 A 
ATOM      9  C   UNL d   1      49.789  34.334  51.582  0.00  0.00     0.058 A 
ATOM     10  C   UNL d   1      50.580  34.171  51.738  0.00  0.00     0.018 A 
ATOM     11 CL   UNL d   1      49.469  34.142  50.847  0.00  0.00    -0.082 Cl
ENDBRANCH   2   4
ENDBRANCH   1   2
BRANCH   1  12
ATOM     12  C   UNL d   1      52.705  33.286  53.067  0.00  0.00     0.005 C 
BRANCH  12  13
ATOM     13  C   UNL d   1      52.946  32.517  53.231  0.00  0.00     0.022 A 
ATOM     14  C   UNL d   1      53.547  32.378  53.785  0.00  0.00     0.096 A 
ATOM     15  C   UNL d   1      53.788  31.608  53.950  0.00  0.00     0.048 A 
ATOM     16  C   UNL d   1      53.433  30.973  53.563  0.00  0.00     0.096 A 
ATOM     17  C   UNL d   1      52.831  31.112  53.007  0.00  0.00     0.024 A 
ATOM     18  C   UNL d   1      52.592  31.885  52.846  0.00  0.00     0.004 A 
BRANCH  14  19
ATOM     19  O   UNL d   1      53.899  33.007  54.169  0.00  0.00    -0.328 OA
ATOM     20  C   UNL d   1      54.350  32.877  54.845  0.00  0.00     0.181 C 
ENDBRANCH  14  19
BRANCH  16  21
ATOM     21  O   UNL d   1      53.665  30.202  53.718  0.00  0.00    -0.328 OA
ATOM     22  C   UNL d   1      53.119  29.584  53.699  0.00  0.00     0.181 C 
ENDBRANCH  16  21
ENDBRANCH  12  13
ENDBRANCH   1  12
TORSDOF 6
ENDMDL
MODEL 4
REMARK VINA RESULT:      -7.1      1.724      4.627
REMARK  6 active torsions:
REMARK  status: ('A' for Active; 'I' for Inactive)
REMARK    1  A    between atoms: C_3  and  C_1 
REMARK    2  A    between atoms: C_2  and  C_3 
REMARK    3  A    between atoms: C_4  and  C_2 
REMARK    4  A    between atoms: C_7  and  C_4 
REMARK    5  A    between atoms: O_17  and  C_5 
REMARK    6  A    between atoms: O_20  and  C_13 
ROOT
ATOM      1  C   UNL d   1      53.613  32.385  53.972  0.00  0.00     0.042 C 
ENDROOT
BRANCH   1   2
ATOM      2  C   UNL d   1      53.897  33.118  53.720  0.00  0.00     0.199 C 
ATOM      3  O   UNL d   1      54.621  33.173  53.330  0.00  0.00    -0.286 OA
BRANCH   2   4
ATOM      4  C   UNL d   1      53.451  33.801  53.862  0.00  0.00     0.079 A 
ATOM      5  C   UNL d   1      53.666  34.316  54.474  0.00  0.00     0.199 A 
ATOM      6  C   UNL d   1      53.218  35.000  54.614  0.00  0.00     0.043 A 
ATOM      7  O   UNL d   1      54.325  34.155  54.947  0.00  0.00    -0.286 OA
ATOM      8  C   UNL d   1      52.562  35.166  54.146  0.00  0.00     0.015 A 
ATOM      9  C   UNL d   1      52.346  34.651  53.535  0.00  0.00     0.058 A 
ATOM     10  C   UNL d   1      52.788  33.972  53.392  0.00  0.00     0.018 A 
ATOM     11 CL   UNL d   1      51.689  34.818  53.067  0.00  0.00    -0.082 Cl
ENDBRANCH   2   4
ENDBRANCH   1   2
BRANCH   1  12
ATOM     12  C   UNL d   1      53.711  31.725  53.491  0.00  0.00     0.005 C 
BRANCH  12  13
ATOM     13  C   UNL d   1      53.531  30.977  53.781  0.00  0.00     0.022 A 
ATOM     14  C   UNL d   1      53.236  30.392  53.271  0.00  0.00     0.096 A 
ATOM     15  C   UNL d   1      53.056  29.643  53.561  0.00  0.00     0.048 A 
ATOM     16  C   UNL d   1      53.168  29.471  54.359  0.00  0.00     0.096 A 
ATOM     17  C   UNL d   1      53.464  30.056  54.869  0.00  0.00     0.024 A 
ATOM     18  C   UNL d   1      53.643  30.806  54.575  0.00  0.00     0.004 A 
BRANCH  14  19
ATOM     19  O   UNL d   1      53.125  30.562  52.480  0.00  0.00    -0.328 OA
ATOM     20  C   UNL d   1      52.975  29.954  51.945  0.00  0.00     0.181 C 
ENDBRANCH  14  19
BRANCH  16  21
ATOM     21  O   UNL d   1      52.993  28.729  54.659  0.00  0.00    -0.328 OA
ATOM     22  C   UNL d   1      53.389  28.434  55.319  0.00  0.00     0.181 C 
ENDBRANCH  16  21
ENDBRANCH  12  13
ENDBRANCH   1  12
TORSDOF 6
ENDMDL
MODEL 5
REMARK VINA RESULT:      -6.8      3.894      5.213
REMARK  6 active torsions:
REMARK  status: ('A' for Active; 'I' for Inactive)
REMARK    1  A    between atoms: C_3  and  C_1 
REMARK    2  A    between atoms: C_2  and  C_3 
REMARK    3  A    between atoms: C_4  and  C_2 
REMARK    4  A    between atoms: C_7  and  C_4 
REMARK    5  A    between atoms: O_17  and  C_5 
REMARK    6  A    between atoms: O_20  and  C_13 
ROOT
ATOM      1  C   UNL d   1      50.768  34.388  52.822  0.00  0.00     0.042 C 
ENDROOT
BRANCH   1   2
ATOM      2  C   UNL d   1      51.496  34.081  52.584  0.00  0.00     0.199 C 
ATOM      3  O   UNL d   1      51.614  33.850  51.802  0.00  0.00    -0.286 OA
BRANCH   2   4
ATOM      4  C   UNL d   1      52.110  34.007  53.134  0.00  0.00     0.079 A 
ATOM      5  C   UNL d   1      52.414  33.259  53.315  0.00  0.00     0.199 A 
ATOM      6  C   UNL d   1      53.030  33.186  53.866  0.00  0.00     0.043 A 
ATOM      7  O   UNL d   1      52.111  32.581  52.950  0.00  0.00    -0.286 OA
ATOM      8  C   UNL d   1      53.337  33.856  54.233  0.00  0.00     0.015 A 
ATOM      9  C   UNL d   1      53.032  34.605  54.052  0.00  0.00     0.058 A 
ATOM     10  C   UNL d   1      52.421  34.681  53.505  0.00  0.00     0.018 A 
ATOM     11 CL   UNL d   1      53.339  35.275  54.419  0.00  0.00    -0.082 Cl
ENDBRANCH   2   4
ENDBRANCH   1   2
BRANCH   1  12
ATOM     12  C   UNL d   1      50.163  34.474  52.271  0.00  0.00     0.005 C 
BRANCH  12  13
ATOM     13  C   UNL d   1      49.478  34.881  52.475  0.00  0.00     0.022 A 
ATOM     14  C   UNL d   1      48.840  34.915  51.946  0.00  0.00     0.096 A 
ATOM     15  C   UNL d   1      48.154  35.322  52.149  0.00  0.00     0.048 A 
ATOM     16  C   UNL d   1      48.099  35.698  52.880  0.00  0.00     0.096 A 
ATOM     17  C   UNL d   1      48.738  35.665  53.411  0.00  0.00     0.024 A 
ATOM     18  C   UNL d   1      49.424  35.255  53.203  0.00  0.00     0.004 A 
BRANCH  14  19
ATOM     19  O   UNL d   1      48.894  34.542  51.221  0.00  0.00    -0.328 OA
ATOM     20  C   UNL d   1      48.285  34.617  50.672  0.00  0.00     0.181 C 
ENDBRANCH  14  19
BRANCH  16  21
ATOM     21  O   UNL d   1      47.422  36.106  53.094  0.00  0.00    -0.328 OA
ATOM     22  C   UNL d   1      47.403  36.567  53.779  0.00  0.00     0.181 C 
ENDBRANCH  16  21
ENDBRANCH  12  13
ENDBRANCH   1  12
TORSDOF 6
ENDMDL
MODEL 6
REMARK VINA RESULT:      -6.4      3.263      4.650
REMARK  6 active torsions:
REMARK  status: ('A' for Active; 'I' for Inactive)
REMARK    1  A    between atoms: C_3  and  C_1 
REMARK    2  A    between atoms: C_2  and  C_3 
REMARK    3  A    between atoms: C_4  and  C_2 
REMARK    4  A    between atoms: C_7  and  C_4 
REMARK    5  A    between atoms: O_17  and  C_5 
REMARK    6  A    between atoms: O_20  and  C_13 
ROOT
ATOM      1  C   UNL d   1      51.258  34.010  52.750  0.00  0.00     0.042 C 
ENDROOT
BRANCH   1   2
ATOM      2  C   UNL d   1      50.837  34.299  52.102  0.00  0.00     0.199 C 
ATOM      3  O   UNL d   1      51.179  34.308  51.353  0.00  0.00    -0.286 OA
BRANCH   2   4
ATOM      4  C   UNL d   1      50.066  34.581  52.208  0.00  0.00     0.079 A 
ATOM      5  C   UNL d   1      49.506  34.489  51.604  0.00  0.00     0.199 A 
ATOM      6  C   UNL d   1      48.733  34.773  51.711  0.00  0.00     0.043 A 
ATOM      7  O   UNL d   1      49.710  34.117  50.894  0.00  0.00    -0.286 OA
ATOM      8  C   UNL d   1      48.524  35.144  52.416  0.00  0.00     0.015 A 
ATOM      9  C   UNL d   1      49.084  35.235  53.019  0.00  0.00     0.058 A 
ATOM     10  C   UNL d   1      49.851  34.956  52.917  0.00  0.00     0.018 A 
ATOM     11 CL   UNL d   1      48.875  35.607  53.724  0.00  0.00    -0.082 Cl
ENDBRANCH   2   4
ENDBRANCH   1   2
BRANCH   1  12
ATOM     12  C   UNL d   1      51.867  33.470  52.630  0.00  0.00     0.005 C 
BRANCH  12  13
ATOM     13  C   UNL d   1      52.410  33.324  53.231  0.00  0.00     0.022 A 
ATOM     14  C   UNL d   1      52.779  32.583  53.288  0.00  0.00     0.096 A 
ATOM     15  C   UNL d   1      53.322  32.436  53.889  0.00  0.00     0.048 A 
ATOM     16  C   UNL d   1      53.500  33.026  54.437  0.00  0.00     0.096 A 
ATOM     17  C   UNL d   1      53.131  33.768  54.380  0.00  0.00     0.024 A 
ATOM     18  C   UNL d   1      52.587  33.910  53.776  0.00  0.00     0.004 A 
BRANCH  14  19
ATOM     19  O   UNL d   1      52.602  31.999  52.745  0.00  0.00    -0.328 OA
ATOM     20  C   UNL d   1      52.843  31.223  52.882  0.00  0.00     0.181 C 
ENDBRANCH  14  19
BRANCH  16  21
ATOM     21  O   UNL d   1      54.039  32.892  55.040  0.00  0.00    -0.328 OA
ATOM     22  C   UNL d   1      54.688  33.389  55.147  0.00  0.00     0.181 C 
ENDBRANCH  16  21
ENDBRANCH  12  13
ENDBRANCH   1  12
TORSDOF 6
ENDMDL
MODEL 7
REMARK VINA RESULT:      -6.3      2.842      4.462
REMARK  6 active torsions:
REMARK  status: ('A' for Active; 'I' for Inactive)
REMARK    1  A    between atoms: C_3  and  C_1 
REMARK    2  A    between atoms: C_2  and  C_3 
REMARK    3  A    between atoms: C_4  and  C_2 
REMARK    4  A    between atoms: C_7  and  C_4 
REMARK    5  A    between atoms: O_17  and  C_5 
REMARK    6  A    between atoms: O_20  and  C_13 
ROOT
ATOM      1  C   UNL d   1      52.046  34.187  53.307  0.00  0.00     0.042 C 
ENDROOT
BRANCH   1   2
ATOM      2  C   UNL d   1      52.736  34.438  53.684  0.00  0.00     0.199 C 
ATOM      3  O   UNL d   1      52.917  35.240  53.730  0.00  0.00    -0.286 OA
BRANCH   2   4
ATOM      4  C   UNL d   1      53.248  33.879  54.016  0.00  0.00     0.079 A 
ATOM      5  C   UNL d   1      53.536  33.988  54.784  0.00  0.00     0.199 A 
ATOM      6  C   UNL d   1      54.050  33.427  55.116  0.00  0.00     0.043 A 
ATOM      7  O   UNL d   1      53.317  34.652  55.226  0.00  0.00    -0.286 OA
ATOM      8  C   UNL d   1      54.272  32.764  54.682  0.00  0.00     0.015 A 
ATOM      9  C   UNL d   1      53.984  32.655  53.913  0.00  0.00     0.058 A 
ATOM     10  C   UNL d   1      53.474  33.209  53.581  0.00  0.00     0.018 A 
ATOM     11 CL   UNL d   1      54.206  31.991  53.479  0.00  0.00    -0.082 Cl
ENDBRANCH   2   4
ENDBRANCH   1   2
BRANCH   1  12
ATOM     12  C   UNL d   1      51.403  34.698  53.256  0.00  0.00     0.005 C 
BRANCH  12  13
ATOM     13  C   UNL d   1      50.807  34.552  52.708  0.00  0.00     0.022 A 
ATOM     14  C   UNL d   1      50.028  34.788  52.867  0.00  0.00     0.096 A 
ATOM     15  C   UNL d   1      49.431  34.643  52.318  0.00  0.00     0.048 A 
ATOM     16  C   UNL d   1      49.607  34.263  51.608  0.00  0.00     0.096 A 
ATOM     17  C   UNL d   1      50.388  34.027  51.449  0.00  0.00     0.024 A 
ATOM     18  C   UNL d   1      50.982  34.174  52.001  0.00  0.00     0.004 A 
BRANCH  14  19
ATOM     19  O   UNL d   1      49.853  35.165  53.570  0.00  0.00    -0.328 OA
ATOM     20  C   UNL d   1      49.113  35.509  53.681  0.00  0.00     0.181 C 
ENDBRANCH  14  19
BRANCH  16  21
ATOM     21  O   UNL d   1      49.022  34.113  51.055  0.00  0.00    -0.328 OA
ATOM     22  C   UNL d   1      48.632  34.731  50.672  0.00  0.00     0.181 C 
ENDBRANCH  16  21
ENDBRANCH  12  13
ENDBRANCH   1  12
TORSDOF 6
ENDMDL
MODEL 8
REMARK VINA RESULT:      -5.2      9.604     10.204
REMARK  6 active torsions:
REMARK  status: ('A' for Active; 'I' for Inactive)
REMARK    1  A    between atoms: C_3  and  C_1 
REMARK    2  A    between atoms: C_2  and  C_3 
REMARK    3  A    between atoms: C_4  and  C_2 
REMARK    4  A    between atoms: C_7  and  C_4 
REMARK    5  A    between atoms: O_17  and  C_5 
REMARK    6  A    between atoms: O_20  and  C_13 
ROOT
ATOM      1  C   UNL d   1      44.977  28.020  57.802  0.00  0.00     0.042 C 
ENDROOT
BRANCH   1   2
ATOM      2  C   UNL d   1      45.386  27.306  57.846  0.00  0.00     0.199 C 
ATOM      3  O   UNL d   1      46.146  27.280  58.166  0.00  0.00    -0.286 OA
BRANCH   2   4
ATOM      4  C   UNL d   1      45.032  26.612  57.568  0.00  0.00     0.079 A 
ATOM      5  C   UNL d   1      44.758  26.044  58.105  0.00  0.00     0.199 A 
ATOM      6  C   UNL d   1      44.402  25.348  57.825  0.00  0.00     0.043 A 
ATOM      7  O   UNL d   1      44.835  26.163  58.920  0.00  0.00    -0.286 OA
ATOM      8  C   UNL d   1      44.322  25.224  57.015  0.00  0.00     0.015 A 
ATOM      9  C   UNL d   1      44.596  25.792  56.478  0.00  0.00     0.058 A 
ATOM     10  C   UNL d   1      44.949  26.483  56.752  0.00  0.00     0.018 A 
ATOM     11 CL   UNL d   1      44.515  25.667  55.668  0.00  0.00    -0.082 Cl
ENDBRANCH   2   4
ENDBRANCH   1   2
BRANCH   1  12
ATOM     12  C   UNL d   1      45.288  28.690  58.165  0.00  0.00     0.005 C 
BRANCH  12  13
ATOM     13  C   UNL d   1      45.046  29.438  57.922  0.00  0.00     0.022 A 
ATOM     14  C   UNL d   1      45.093  30.081  58.444  0.00  0.00     0.096 A 
ATOM     15  C   UNL d   1      44.850  30.830  58.201  0.00  0.00     0.048 A 
ATOM     16  C   UNL d   1      44.559  30.942  57.439  0.00  0.00     0.096 A 
ATOM     17  C   UNL d   1      44.511  30.298  56.916  0.00  0.00     0.024 A 
ATOM     18  C   UNL d   1      44.756  29.549  57.163  0.00  0.00     0.004 A 
BRANCH  14  19
ATOM     19  O   UNL d   1      45.382  29.970  59.200  0.00  0.00    -0.328 OA
ATOM     20  C   UNL d   1      45.119  30.449  59.816  0.00  0.00     0.181 C 
ENDBRANCH  14  19
BRANCH  16  21
ATOM     21  O   UNL d   1      44.315  31.682  57.186  0.00  0.00    -0.328 OA
ATOM     22  C   UNL d   1      44.503  31.955  56.431  0.00  0.00     0.181 C 
ENDBRANCH  16  21
ENDBRANCH  12  13
ENDBRANCH   1  12
TORSDOF 6
ENDMDL
