MODEL 1
REMARK VINA RESULT:      -7.1      0.000      0.000
REMARK  4 active torsions:
REMARK  status: ('A' for Active; 'I' for Inactive)
REMARK    1  A    between atoms: N_3  and  C_1 
REMARK       I    between atoms: C_7  and  N_3 
REMARK    2  A    between atoms: C_12  and  N_3 
REMARK    3  A    between atoms: C_17  and  C_12 
REMARK    4  A    between atoms: N_18  and  C_17 
ROOT
ATOM      1  C   UNL d   1     -48.793  13.139  22.632  0.00  0.00     0.182 A 
ATOM      2  N   UNL d   1     -48.051  13.412  22.361  0.00  0.00    -0.222 NA
ATOM      3  S   UNL d   1     -48.662  12.467  23.102  0.00  0.00    -0.048 SA
ATOM      4  C   UNL d   1     -47.470  12.911  22.662  0.00  0.00     0.092 A 
ATOM      5  C   UNL d   1     -47.842  12.331  23.116  0.00  0.00     0.052 A 
ATOM      6  C   UNL d   1     -46.656  12.914  22.577  0.00  0.00     0.046 A 
ATOM      7  C   UNL d   1     -47.389  11.752  23.486  0.00  0.00     0.034 A 
ATOM      8  C   UNL d   1     -46.214  12.336  22.947  0.00  0.00     0.121 A 
ATOM      9  C   UNL d   1     -46.574  11.759  23.398  0.00  0.00     0.120 A 
ATOM     10  O   UNL d   1     -45.985  11.258  23.698  0.00  0.00    -0.300 OA
ATOM     11  O   UNL d   1     -45.395  12.197  22.964  0.00  0.00    -0.299 OA
ATOM     12  C   UNL d   1     -45.251  11.530  23.428  0.00  0.00     0.304 A 
ENDROOT
BRANCH   1  13
ATOM     13  N   UNL d   1     -49.527  13.485  22.458  0.00  0.00    -0.251 N 
ATOM     14  C   UNL d   1     -49.884  13.320  21.728  0.00  0.00     0.267 C 
ATOM     15  O   UNL d   1     -49.519  12.825  21.189  0.00  0.00    -0.267 OA
ATOM     16  C   UNL d   1     -50.617  13.666  21.554  0.00  0.00     0.066 C 
BRANCH  13  17
ATOM     17  C   UNL d   1     -49.896  13.986  23.003  0.00  0.00     0.104 C 
BRANCH  17  18
ATOM     18  C   UNL d   1     -50.006  14.783  22.823  0.00  0.00     0.100 C 
BRANCH  18  19
ATOM     19  N   UNL d   1     -50.292  15.303  23.399  0.00  0.00    -0.299 N 
ATOM     20  C   UNL d   1     -51.064  15.227  23.677  0.00  0.00     0.100 C 
ATOM     21  C   UNL d   1     -49.804  15.898  23.697  0.00  0.00     0.100 C 
ENDBRANCH  18  19
ENDBRANCH  17  18
ENDBRANCH  13  17
ENDBRANCH   1  13
TORSDOF 4
ENDMDL
MODEL 2
REMARK VINA RESULT:      -6.0      1.415      4.285
REMARK  4 active torsions:
REMARK  status: ('A' for Active; 'I' for Inactive)
REMARK    1  A    between atoms: N_3  and  C_1 
REMARK       I    between atoms: C_7  and  N_3 
REMARK    2  A    between atoms: C_12  and  N_3 
REMARK    3  A    between atoms: C_17  and  C_12 
REMARK    4  A    between atoms: N_18  and  C_17 
ROOT
ATOM      1  C   UNL d   1     -47.826  13.021  22.966  0.00  0.00     0.182 A 
ATOM      2  N   UNL d   1     -48.070  13.734  23.328  0.00  0.00    -0.222 NA
ATOM      3  S   UNL d   1     -48.382  12.829  22.380  0.00  0.00    -0.048 SA
ATOM      4  C   UNL d   1     -48.771  13.977  22.966  0.00  0.00     0.092 A 
ATOM      5  C   UNL d   1     -48.963  13.424  22.385  0.00  0.00     0.052 A 
ATOM      6  C   UNL d   1     -49.249  14.628  23.096  0.00  0.00     0.046 A 
ATOM      7  C   UNL d   1     -49.644  13.530  21.934  0.00  0.00     0.034 A 
ATOM      8  C   UNL d   1     -49.922  14.725  22.644  0.00  0.00     0.121 A 
ATOM      9  C   UNL d   1     -50.119  14.183  22.068  0.00  0.00     0.120 A 
ATOM     10  O   UNL d   1     -50.825  14.432  21.707  0.00  0.00    -0.300 OA
ATOM     11  O   UNL d   1     -50.505  15.317  22.646  0.00  0.00    -0.299 OA
ATOM     12  C   UNL d   1     -51.064  15.138  22.067  0.00  0.00     0.304 A 
ENDROOT
BRANCH   1  13
ATOM     13  N   UNL d   1     -47.147  12.589  23.163  0.00  0.00    -0.251 N 
ATOM     14  C   UNL d   1     -47.235  11.835  23.497  0.00  0.00     0.267 C 
ATOM     15  O   UNL d   1     -47.980  11.523  23.629  0.00  0.00    -0.267 OA
ATOM     16  C   UNL d   1     -46.556  11.402  23.695  0.00  0.00     0.066 C 
BRANCH  13  17
ATOM     17  C   UNL d   1     -46.394  12.904  23.030  0.00  0.00     0.104 C 
BRANCH  17  18
ATOM     18  C   UNL d   1     -46.084  12.924  22.266  0.00  0.00     0.100 C 
BRANCH  18  19
ATOM     19  N   UNL d   1     -45.340  13.259  22.129  0.00  0.00    -0.299 N 
ATOM     20  C   UNL d   1     -44.734  12.802  21.805  0.00  0.00     0.100 C 
ATOM     21  C   UNL d   1     -45.203  14.050  22.317  0.00  0.00     0.100 C 
ENDBRANCH  18  19
ENDBRANCH  17  18
ENDBRANCH  13  17
ENDBRANCH   1  13
TORSDOF 4
ENDMDL
MODEL 3
REMARK VINA RESULT:      -5.0      9.229     10.268
REMARK  4 active torsions:
REMARK  status: ('A' for Active; 'I' for Inactive)
REMARK    1  A    between atoms: N_3  and  C_1 
REMARK       I    between atoms: C_7  and  N_3 
REMARK    2  A    between atoms: C_12  and  N_3 
REMARK    3  A    between atoms: C_17  and  C_12 
REMARK    4  A    between atoms: N_18  and  C_17 
ROOT
ATOM      1  C   UNL d   1     -39.887  15.079  18.656  0.00  0.00     0.182 A 
ATOM      2  N   UNL d   1     -39.378  15.651  18.991  0.00  0.00    -0.222 NA
ATOM      3  S   UNL d   1     -40.169  14.597  19.270  0.00  0.00    -0.048 SA
ATOM      4  C   UNL d   1     -39.347  15.520  19.804  0.00  0.00     0.092 A 
ATOM      5  C   UNL d   1     -39.832  14.874  19.977  0.00  0.00     0.052 A 
ATOM      6  C   UNL d   1     -38.941  15.907  20.400  0.00  0.00     0.046 A 
ATOM      7  C   UNL d   1     -39.905  14.620  20.757  0.00  0.00     0.034 A 
ATOM      8  C   UNL d   1     -39.020  15.647  21.170  0.00  0.00     0.121 A 
ATOM      9  C   UNL d   1     -39.496  15.011  21.349  0.00  0.00     0.120 A 
ATOM     10  O   UNL d   1     -39.462  14.883  22.169  0.00  0.00    -0.300 OA
ATOM     11  O   UNL d   1     -38.684  15.922  21.879  0.00  0.00    -0.299 OA
ATOM     12  C   UNL d   1     -38.957  15.450  22.499  0.00  0.00     0.304 A 
ENDROOT
BRANCH   1  13
ATOM     13  N   UNL d   1     -40.073  15.013  17.850  0.00  0.00    -0.251 N 
ATOM     14  C   UNL d   1     -40.722  15.437  17.553  0.00  0.00     0.267 C 
ATOM     15  O   UNL d   1     -41.170  15.911  18.046  0.00  0.00    -0.267 OA
ATOM     16  C   UNL d   1     -40.908  15.370  16.748  0.00  0.00     0.066 C 
BRANCH  13  17
ATOM     17  C   UNL d   1     -39.620  14.533  17.352  0.00  0.00     0.104 C 
BRANCH  17  18
ATOM     18  C   UNL d   1     -39.069  14.872  16.840  0.00  0.00     0.100 C 
BRANCH  18  19
ATOM     19  N   UNL d   1     -38.517  14.396  16.451  0.00  0.00    -0.299 N 
ATOM     20  C   UNL d   1     -38.543  13.576  16.541  0.00  0.00     0.100 C 
ATOM     21  C   UNL d   1     -37.940  14.739  15.971  0.00  0.00     0.100 C 
ENDBRANCH  18  19
ENDBRANCH  17  18
ENDBRANCH  13  17
ENDBRANCH   1  13
TORSDOF 4
ENDMDL
