MODEL 1
REMARK VINA RESULT:      17.2      0.000      0.000
REMARK  9 active torsions:
REMARK  status: ('A' for Active; 'I' for Inactive)
REMARK    1  A    between atoms: C_2  and  C_1 
REMARK    2  A    between atoms: C_3  and  C_1 
REMARK    3  A    between atoms: C_12  and  C_1 
REMARK    4  A    between atoms: C_13  and  N_4 
REMARK    5  A    between atoms: C_14  and  N_5 
REMARK    6  A    between atoms: C_17  and  C_12 
REMARK    7  A    between atoms: N_16  and  C_15 
REMARK    8  A    between atoms: C_32  and  N_16 
REMARK    9  A    between atoms: C_33  and  N_16 
ROOT
ATOM      1  C   UNL d   1      32.128  18.855 -23.313  0.00  0.00     0.075 C 
ENDROOT
BRANCH   1   2
ATOM      2  C   UNL d   1      32.558  18.615 -22.651  0.00  0.00     0.191 A 
ATOM      3  N   UNL d   1      32.765  19.083 -22.018  0.00  0.00    -0.192 N 
ATOM      4  N   UNL d   1      33.189  18.622 -21.487  0.00  0.00    -0.039 NA
ATOM      5  N   UNL d   1      33.241  17.869 -21.798  0.00  0.00    -0.022 NA
ATOM      6  N   UNL d   1      32.857  17.860 -22.509  0.00  0.00    -0.108 NA
BRANCH   3   7
ATOM      7  C   UNL d   1      32.603  19.880 -21.886  0.00  0.00     0.086 A 
ATOM      8  C   UNL d   1      33.198  20.440 -21.883  0.00  0.00     0.019 A 
ATOM      9  C   UNL d   1      33.028  21.236 -21.751  0.00  0.00     0.002 A 
ATOM     10  C   UNL d   1      32.262  21.471 -21.623  0.00  0.00     0.000 A 
ATOM     11  C   UNL d   1      31.649  20.919 -21.623  0.00  0.00     0.002 A 
ATOM     12  C   UNL d   1      32.089  22.279 -21.489  0.00  0.00     0.000 C 
ATOM     13  C   UNL d   1      31.819  20.124 -21.755  0.00  0.00     0.019 A 
ENDBRANCH   3   7
ENDBRANCH   1   2
BRANCH   1  14
ATOM     14  C   UNL d   1      32.523  19.204 -23.939  0.00  0.00     0.191 A 
ATOM     15  N   UNL d   1      32.788  18.740 -24.553  0.00  0.00    -0.192 N 
ATOM     16  N   UNL d   1      33.157  19.228 -25.094  0.00  0.00    -0.039 NA
ATOM     17  N   UNL d   1      33.125  19.988 -24.825  0.00  0.00    -0.022 NA
ATOM     18  N   UNL d   1      32.729  19.977 -24.103  0.00  0.00    -0.108 NA
BRANCH  15  19
ATOM     19  C   UNL d   1      32.699  17.935 -24.614  0.00  0.00     0.086 A 
ATOM     20  C   UNL d   1      33.240  17.430 -24.257  0.00  0.00     0.019 A 
ATOM     21  C   UNL d   1      33.160  16.618 -24.311  0.00  0.00     0.002 A 
ATOM     22  C   UNL d   1      32.519  16.308 -24.737  0.00  0.00     0.000 A 
ATOM     23  C   UNL d   1      31.976  16.806 -25.095  0.00  0.00     0.002 A 
ATOM     24  C   UNL d   1      32.428  15.476 -24.798  0.00  0.00     0.000 C 
ATOM     25  C   UNL d   1      32.066  17.623 -25.034  0.00  0.00     0.019 A 
ENDBRANCH  15  19
ENDBRANCH   1  14
BRANCH   1  26
ATOM     26  C   UNL d   1      31.158  18.794 -23.496  0.00  0.00     0.006 C 
BRANCH  26  27
ATOM     27  C   UNL d   1      30.488  18.297 -23.441  0.00  0.00     0.000 A 
ATOM     28  C   UNL d   1      30.341  17.577 -22.957  0.00  0.00     0.002 A 
ATOM     29  C   UNL d   1      29.567  17.154 -23.012  0.00  0.00     0.018 A 
ATOM     30  C   UNL d   1      28.932  17.452 -23.555  0.00  0.00     0.064 A 
ATOM     31  C   UNL d   1      29.083  18.181 -24.044  0.00  0.00     0.018 A 
ATOM     32  C   UNL d   1      29.850  18.599 -23.990  0.00  0.00     0.002 A 
BRANCH  30  33
ATOM     33  N   UNL d   1      28.155  17.024 -23.607  0.00  0.00    -0.304 N 
BRANCH  33  34
ATOM     34  C   UNL d   1      28.056  16.368 -24.190  0.00  0.00     0.080 C 
ATOM     35  C   UNL d   1      28.342  15.552 -23.994  0.00  0.00     0.021 C 
ENDBRANCH  33  34
BRANCH  33  36
ATOM     36  C   UNL d   1      27.486  17.257 -23.076  0.00  0.00     0.080 C 
ATOM     37  C   UNL d   1      26.784  16.725 -22.988  0.00  0.00     0.021 C 
ENDBRANCH  33  36
ENDBRANCH  30  33
ENDBRANCH  26  27
ENDBRANCH   1  26
TORSDOF 9
ENDMDL
