MODEL 1
REMARK VINA RESULT:     107.2      0.000      0.000
REMARK  5 active torsions:
REMARK  status: ('A' for Active; 'I' for Inactive)
REMARK    1  A    between atoms: C_2  and  S_1 
REMARK    2  A    between atoms: N_4  and  S_1 
REMARK    3  A    between atoms: C_3  and  N_5 
REMARK    4  A    between atoms: O_26  and  C_14 
REMARK    5  A    between atoms: O_27  and  C_24 
ROOT
ATOM      1  N   UNL d   1      61.507  45.638  50.314  0.00  0.00    -0.226 N 
ATOM      2  N   UNL d   1      61.100  47.201  50.609  0.00  0.00    -0.319 N 
ATOM      3  C   UNL d   1      61.775  46.232  49.813  0.00  0.00     0.110 A 
ATOM      4  C   UNL d   1      61.037  45.821  50.962  0.00  0.00     0.110 A 
ATOM      5  C   UNL d   1      60.829  46.600  51.115  0.00  0.00     0.096 A 
ATOM      6  C   UNL d   1      61.569  47.022  49.963  0.00  0.00     0.096 A 
ENDROOT
BRANCH   1   7
ATOM      7  S   UNL d   1      61.712  44.852  50.166  0.00  0.00     0.273 S 
ATOM      8  O   UNL d   1      61.320  44.633  50.858  0.00  0.00    -0.200 OA
ATOM      9  O   UNL d   1      62.106  45.064  49.472  0.00  0.00    -0.200 OA
BRANCH   7  10
ATOM     10  C   UNL d   1      61.905  44.060  50.039  0.00  0.00     0.128 A 
ATOM     11  C   UNL d   1      62.428  43.689  50.546  0.00  0.00     0.039 A 
ATOM     12  C   UNL d   1      62.628  42.897  50.428  0.00  0.00     0.095 A 
ATOM     13  C   UNL d   1      62.298  42.480  49.795  0.00  0.00     0.026 A 
ATOM     14  C   UNL d   1      61.768  42.860  49.283  0.00  0.00     0.027 A 
ATOM     15  C   UNL d   1      61.573  43.651  49.407  0.00  0.00     0.106 A 
BRANCH  12  16
ATOM     16  O   UNL d   1      63.153  42.519  50.934  0.00  0.00    -0.328 OA
ATOM     17  C   UNL d   1      63.024  41.728  51.140  0.00  0.00     0.181 C 
ENDBRANCH  12  16
BRANCH  15  18
ATOM     18  O   UNL d   1      61.047  44.034  48.901  0.00  0.00    -0.327 OA
ATOM     19  C   UNL d   1      60.272  43.756  48.836  0.00  0.00     0.181 C 
ENDBRANCH  15  18
ENDBRANCH   7  10
ENDBRANCH   1   7
BRANCH   2  20
ATOM     20  C   UNL d   1      60.889  47.983  50.767  0.00  0.00     0.107 A 
ATOM     21  C   UNL d   1      61.164  48.178  51.450  0.00  0.00    -0.002 A 
ATOM     22  C   UNL d   1      60.962  48.936  51.607  0.00  0.00    -0.006 A 
ATOM     23  C   UNL d   1      60.560  49.227  51.033  0.00  0.00    -0.022 A 
ATOM     24  C   UNL d   1      61.090  49.552  52.308  0.00  0.00    -0.001 A 
ATOM     25  C   UNL d   1      60.255  49.096  50.340  0.00  0.00     0.046 A 
ATOM     26  C   UNL d   1      60.461  48.315  50.171  0.00  0.00     0.038 A 
ATOM     27  C   UNL d   1      60.342  49.708  50.956  0.00  0.00    -0.022 A 
ATOM     28  C   UNL d   1      60.767  49.384  51.552  0.00  0.00    -0.006 A 
ATOM     29  C   UNL d   1      60.985  48.579  51.391  0.00  0.00    -0.002 A 
ENDBRANCH   2  20
TORSDOF 5
ENDMDL
