MODEL 1
REMARK VINA RESULT:      61.3      0.000      0.000
REMARK  5 active torsions:
REMARK  status: ('A' for Active; 'I' for Inactive)
REMARK    1  A    between atoms: N_10  and  C_3 
REMARK    2  A    between atoms: N_11  and  C_6 
REMARK    3  A    between atoms: C_12  and  N_10 
REMARK    4  A    between atoms: C_13  and  N_11 
REMARK    5  A    between atoms: C_21  and  C_13 
ROOT
ATOM      1  C   UNL d   1     -50.138  24.743  33.354  0.00  0.00     0.187 A 
ATOM      2  C   UNL d   1     -49.879  25.487  33.336  0.00  0.00     0.094 A 
ATOM      3  C   UNL d   1     -50.395  26.087  33.334  0.00  0.00     0.185 A 
ATOM      4  N   UNL d   1     -50.906  24.592  33.370  0.00  0.00    -0.040 NA
ATOM      5  N   UNL d   1     -51.164  25.928  33.351  0.00  0.00    -0.040 NA
ATOM      6  C   UNL d   1     -51.420  25.183  33.369  0.00  0.00     0.753 A 
ATOM      7  N   UNL d   1     -48.842  24.299  33.339  0.00  0.00    -0.162 NA
ATOM      8  N   UNL d   1     -49.623  24.144  33.355  0.00  0.00    -0.208 N 
ATOM      9  C   UNL d   1     -48.587  25.045  33.320  0.00  0.00     0.127 A 
ATOM     10  C   UNL d   1     -49.877  23.403  33.373  0.00  0.00     0.123 C 
ENDROOT
BRANCH   3  11
ATOM     11  N   UNL d   1     -50.137  26.865  33.315  0.00  0.00    -0.226 NA
BRANCH  11  12
ATOM     12  C   UNL d   1     -49.807  27.209  33.985  0.00  0.00     0.083 A 
ATOM     13  C   UNL d   1     -50.190  27.160  34.722  0.00  0.00     0.021 A 
ATOM     14  C   UNL d   1     -49.861  27.505  35.395  0.00  0.00     0.031 A 
ATOM     15  C   UNL d   1     -49.135  27.908  35.334  0.00  0.00     0.140 A 
ATOM     16  C   UNL d   1     -48.753  27.960  34.608  0.00  0.00     0.031 A 
ATOM     17  F   UNL d   1     -48.799  28.255  35.999  0.00  0.00    -0.204 F 
ATOM     18  C   UNL d   1     -49.089  27.610  33.932  0.00  0.00     0.021 A 
ENDBRANCH  11  12
ENDBRANCH   3  11
BRANCH   6  19
ATOM     19  N   UNL d   1     -52.235  25.027  33.386  0.00  0.00    -0.058 NA
BRANCH  19  20
ATOM     20  C   UNL d   1     -52.504  24.246  33.486  0.00  0.00     0.118 C 
BRANCH  20  21
ATOM     21  C   UNL d   1     -53.184  23.895  33.798  0.00  0.00     0.020 A 
ATOM     22  C   UNL d   1     -53.837  23.735  33.314  0.00  0.00     0.002 A 
ATOM     23  C   UNL d   1     -54.515  23.381  33.643  0.00  0.00     0.000 A 
ATOM     24  C   UNL d   1     -54.538  23.192  34.442  0.00  0.00     0.000 A 
ATOM     25  C   UNL d   1     -53.892  23.350  34.923  0.00  0.00     0.000 A 
ATOM     26  C   UNL d   1     -53.216  23.701  34.601  0.00  0.00     0.002 A 
ENDBRANCH  20  21
ENDBRANCH  19  20
ENDBRANCH   6  19
TORSDOF 5
ENDMDL
