MODEL 1
REMARK VINA RESULT:      16.6      0.000      0.000
REMARK  5 active torsions:
REMARK  status: ('A' for Active; 'I' for Inactive)
REMARK    1  A    between atoms: O_8  and  S_1 
REMARK    2  A    between atoms: C_9  and  S_1 
REMARK    3  A    between atoms: C_7  and  C_2 
REMARK    4  A    between atoms: C_20  and  C_7 
REMARK    5  A    between atoms: C_14  and  O_8 
ROOT
ATOM      1  C   UNL d   1      45.296 -14.180  44.859  0.00  0.00     0.139 A 
ATOM      2  C   UNL d   1      45.047 -15.485  44.911  0.00  0.00     0.064 A 
ATOM      3  C   UNL d   1      44.694 -14.742  44.911  0.00  0.00     0.220 A 
ATOM      4  C   UNL d   1      45.864 -15.388  44.859  0.00  0.00     0.105 A 
ATOM      5  O   UNL d   1      46.018 -14.578  44.827  0.00  0.00    -0.304 OA
ATOM      6  C   UNL d   1      46.349 -16.043  44.849  0.00  0.00     0.050 A 
ATOM      7  C   UNL d   1      44.723 -16.241  44.952  0.00  0.00     0.007 A 
ATOM      8  C   UNL d   1      46.025 -16.800  44.890  0.00  0.00     0.116 A 
ATOM      9  O   UNL d   1      43.888 -14.578  44.955  0.00  0.00    -0.284 OA
ATOM     10  C   UNL d   1      45.216 -16.896  44.941  0.00  0.00     0.026 A 
ENDROOT
BRANCH   8  11
ATOM     11  O   UNL d   1      46.518 -17.458  44.879  0.00  0.00    -0.227 OA
BRANCH  11  12
ATOM     12  S   UNL d   1      46.473 -17.998  44.256  0.00  0.00     0.304 S 
ATOM     13  O   UNL d   1      46.347 -18.600  44.788  0.00  0.00    -0.193 OA
ATOM     14  O   UNL d   1      46.600 -17.398  43.710  0.00  0.00    -0.193 OA
BRANCH  12  15
ATOM     15  C   UNL d   1      46.427 -18.547  43.631  0.00  0.00     0.111 A 
ATOM     16  C   UNL d   1      46.462 -18.279  42.849  0.00  0.00     0.016 A 
ATOM     17  C   UNL d   1      46.416 -18.822  42.230  0.00  0.00     0.030 A 
ATOM     18  C   UNL d   1      46.335 -19.633  42.391  0.00  0.00     0.140 A 
ATOM     19  C   UNL d   1      46.301 -19.889  43.179  0.00  0.00     0.030 A 
ATOM     20  F   UNL d   1      46.290 -20.167  41.782  0.00  0.00    -0.204 F 
ATOM     21  C   UNL d   1      46.348 -19.343  43.796  0.00  0.00     0.016 A 
ENDBRANCH  12  15
ENDBRANCH  11  12
ENDBRANCH   8  11
BRANCH   1  22
ATOM     22  C   UNL d   1      45.198 -13.361  44.841  0.00  0.00     0.029 C 
BRANCH  22  23
ATOM     23  C   UNL d   1      45.282 -12.942  44.132  0.00  0.00     0.021 A 
ATOM     24  C   UNL d   1      45.965 -12.507  44.003  0.00  0.00     0.099 A 
ATOM     25  N   UNL d   1      46.062 -12.088  43.306  0.00  0.00    -0.242 NA
ATOM     26  C   UNL d   1      45.462 -12.104  42.726  0.00  0.00     0.099 A 
ATOM     27  C   UNL d   1      44.775 -12.544  42.861  0.00  0.00     0.021 A 
ATOM     28  C   UNL d   1      44.691 -12.962  43.570  0.00  0.00     0.003 A 
ENDBRANCH  22  23
ENDBRANCH   1  22
TORSDOF 5
ENDMDL
