MODEL 1
REMARK VINA RESULT:      56.2      0.000      0.000
REMARK  6 active torsions:
REMARK  status: ('A' for Active; 'I' for Inactive)
REMARK       I    between atoms: C_6  and  N_1 
REMARK    1  A    between atoms: C_10  and  C_2 
REMARK    2  A    between atoms: O_16  and  C_8 
REMARK    3  A    between atoms: O_14  and  C_10 
REMARK    4  A    between atoms: O_17  and  C_11 
REMARK    5  A    between atoms: C_15  and  O_14 
REMARK    6  A    between atoms: C_24  and  C_18 
ROOT
ATOM      1  N   UNL d   1      46.499 -19.610  40.690  0.00  0.00    -0.271 N 
ATOM      2  C   UNL d   1      46.351 -18.905  41.091  0.00  0.00     0.092 A 
ATOM      3  C   UNL d   1      46.351 -18.894  41.908  0.00  0.00     0.020 A 
ATOM      4  C   UNL d   1      46.499 -19.586  42.333  0.00  0.00     0.005 A 
ATOM      5  C   UNL d   1      46.204 -18.191  42.305  0.00  0.00     0.028 A 
ATOM      6  C   UNL d   1      46.499 -19.626  39.855  0.00  0.00     0.265 C 
ATOM      7  C   UNL d   1      46.647 -20.302  41.115  0.00  0.00     0.083 A 
ATOM      8  C   UNL d   1      46.204 -18.176  43.130  0.00  0.00     0.116 A 
ATOM      9  C   UNL d   1      46.500 -19.574  43.154  0.00  0.00     0.026 A 
ATOM     10  C   UNL d   1      46.351 -18.867  43.555  0.00  0.00     0.116 A 
ATOM     11  C   UNL d   1      46.647 -20.288  41.940  0.00  0.00     0.019 A 
ATOM     12  O   UNL d   1      46.351 -18.934  39.430  0.00  0.00    -0.267 OA
ATOM     13  C   UNL d   1      46.647 -20.328  39.462  0.00  0.00     0.066 C 
ENDROOT
BRANCH   2  14
ATOM     14  C   UNL d   1      46.203 -18.213  40.666  0.00  0.00     0.140 C 
BRANCH  14  15
ATOM     15  O   UNL d   1      45.426 -17.996  40.488  0.00  0.00    -0.304 OA
BRANCH  15  16
ATOM     16  C   UNL d   1      45.272 -17.517  39.835  0.00  0.00     0.100 A 
ATOM     17  C   UNL d   1      44.518 -17.509  39.499  0.00  0.00     0.025 A 
ATOM     18  C   UNL d   1      44.363 -17.030  38.845  0.00  0.00     0.002 A 
ATOM     19  C   UNL d   1      44.962 -16.559  38.528  0.00  0.00     0.000 A 
ATOM     20  C   UNL d   1      45.716 -16.567  38.864  0.00  0.00     0.002 A 
ATOM     21  C   UNL d   1      45.871 -17.046  39.518  0.00  0.00     0.025 A 
BRANCH  19  22
ATOM     22  C   UNL d   1      44.807 -16.079  37.874  0.00  0.00     0.000 C 
ATOM     23  C   UNL d   1      45.428 -15.777  37.428  0.00  0.00     0.000 C 
ENDBRANCH  19  22
ENDBRANCH  15  16
ENDBRANCH  14  15
ENDBRANCH   2  14
BRANCH   8  24
ATOM     24  O   UNL d   1      46.054 -17.463  43.533  0.00  0.00    -0.326 OA
ATOM     25  C   UNL d   1      46.009 -16.754  43.112  0.00  0.00     0.181 C 
ENDBRANCH   8  24
BRANCH  10  26
ATOM     26  O   UNL d   1      46.352 -18.858  44.389  0.00  0.00    -0.326 OA
ATOM     27  C   UNL d   1      46.216 -19.558  44.805  0.00  0.00     0.181 C 
ENDBRANCH  10  26
TORSDOF 6
ENDMDL
MODEL 2
REMARK VINA RESULT:      56.5      1.665      3.649
REMARK  6 active torsions:
REMARK  status: ('A' for Active; 'I' for Inactive)
REMARK       I    between atoms: C_6  and  N_1 
REMARK    1  A    between atoms: C_10  and  C_2 
REMARK    2  A    between atoms: O_16  and  C_8 
REMARK    3  A    between atoms: O_14  and  C_10 
REMARK    4  A    between atoms: O_17  and  C_11 
REMARK    5  A    between atoms: C_15  and  O_14 
REMARK    6  A    between atoms: C_24  and  C_18 
ROOT
ATOM      1  N   UNL d   1      45.611 -17.525  41.364  0.00  0.00    -0.271 N 
ATOM      2  C   UNL d   1      45.849 -17.506  42.155  0.00  0.00     0.092 A 
ATOM      3  C   UNL d   1      45.981 -18.206  42.555  0.00  0.00     0.020 A 
ATOM      4  C   UNL d   1      45.878 -18.930  42.173  0.00  0.00     0.005 A 
ATOM      5  C   UNL d   1      46.217 -18.185  43.341  0.00  0.00     0.028 A 
ATOM      6  C   UNL d   1      45.475 -16.812  40.951  0.00  0.00     0.265 C 
ATOM      7  C   UNL d   1      45.509 -18.249  40.982  0.00  0.00     0.083 A 
ATOM      8  C   UNL d   1      46.352 -18.890  43.750  0.00  0.00     0.116 A 
ATOM      9  C   UNL d   1      46.012 -19.633  42.577  0.00  0.00     0.026 A 
ATOM     10  C   UNL d   1      46.249 -19.614  43.367  0.00  0.00     0.116 A 
ATOM     11  C   UNL d   1      45.643 -18.954  41.390  0.00  0.00     0.019 A 
ATOM     12  O   UNL d   1      45.577 -16.088  41.333  0.00  0.00    -0.267 OA
ATOM     13  C   UNL d   1      45.240 -16.835  40.168  0.00  0.00     0.066 C 
ENDROOT
BRANCH   2  14
ATOM     14  C   UNL d   1      45.951 -16.782  42.537  0.00  0.00     0.140 C 
BRANCH  14  15
ATOM     15  O   UNL d   1      45.407 -16.536  43.107  0.00  0.00    -0.304 OA
BRANCH  15  16
ATOM     16  C   UNL d   1      45.529 -15.829  43.515  0.00  0.00     0.100 A 
ATOM     17  C   UNL d   1      44.959 -15.557  44.047  0.00  0.00     0.025 A 
ATOM     18  C   UNL d   1      45.081 -14.851  44.455  0.00  0.00     0.002 A 
ATOM     19  C   UNL d   1      45.773 -14.417  44.332  0.00  0.00     0.000 A 
ATOM     20  C   UNL d   1      46.343 -14.690  43.801  0.00  0.00     0.002 A 
ATOM     21  C   UNL d   1      46.220 -15.396  43.392  0.00  0.00     0.025 A 
BRANCH  19  22
ATOM     22  C   UNL d   1      45.895 -13.711  44.741  0.00  0.00     0.000 C 
ATOM     23  C   UNL d   1      45.822 -12.991  44.351  0.00  0.00     0.000 C 
ENDBRANCH  19  22
ENDBRANCH  15  16
ENDBRANCH  14  15
ENDBRANCH   2  14
BRANCH   8  24
ATOM     24  O   UNL d   1      46.591 -18.869  44.546  0.00  0.00    -0.326 OA
ATOM     25  C   UNL d   1      46.632 -18.147  44.945  0.00  0.00     0.181 C 
ENDBRANCH   8  24
BRANCH  10  26
ATOM     26  O   UNL d   1      46.384 -20.329  43.775  0.00  0.00    -0.326 OA
ATOM     27  C   UNL d   1      46.645 -20.309  44.558  0.00  0.00     0.181 C 
ENDBRANCH  10  26
TORSDOF 6
ENDMDL
