MODEL 1
REMARK VINA RESULT:      -8.3      0.000      0.000
REMARK  4 active torsions:
REMARK  status: ('A' for Active; 'I' for Inactive)
REMARK    1  A    between atoms: S_7  and  C_3 
REMARK    2  A    between atoms: C_12  and  S_7 
REMARK    3  A    between atoms: C_9  and  C_12 
REMARK    4  A    between atoms: C_11  and  C_9 
ROOT
ATOM      1  S   UNL d   1      52.678  32.691  52.975  0.00  0.00    -0.043 SA
ENDROOT
BRANCH   1   2
ATOM      2  C   UNL d   1      52.765  33.420  53.348  0.00  0.00     0.220 A 
ATOM      3  N   UNL d   1      52.198  34.009  53.240  0.00  0.00    -0.149 N 
ATOM      4  C   UNL d   1      52.276  34.747  53.611  0.00  0.00     0.303 A 
ATOM      5  N   UNL d   1      51.544  33.870  52.758  0.00  0.00    -0.037 N 
ATOM      6  C   UNL d   1      52.938  34.877  54.094  0.00  0.00     0.161 A 
ATOM      7  O   UNL d   1      51.714  35.330  53.504  0.00  0.00    -0.263 OA
ATOM      8  C   UNL d   1      53.023  35.606  54.467  0.00  0.00     0.028 C 
ATOM      9  N   UNL d   1      53.504  34.288  54.203  0.00  0.00    -0.141 NA
ATOM     10  N   UNL d   1      53.415  33.562  53.829  0.00  0.00    -0.121 NA
ENDBRANCH   1   2
BRANCH   1  11
ATOM     11  C   UNL d   1      52.995  32.014  53.315  0.00  0.00     0.080 C 
BRANCH  11  12
ATOM     12  C   UNL d   1      52.922  31.295  52.929  0.00  0.00     0.202 C 
ATOM     13  O   UNL d   1      52.723  31.257  52.133  0.00  0.00    -0.286 OA
BRANCH  12  14
ATOM     14  C   UNL d   1      53.053  30.592  53.356  0.00  0.00     0.040 A 
ATOM     15  C   UNL d   1      52.467  30.005  53.361  0.00  0.00     0.004 A 
ATOM     16  C   UNL d   1      52.590  29.306  53.782  0.00  0.00     0.011 A 
ATOM     17  C   UNL d   1      53.303  29.196  54.200  0.00  0.00     0.058 A 
ATOM     18  C   UNL d   1      53.878  29.779  54.192  0.00  0.00     0.011 A 
ATOM     19 CL   UNL d   1      53.424  28.504  54.616  0.00  0.00    -0.082 Cl
ATOM     20  C   UNL d   1      53.759  30.479  53.772  0.00  0.00     0.004 A 
ENDBRANCH  12  14
ENDBRANCH  11  12
ENDBRANCH   1  11
TORSDOF 4
ENDMDL
MODEL 2
REMARK VINA RESULT:      -7.8      2.717      4.634
REMARK  4 active torsions:
REMARK  status: ('A' for Active; 'I' for Inactive)
REMARK    1  A    between atoms: S_7  and  C_3 
REMARK    2  A    between atoms: C_12  and  S_7 
REMARK    3  A    between atoms: C_9  and  C_12 
REMARK    4  A    between atoms: C_11  and  C_9 
ROOT
ATOM      1  S   UNL d   1      52.581  33.100  53.034  0.00  0.00    -0.043 SA
ENDROOT
BRANCH   1   2
ATOM      2  C   UNL d   1      52.793  32.309  53.123  0.00  0.00     0.220 A 
ATOM      3  N   UNL d   1      53.286  32.081  53.744  0.00  0.00    -0.149 N 
ATOM      4  C   UNL d   1      53.505  31.288  53.844  0.00  0.00     0.303 A 
ATOM      5  N   UNL d   1      53.568  32.644  54.275  0.00  0.00    -0.037 N 
ATOM      6  C   UNL d   1      53.216  30.728  53.303  0.00  0.00     0.161 A 
ATOM      7  O   UNL d   1      53.994  31.062  54.458  0.00  0.00    -0.263 OA
ATOM      8  C   UNL d   1      53.428  29.938  53.394  0.00  0.00     0.028 C 
ATOM      9  N   UNL d   1      52.723  30.956  52.682  0.00  0.00    -0.141 NA
ATOM     10  N   UNL d   1      52.514  31.746  52.596  0.00  0.00    -0.121 NA
ENDBRANCH   1   2
BRANCH   1  11
ATOM     11  C   UNL d   1      51.850  33.296  52.716  0.00  0.00     0.080 C 
BRANCH  11  12
ATOM     12  C   UNL d   1      51.657  34.085  52.603  0.00  0.00     0.202 C 
ATOM     13  O   UNL d   1      52.219  34.678  52.690  0.00  0.00    -0.286 OA
BRANCH  12  14
ATOM     14  C   UNL d   1      50.874  34.284  52.397  0.00  0.00     0.040 A 
ATOM     15  C   UNL d   1      50.347  34.522  52.991  0.00  0.00     0.004 A 
ATOM     16  C   UNL d   1      49.570  34.720  52.794  0.00  0.00     0.011 A 
ATOM     17  C   UNL d   1      49.323  34.679  51.999  0.00  0.00     0.058 A 
ATOM     18  C   UNL d   1      49.849  34.444  51.416  0.00  0.00     0.011 A 
ATOM     19 CL   UNL d   1      48.555  34.876  51.804  0.00  0.00    -0.082 Cl
ATOM     20  C   UNL d   1      50.626  34.245  51.609  0.00  0.00     0.004 A 
ENDBRANCH  12  14
ENDBRANCH  11  12
ENDBRANCH   1  11
TORSDOF 4
ENDMDL
MODEL 3
REMARK VINA RESULT:      -7.5      2.532      4.529
REMARK  4 active torsions:
REMARK  status: ('A' for Active; 'I' for Inactive)
REMARK    1  A    between atoms: S_7  and  C_3 
REMARK    2  A    between atoms: C_12  and  S_7 
REMARK    3  A    between atoms: C_9  and  C_12 
REMARK    4  A    between atoms: C_11  and  C_9 
ROOT
ATOM      1  S   UNL d   1      53.480  31.659  53.346  0.00  0.00    -0.043 SA
ENDROOT
BRANCH   1   2
ATOM      2  C   UNL d   1      53.399  30.916  53.691  0.00  0.00     0.220 A 
ATOM      3  N   UNL d   1      53.027  30.307  53.277  0.00  0.00    -0.149 N 
ATOM      4  C   UNL d   1      52.940  29.555  53.615  0.00  0.00     0.303 A 
ATOM      5  N   UNL d   1      52.735  30.442  52.518  0.00  0.00    -0.037 N 
ATOM      6  C   UNL d   1      53.237  29.429  54.379  0.00  0.00     0.161 A 
ATOM      7  O   UNL d   1      52.571  28.952  53.205  0.00  0.00    -0.263 OA
ATOM      8  C   UNL d   1      53.155  28.685  54.723  0.00  0.00     0.028 C 
ATOM      9  N   UNL d   1      53.609  30.037  54.793  0.00  0.00    -0.141 NA
ATOM     10  N   UNL d   1      53.688  30.778  54.447  0.00  0.00    -0.121 NA
ENDBRANCH   1   2
BRANCH   1  11
ATOM     11  C   UNL d   1      53.499  32.331  53.818  0.00  0.00     0.080 C 
BRANCH  11  12
ATOM     12  C   UNL d   1      53.783  33.034  53.508  0.00  0.00     0.202 C 
ATOM     13  O   UNL d   1      54.336  33.041  52.902  0.00  0.00    -0.286 OA
BRANCH  12  14
ATOM     14  C   UNL d   1      53.500  33.756  53.818  0.00  0.00     0.040 A 
ATOM     15  C   UNL d   1      53.003  34.229  53.353  0.00  0.00     0.004 A 
ATOM     16  C   UNL d   1      52.720  34.944  53.652  0.00  0.00     0.011 A 
ATOM     17  C   UNL d   1      52.937  35.184  54.421  0.00  0.00     0.058 A 
ATOM     18  C   UNL d   1      53.428  34.711  54.876  0.00  0.00     0.011 A 
ATOM     19 CL   UNL d   1      52.657  35.891  54.718  0.00  0.00    -0.082 Cl
ATOM     20  C   UNL d   1      53.713  33.996  54.580  0.00  0.00     0.004 A 
ENDBRANCH  12  14
ENDBRANCH  11  12
ENDBRANCH   1  11
TORSDOF 4
ENDMDL
MODEL 4
REMARK VINA RESULT:      -7.2      0.997      1.516
REMARK  4 active torsions:
REMARK  status: ('A' for Active; 'I' for Inactive)
REMARK    1  A    between atoms: S_7  and  C_3 
REMARK    2  A    between atoms: C_12  and  S_7 
REMARK    3  A    between atoms: C_9  and  C_12 
REMARK    4  A    between atoms: C_11  and  C_9 
ROOT
ATOM      1  S   UNL d   1      52.856  32.872  53.218  0.00  0.00    -0.043 SA
ENDROOT
BRANCH   1   2
ATOM      2  C   UNL d   1      52.162  33.310  53.139  0.00  0.00     0.220 A 
ATOM      3  N   UNL d   1      52.167  34.121  53.291  0.00  0.00    -0.149 N 
ATOM      4  C   UNL d   1      51.475  34.571  53.215  0.00  0.00     0.303 A 
ATOM      5  N   UNL d   1      52.864  34.494  53.524  0.00  0.00    -0.037 N 
ATOM      6  C   UNL d   1      50.777  34.186  52.980  0.00  0.00     0.161 A 
ATOM      7  O   UNL d   1      51.479  35.374  53.366  0.00  0.00    -0.263 OA
ATOM      8  C   UNL d   1      50.085  34.625  52.901  0.00  0.00     0.028 C 
ATOM      9  N   UNL d   1      50.773  33.375  52.828  0.00  0.00    -0.141 NA
ATOM     10  N   UNL d   1      51.466  32.942  52.908  0.00  0.00    -0.121 NA
ENDBRANCH   1   2
BRANCH   1  11
ATOM     11  C   UNL d   1      52.818  32.057  53.308  0.00  0.00     0.080 C 
BRANCH  11  12
ATOM     12  C   UNL d   1      53.508  31.633  53.433  0.00  0.00     0.202 C 
ATOM     13  O   UNL d   1      54.245  31.958  53.272  0.00  0.00    -0.286 OA
BRANCH  12  14
ATOM     14  C   UNL d   1      53.456  30.855  53.730  0.00  0.00     0.040 A 
ATOM     15  C   UNL d   1      53.375  30.223  53.199  0.00  0.00     0.004 A 
ATOM     16  C   UNL d   1      53.323  29.451  53.485  0.00  0.00     0.011 A 
ATOM     17  C   UNL d   1      53.352  29.313  54.308  0.00  0.00     0.058 A 
ATOM     18  C   UNL d   1      53.433  29.942  54.827  0.00  0.00     0.011 A 
ATOM     19 CL   UNL d   1      53.301  28.549  54.591  0.00  0.00    -0.082 Cl
ATOM     20  C   UNL d   1      53.485  30.715  54.545  0.00  0.00     0.004 A 
ENDBRANCH  12  14
ENDBRANCH  11  12
ENDBRANCH   1  11
TORSDOF 4
ENDMDL
MODEL 5
REMARK VINA RESULT:      -7.0      3.176      4.342
REMARK  4 active torsions:
REMARK  status: ('A' for Active; 'I' for Inactive)
REMARK    1  A    between atoms: S_7  and  C_3 
REMARK    2  A    between atoms: C_12  and  S_7 
REMARK    3  A    between atoms: C_9  and  C_12 
REMARK    4  A    between atoms: C_11  and  C_9 
ROOT
ATOM      1  S   UNL d   1      50.004  34.517  52.343  0.00  0.00    -0.043 SA
ENDROOT
BRANCH   1   2
ATOM      2  C   UNL d   1      49.341  34.976  52.507  0.00  0.00     0.220 A 
ATOM      3  N   UNL d   1      48.733  35.036  51.952  0.00  0.00    -0.149 N 
ATOM      4  C   UNL d   1      48.061  35.496  52.106  0.00  0.00     0.303 A 
ATOM      5  N   UNL d   1      48.789  34.635  51.234  0.00  0.00    -0.037 N 
ATOM      6  C   UNL d   1      48.014  35.895  52.832  0.00  0.00     0.161 A 
ATOM      7  O   UNL d   1      47.459  35.555  51.557  0.00  0.00    -0.263 OA
ATOM      8  C   UNL d   1      47.350  36.354  52.994  0.00  0.00     0.028 C 
ATOM      9  N   UNL d   1      48.622  35.836  53.387  0.00  0.00    -0.141 NA
ATOM     10  N   UNL d   1      49.282  35.376  53.221  0.00  0.00    -0.121 NA
ENDBRANCH   1   2
BRANCH   1  11
ATOM     11  C   UNL d   1      50.647  34.527  52.854  0.00  0.00     0.080 C 
BRANCH  11  12
ATOM     12  C   UNL d   1      51.354  34.184  52.620  0.00  0.00     0.202 C 
ATOM     13  O   UNL d   1      51.452  33.882  51.863  0.00  0.00    -0.286 OA
BRANCH  12  14
ATOM     14  C   UNL d   1      51.983  34.143  53.167  0.00  0.00     0.040 A 
ATOM     15  C   UNL d   1      52.135  33.426  53.555  0.00  0.00     0.004 A 
ATOM     16  C   UNL d   1      52.756  33.377  54.097  0.00  0.00     0.011 A 
ATOM     17  C   UNL d   1      53.225  34.051  54.249  0.00  0.00     0.058 A 
ATOM     18  C   UNL d   1      53.069  34.756  53.862  0.00  0.00     0.011 A 
ATOM     19 CL   UNL d   1      53.838  34.002  54.785  0.00  0.00    -0.082 Cl
ATOM     20  C   UNL d   1      52.449  34.808  53.320  0.00  0.00     0.004 A 
ENDBRANCH  12  14
ENDBRANCH  11  12
ENDBRANCH   1  11
TORSDOF 4
ENDMDL
MODEL 6
REMARK VINA RESULT:      -6.9      2.495      3.343
REMARK  4 active torsions:
REMARK  status: ('A' for Active; 'I' for Inactive)
REMARK    1  A    between atoms: S_7  and  C_3 
REMARK    2  A    between atoms: C_12  and  S_7 
REMARK    3  A    between atoms: C_9  and  C_12 
REMARK    4  A    between atoms: C_11  and  C_9 
ROOT
ATOM      1  S   UNL d   1      51.257  33.891  52.586  0.00  0.00    -0.043 SA
ENDROOT
BRANCH   1   2
ATOM      2  C   UNL d   1      50.565  34.324  52.694  0.00  0.00     0.220 A 
ATOM      3  N   UNL d   1      50.021  34.394  52.077  0.00  0.00    -0.149 N 
ATOM      4  C   UNL d   1      49.321  34.827  52.175  0.00  0.00     0.303 A 
ATOM      5  N   UNL d   1      50.169  34.031  51.353  0.00  0.00    -0.037 N 
ATOM      6  C   UNL d   1      49.180  35.189  52.909  0.00  0.00     0.161 A 
ATOM      7  O   UNL d   1      48.782  34.896  51.565  0.00  0.00    -0.263 OA
ATOM      8  C   UNL d   1      48.488  35.621  53.016  0.00  0.00     0.028 C 
ATOM      9  N   UNL d   1      49.724  35.119  53.526  0.00  0.00    -0.141 NA
ATOM     10  N   UNL d   1      50.413  34.687  53.414  0.00  0.00    -0.121 NA
ENDBRANCH   1   2
BRANCH   1  11
ATOM     11  C   UNL d   1      51.806  33.837  53.193  0.00  0.00     0.080 C 
BRANCH  11  12
ATOM     12  C   UNL d   1      52.458  33.348  53.106  0.00  0.00     0.202 C 
ATOM     13  O   UNL d   1      52.544  32.865  52.447  0.00  0.00    -0.286 OA
BRANCH  12  14
ATOM     14  C   UNL d   1      53.044  33.345  53.699  0.00  0.00     0.040 A 
ATOM     15  C   UNL d   1      53.315  32.619  53.997  0.00  0.00     0.004 A 
ATOM     16  C   UNL d   1      53.894  32.608  54.584  0.00  0.00     0.011 A 
ATOM     17  C   UNL d   1      54.202  33.328  54.874  0.00  0.00     0.058 A 
ATOM     18  C   UNL d   1      53.930  34.041  54.576  0.00  0.00     0.011 A 
ATOM     19 CL   UNL d   1      54.775  33.317  55.455  0.00  0.00    -0.082 Cl
ATOM     20  C   UNL d   1      53.351  34.056  53.989  0.00  0.00     0.004 A 
ENDBRANCH  12  14
ENDBRANCH  11  12
ENDBRANCH   1  11
TORSDOF 4
ENDMDL
MODEL 7
REMARK VINA RESULT:      -6.7      2.923      4.457
REMARK  4 active torsions:
REMARK  status: ('A' for Active; 'I' for Inactive)
REMARK    1  A    between atoms: S_7  and  C_3 
REMARK    2  A    between atoms: C_12  and  S_7 
REMARK    3  A    between atoms: C_9  and  C_12 
REMARK    4  A    between atoms: C_11  and  C_9 
ROOT
ATOM      1  S   UNL d   1      52.114  33.352  52.877  0.00  0.00    -0.043 SA
ENDROOT
BRANCH   1   2
ATOM      2  C   UNL d   1      52.673  33.277  53.477  0.00  0.00     0.220 A 
ATOM      3  N   UNL d   1      53.107  32.579  53.551  0.00  0.00    -0.149 N 
ATOM      4  C   UNL d   1      53.673  32.492  54.151  0.00  0.00     0.303 A 
ATOM      5  N   UNL d   1      52.982  31.957  53.026  0.00  0.00    -0.037 N 
ATOM      6  C   UNL d   1      53.792  33.125  54.675  0.00  0.00     0.161 A 
ATOM      7  O   UNL d   1      54.103  31.801  54.225  0.00  0.00    -0.263 OA
ATOM      8  C   UNL d   1      54.351  33.048  55.274  0.00  0.00     0.028 C 
ATOM      9  N   UNL d   1      53.358  33.822  54.601  0.00  0.00    -0.141 NA
ATOM     10  N   UNL d   1      52.800  33.894  54.002  0.00  0.00    -0.121 NA
ENDBRANCH   1   2
BRANCH   1  11
ATOM     11  C   UNL d   1      51.501  33.893  52.952  0.00  0.00     0.080 C 
BRANCH  11  12
ATOM     12  C   UNL d   1      51.083  34.126  52.287  0.00  0.00     0.202 C 
ATOM     13  O   UNL d   1      51.396  34.035  51.533  0.00  0.00    -0.286 OA
BRANCH  12  14
ATOM     14  C   UNL d   1      50.326  34.461  52.382  0.00  0.00     0.040 A 
ATOM     15  C   UNL d   1      49.784  34.423  51.755  0.00  0.00     0.004 A 
ATOM     16  C   UNL d   1      49.033  34.753  51.841  0.00  0.00     0.011 A 
ATOM     17  C   UNL d   1      48.824  35.122  52.560  0.00  0.00     0.058 A 
ATOM     18  C   UNL d   1      49.364  35.156  53.176  0.00  0.00     0.011 A 
ATOM     19 CL   UNL d   1      48.081  35.448  52.646  0.00  0.00    -0.082 Cl
ATOM     20  C   UNL d   1      50.116  34.827  53.093  0.00  0.00     0.004 A 
ENDBRANCH  12  14
ENDBRANCH  11  12
ENDBRANCH   1  11
TORSDOF 4
ENDMDL
