MODEL 1
REMARK VINA RESULT:      -7.3      0.000      0.000
REMARK  4 active torsions:
REMARK  status: ('A' for Active; 'I' for Inactive)
REMARK    1  A    between atoms: C_7  and  N_1 
REMARK    2  A    between atoms: C_8  and  C_7 
REMARK       I    between atoms: N_9  and  C_8 
REMARK    3  A    between atoms: C_13  and  N_9 
REMARK    4  A    between atoms: O_19  and  C_14 
ROOT
ATOM      1  C   UNL d   1     -48.767  14.088  23.201  0.00  0.00     0.148 C 
ENDROOT
BRANCH   1   2
ATOM      2  N   UNL d   1     -49.475  13.800  22.887  0.00  0.00    -0.235 N 
ATOM      3  C   UNL d   1     -49.887  14.246  22.319  0.00  0.00     0.273 A 
ATOM      4  C   UNL d   1     -50.588  13.961  22.009  0.00  0.00     0.086 A 
ATOM      5  O   UNL d   1     -49.585  14.977  22.070  0.00  0.00    -0.266 OA
ATOM      6  C   UNL d   1     -51.000  14.408  21.439  0.00  0.00     0.012 C 
ATOM      7  S   UNL d   1     -50.893  13.237  22.249  0.00  0.00    -0.077 SA
ATOM      8  C   UNL d   1     -50.489  12.793  22.811  0.00  0.00     0.086 A 
ATOM      9  C   UNL d   1     -49.780  13.067  23.135  0.00  0.00     0.273 A 
ATOM     10  C   UNL d   1     -50.791  12.065  23.058  0.00  0.00     0.012 C 
ATOM     11  O   UNL d   1     -49.373  12.624  23.698  0.00  0.00    -0.266 OA
ENDBRANCH   1   2
BRANCH   1  12
ATOM     12  C   UNL d   1     -48.047  13.820  22.901  0.00  0.00     0.297 C 
ATOM     13  N   UNL d   1     -47.390  13.717  23.408  0.00  0.00    -0.207 NA
ATOM     14  O   UNL d   1     -47.979  13.653  22.094  0.00  0.00    -0.264 OA
BRANCH  13  15
ATOM     15  C   UNL d   1     -46.677  13.449  23.095  0.00  0.00     0.085 A 
ATOM     16  C   UNL d   1     -46.419  12.690  23.290  0.00  0.00     0.021 A 
ATOM     17  C   UNL d   1     -45.711  12.402  22.988  0.00  0.00     0.026 A 
ATOM     18  C   UNL d   1     -45.257  12.886  22.482  0.00  0.00     0.094 A 
ATOM     19  C   UNL d   1     -45.530  13.641  22.297  0.00  0.00     0.026 A 
ATOM     20  C   UNL d   1     -46.231  13.918  22.601  0.00  0.00     0.021 A 
BRANCH  18  21
ATOM     21  O   UNL d   1     -44.547  12.602  22.177  0.00  0.00    -0.328 OA
ATOM     22  C   UNL d   1     -44.232  12.947  21.500  0.00  0.00     0.181 C 
ENDBRANCH  18  21
ENDBRANCH  13  15
ENDBRANCH   1  12
TORSDOF 4
ENDMDL
MODEL 2
REMARK VINA RESULT:      -7.1      1.258      1.730
REMARK  4 active torsions:
REMARK  status: ('A' for Active; 'I' for Inactive)
REMARK    1  A    between atoms: C_7  and  N_1 
REMARK    2  A    between atoms: C_8  and  C_7 
REMARK       I    between atoms: N_9  and  C_8 
REMARK    3  A    between atoms: C_13  and  N_9 
REMARK    4  A    between atoms: O_19  and  C_14 
ROOT
ATOM      1  C   UNL d   1     -48.473  14.616  22.269  0.00  0.00     0.148 C 
ENDROOT
BRANCH   1   2
ATOM      2  N   UNL d   1     -49.295  14.597  22.353  0.00  0.00    -0.235 N 
ATOM      3  C   UNL d   1     -49.660  15.056  22.941  0.00  0.00     0.273 A 
ATOM      4  C   UNL d   1     -50.474  15.037  23.025  0.00  0.00     0.086 A 
ATOM      5  O   UNL d   1     -49.199  15.531  23.441  0.00  0.00    -0.266 OA
ATOM      6  C   UNL d   1     -50.840  15.498  23.616  0.00  0.00     0.012 C 
ATOM      7  S   UNL d   1     -50.938  14.570  22.535  0.00  0.00    -0.077 SA
ATOM      8  C   UNL d   1     -50.581  14.113  21.952  0.00  0.00     0.086 A 
ATOM      9  C   UNL d   1     -49.760  14.122  21.854  0.00  0.00     0.273 A 
ATOM     10  C   UNL d   1     -51.042  13.641  21.455  0.00  0.00     0.012 C 
ATOM     11  O   UNL d   1     -49.399  13.665  21.270  0.00  0.00    -0.266 OA
ENDBRANCH   1   2
BRANCH   1  12
ATOM     12  C   UNL d   1     -48.010  14.037  22.630  0.00  0.00     0.297 C 
ATOM     13  N   UNL d   1     -47.367  13.693  22.221  0.00  0.00    -0.207 NA
ATOM     14  O   UNL d   1     -48.187  13.798  23.402  0.00  0.00    -0.264 OA
BRANCH  13  15
ATOM     15  C   UNL d   1     -46.914  13.116  22.595  0.00  0.00     0.085 A 
ATOM     16  C   UNL d   1     -46.097  13.119  22.484  0.00  0.00     0.021 A 
ATOM     17  C   UNL d   1     -45.627  12.552  22.848  0.00  0.00     0.026 A 
ATOM     18  C   UNL d   1     -45.985  11.973  23.331  0.00  0.00     0.094 A 
ATOM     19  C   UNL d   1     -46.803  11.985  23.431  0.00  0.00     0.026 A 
ATOM     20  C   UNL d   1     -47.260  12.550  23.067  0.00  0.00     0.021 A 
BRANCH  18  21
ATOM     21  O   UNL d   1     -45.517  11.403  23.698  0.00  0.00    -0.328 OA
ATOM     22  C   UNL d   1     -45.764  10.619  23.698  0.00  0.00     0.181 C 
ENDBRANCH  18  21
ENDBRANCH  13  15
ENDBRANCH   1  12
TORSDOF 4
ENDMDL
MODEL 3
REMARK VINA RESULT:      -6.1      8.792      9.668
REMARK  4 active torsions:
REMARK  status: ('A' for Active; 'I' for Inactive)
REMARK    1  A    between atoms: C_7  and  N_1 
REMARK    2  A    between atoms: C_8  and  C_7 
REMARK       I    between atoms: N_9  and  C_8 
REMARK    3  A    between atoms: C_13  and  N_9 
REMARK    4  A    between atoms: O_19  and  C_14 
ROOT
ATOM      1  C   UNL d   1     -40.505  14.343  18.878  0.00  0.00     0.148 C 
ENDROOT
BRANCH   1   2
ATOM      2  N   UNL d   1     -40.155  14.473  18.141  0.00  0.00    -0.235 N 
ATOM      3  C   UNL d   1     -39.596  13.932  17.848  0.00  0.00     0.273 A 
ATOM      4  C   UNL d   1     -39.250  14.061  17.118  0.00  0.00     0.086 A 
ATOM      5  O   UNL d   1     -39.393  13.265  18.296  0.00  0.00    -0.266 OA
ATOM      6  C   UNL d   1     -38.689  13.517  16.825  0.00  0.00     0.012 C 
ATOM      7  S   UNL d   1     -39.445  14.719  16.668  0.00  0.00    -0.077 SA
ATOM      8  C   UNL d   1     -39.998  15.257  16.953  0.00  0.00     0.086 A 
ATOM      9  C   UNL d   1     -40.357  15.141  17.689  0.00  0.00     0.273 A 
ATOM     10  C   UNL d   1     -40.199  15.921  16.505  0.00  0.00     0.012 C 
ATOM     11  O   UNL d   1     -40.911  15.679  17.978  0.00  0.00    -0.266 OA
ENDBRANCH   1   2
BRANCH   1  12
ATOM     12  C   UNL d   1     -40.158  14.659  19.557  0.00  0.00     0.297 C 
ATOM     13  N   UNL d   1     -40.496  14.516  20.309  0.00  0.00    -0.207 NA
ATOM     14  O   UNL d   1     -39.474  15.118  19.490  0.00  0.00    -0.264 OA
BRANCH  13  15
ATOM     15  C   UNL d   1     -40.139  14.837  20.978  0.00  0.00     0.085 A 
ATOM     16  C   UNL d   1     -39.652  14.355  21.439  0.00  0.00     0.021 A 
ATOM     17  C   UNL d   1     -39.287  14.656  22.110  0.00  0.00     0.026 A 
ATOM     18  C   UNL d   1     -39.412  15.454  22.321  0.00  0.00     0.094 A 
ATOM     19  C   UNL d   1     -39.901  15.920  21.849  0.00  0.00     0.026 A 
ATOM     20  C   UNL d   1     -40.259  15.615  21.187  0.00  0.00     0.021 A 
BRANCH  18  21
ATOM     21  O   UNL d   1     -39.048  15.759  22.993  0.00  0.00    -0.328 OA
ATOM     22  C   UNL d   1     -38.314  15.465  23.221  0.00  0.00     0.181 C 
ENDBRANCH  18  21
ENDBRANCH  13  15
ENDBRANCH   1  12
TORSDOF 4
ENDMDL
MODEL 4
REMARK VINA RESULT:      -6.1      8.794     10.232
REMARK  4 active torsions:
REMARK  status: ('A' for Active; 'I' for Inactive)
REMARK    1  A    between atoms: C_7  and  N_1 
REMARK    2  A    between atoms: C_8  and  C_7 
REMARK       I    between atoms: N_9  and  C_8 
REMARK    3  A    between atoms: C_13  and  N_9 
REMARK    4  A    between atoms: O_19  and  C_14 
ROOT
ATOM      1  C   UNL d   1     -40.133  14.465  17.759  0.00  0.00     0.148 C 
ENDROOT
BRANCH   1   2
ATOM      2  N   UNL d   1     -39.495  14.391  17.239  0.00  0.00    -0.235 N 
ATOM      3  C   UNL d   1     -39.288  15.027  16.747  0.00  0.00     0.273 A 
ATOM      4  C   UNL d   1     -38.657  14.954  16.232  0.00  0.00     0.086 A 
ATOM      5  O   UNL d   1     -39.722  15.733  16.779  0.00  0.00    -0.266 OA
ATOM      6  C   UNL d   1     -38.450  15.594  15.738  0.00  0.00     0.012 C 
ATOM      7  S   UNL d   1     -38.221  14.259  16.193  0.00  0.00    -0.077 SA
ATOM      8  C   UNL d   1     -38.422  13.627  16.679  0.00  0.00     0.086 A 
ATOM      9  C   UNL d   1     -39.057  13.685  17.204  0.00  0.00     0.273 A 
ATOM     10  C   UNL d   1     -37.989  12.925  16.646  0.00  0.00     0.012 C 
ATOM     11  O   UNL d   1     -39.262  13.053  17.693  0.00  0.00    -0.266 OA
ENDBRANCH   1   2
BRANCH   1  12
ATOM     12  C   UNL d   1     -40.004  14.725  18.531  0.00  0.00     0.297 C 
ATOM     13  N   UNL d   1     -40.587  14.607  19.120  0.00  0.00    -0.207 NA
ATOM     14  O   UNL d   1     -39.294  15.105  18.720  0.00  0.00    -0.264 OA
BRANCH  13  15
ATOM     15  C   UNL d   1     -40.444  14.873  19.886  0.00  0.00     0.085 A 
ATOM     16  C   UNL d   1     -40.235  14.323  20.465  0.00  0.00     0.021 A 
ATOM     17  C   UNL d   1     -40.088  14.566  21.235  0.00  0.00     0.026 A 
ATOM     18  C   UNL d   1     -40.153  15.376  21.427  0.00  0.00     0.094 A 
ATOM     19  C   UNL d   1     -40.362  15.912  20.837  0.00  0.00     0.026 A 
ATOM     20  C   UNL d   1     -40.506  15.662  20.077  0.00  0.00     0.021 A 
BRANCH  18  21
ATOM     21  O   UNL d   1     -40.007  15.624  22.198  0.00  0.00    -0.328 OA
ATOM     22  C   UNL d   1     -39.265  15.922  22.391  0.00  0.00     0.181 C 
ENDBRANCH  18  21
ENDBRANCH  13  15
ENDBRANCH   1  12
TORSDOF 4
ENDMDL
MODEL 5
REMARK VINA RESULT:      -5.3      8.728      9.709
REMARK  4 active torsions:
REMARK  status: ('A' for Active; 'I' for Inactive)
REMARK    1  A    between atoms: C_7  and  N_1 
REMARK    2  A    between atoms: C_8  and  C_7 
REMARK       I    between atoms: N_9  and  C_8 
REMARK    3  A    between atoms: C_13  and  N_9 
REMARK    4  A    between atoms: O_19  and  C_14 
ROOT
ATOM      1  C   UNL d   1     -40.118  14.435  21.076  0.00  0.00     0.148 C 
ENDROOT
BRANCH   1   2
ATOM      2  N   UNL d   1     -39.512  14.474  21.636  0.00  0.00    -0.235 N 
ATOM      3  C   UNL d   1     -39.387  15.177  22.061  0.00  0.00     0.273 A 
ATOM      4  C   UNL d   1     -38.787  15.216  22.616  0.00  0.00     0.086 A 
ATOM      5  O   UNL d   1     -39.872  15.836  21.922  0.00  0.00    -0.266 OA
ATOM      6  C   UNL d   1     -38.663  15.922  23.042  0.00  0.00     0.012 C 
ATOM      7  S   UNL d   1     -38.303  14.569  22.761  0.00  0.00    -0.077 SA
ATOM      8  C   UNL d   1     -38.423  13.871  22.342  0.00  0.00     0.086 A 
ATOM      9  C   UNL d   1     -39.024  13.816  21.779  0.00  0.00     0.273 A 
ATOM     10  C   UNL d   1     -37.940  13.216  22.483  0.00  0.00     0.012 C 
ATOM     11  O   UNL d   1     -39.147  13.118  21.358  0.00  0.00    -0.266 OA
ENDBRANCH   1   2
BRANCH   1  12
ATOM     12  C   UNL d   1     -39.956  14.603  20.285  0.00  0.00     0.297 C 
ATOM     13  N   UNL d   1     -40.561  14.553  19.709  0.00  0.00    -0.207 NA
ATOM     14  O   UNL d   1     -39.189  14.821  20.064  0.00  0.00    -0.264 OA
BRANCH  13  15
ATOM     15  C   UNL d   1     -40.384  14.724  18.923  0.00  0.00     0.085 A 
ATOM     16  C   UNL d   1     -40.072  14.126  18.448  0.00  0.00     0.021 A 
ATOM     17  C   UNL d   1     -39.888  14.275  17.662  0.00  0.00     0.026 A 
ATOM     18  C   UNL d   1     -40.021  15.037  17.348  0.00  0.00     0.094 A 
ATOM     19  C   UNL d   1     -40.333  15.622  17.837  0.00  0.00     0.026 A 
ATOM     20  C   UNL d   1     -40.512  15.466  18.614  0.00  0.00     0.021 A 
BRANCH  18  21
ATOM     21  O   UNL d   1     -39.838  15.191  16.560  0.00  0.00    -0.328 OA
ATOM     22  C   UNL d   1     -39.060  15.117  16.306  0.00  0.00     0.181 C 
ENDBRANCH  18  21
ENDBRANCH  13  15
ENDBRANCH   1  12
TORSDOF 4
ENDMDL
MODEL 6
REMARK VINA RESULT:      -5.3      8.715      9.735
REMARK  4 active torsions:
REMARK  status: ('A' for Active; 'I' for Inactive)
REMARK    1  A    between atoms: C_7  and  N_1 
REMARK    2  A    between atoms: C_8  and  C_7 
REMARK       I    between atoms: N_9  and  C_8 
REMARK    3  A    between atoms: C_13  and  N_9 
REMARK    4  A    between atoms: O_19  and  C_14 
ROOT
ATOM      1  C   UNL d   1     -40.148  14.600  21.243  0.00  0.00     0.148 C 
ENDROOT
BRANCH   1   2
ATOM      2  N   UNL d   1     -39.517  14.561  21.776  0.00  0.00    -0.235 N 
ATOM      3  C   UNL d   1     -39.083  13.856  21.850  0.00  0.00     0.273 A 
ATOM      4  C   UNL d   1     -38.459  13.817  22.377  0.00  0.00     0.086 A 
ATOM      5  O   UNL d   1     -39.284  13.196  21.390  0.00  0.00    -0.266 OA
ATOM      6  C   UNL d   1     -38.024  13.110  22.451  0.00  0.00     0.012 C 
ATOM      7  S   UNL d   1     -38.252  14.465  22.837  0.00  0.00    -0.077 SA
ATOM      8  C   UNL d   1     -38.679  15.165  22.767  0.00  0.00     0.086 A 
ATOM      9  C   UNL d   1     -39.312  15.221  22.239  0.00  0.00     0.273 A 
ATOM     10  C   UNL d   1     -38.478  15.821  23.226  0.00  0.00     0.012 C 
ATOM     11  O   UNL d   1     -39.742  15.920  22.166  0.00  0.00    -0.266 OA
ENDBRANCH   1   2
BRANCH   1  12
ATOM     12  C   UNL d   1     -40.005  14.788  20.453  0.00  0.00     0.297 C 
ATOM     13  N   UNL d   1     -40.593  14.654  19.874  0.00  0.00    -0.207 NA
ATOM     14  O   UNL d   1     -39.275  15.111  20.236  0.00  0.00    -0.264 OA
BRANCH  13  15
ATOM     15  C   UNL d   1     -40.436  14.847  19.088  0.00  0.00     0.085 A 
ATOM     16  C   UNL d   1     -40.349  14.236  18.540  0.00  0.00     0.021 A 
ATOM     17  C   UNL d   1     -40.192  14.406  17.752  0.00  0.00     0.026 A 
ATOM     18  C   UNL d   1     -40.122  15.203  17.512  0.00  0.00     0.094 A 
ATOM     19  C   UNL d   1     -40.212  15.799  18.073  0.00  0.00     0.026 A 
ATOM     20  C   UNL d   1     -40.367  15.622  18.851  0.00  0.00     0.021 A 
BRANCH  18  21
ATOM     21  O   UNL d   1     -39.965  15.377  16.723  0.00  0.00    -0.328 OA
ATOM     22  C   UNL d   1     -39.188  15.366  16.455  0.00  0.00     0.181 C 
ENDBRANCH  18  21
ENDBRANCH  13  15
ENDBRANCH   1  12
TORSDOF 4
ENDMDL
MODEL 7
REMARK VINA RESULT:      -5.1      7.940      9.893
REMARK  4 active torsions:
REMARK  status: ('A' for Active; 'I' for Inactive)
REMARK    1  A    between atoms: C_7  and  N_1 
REMARK    2  A    between atoms: C_8  and  C_7 
REMARK       I    between atoms: N_9  and  C_8 
REMARK    3  A    between atoms: C_13  and  N_9 
REMARK    4  A    between atoms: O_19  and  C_14 
ROOT
ATOM      1  C   UNL d   1     -40.279  13.917  19.330  0.00  0.00     0.148 C 
ENDROOT
BRANCH   1   2
ATOM      2  N   UNL d   1     -40.239  14.356  20.030  0.00  0.00    -0.235 N 
ATOM      3  C   UNL d   1     -39.614  14.228  20.562  0.00  0.00     0.273 A 
ATOM      4  C   UNL d   1     -39.574  14.662  21.254  0.00  0.00     0.086 A 
ATOM      5  O   UNL d   1     -39.034  13.660  20.390  0.00  0.00    -0.266 OA
ATOM      6  C   UNL d   1     -38.947  14.533  21.788  0.00  0.00     0.012 C 
ATOM      7  S   UNL d   1     -40.144  15.226  21.432  0.00  0.00    -0.077 SA
ATOM      8  C   UNL d   1     -40.764  15.356  20.908  0.00  0.00     0.086 A 
ATOM      9  C   UNL d   1     -40.818  14.926  20.205  0.00  0.00     0.273 A 
ATOM     10  C   UNL d   1     -41.340  15.922  21.081  0.00  0.00     0.012 C 
ATOM     11  O   UNL d   1     -41.439  15.054  19.677  0.00  0.00    -0.266 OA
ENDBRANCH   1   2
BRANCH   1  12
ATOM     12  C   UNL d   1     -39.835  14.148  18.675  0.00  0.00     0.297 C 
ATOM     13  N   UNL d   1     -39.778  13.650  18.006  0.00  0.00    -0.207 NA
ATOM     14  O   UNL d   1     -39.446  14.878  18.684  0.00  0.00    -0.264 OA
BRANCH  13  15
ATOM     15  C   UNL d   1     -39.330  13.895  17.359  0.00  0.00     0.085 A 
ATOM     16  C   UNL d   1     -38.616  13.512  17.203  0.00  0.00     0.021 A 
ATOM     17  C   UNL d   1     -38.155  13.740  16.563  0.00  0.00     0.026 A 
ATOM     18  C   UNL d   1     -38.416  14.363  16.072  0.00  0.00     0.094 A 
ATOM     19  C   UNL d   1     -39.132  14.734  16.243  0.00  0.00     0.026 A 
ATOM     20  C   UNL d   1     -39.582  14.502  16.879  0.00  0.00     0.021 A 
BRANCH  18  21
ATOM     21  O   UNL d   1     -37.957  14.595  15.430  0.00  0.00    -0.328 OA
ATOM     22  C   UNL d   1     -37.940  14.124  14.757  0.00  0.00     0.181 C 
ENDBRANCH  18  21
ENDBRANCH  13  15
ENDBRANCH   1  12
TORSDOF 4
ENDMDL
