MODEL 1
REMARK VINA RESULT:      -5.9      0.000      0.000
REMARK  3 active torsions:
REMARK  status: ('A' for Active; 'I' for Inactive)
REMARK    1  A    between atoms: S_10  and  C_7 
REMARK    2  A    between atoms: C_13  and  S_10 
REMARK    3  A    between atoms: C_12  and  C_13 
ROOT
ATOM      1  N   UNL d   1      58.468  -0.346  30.004  0.00  0.00    -0.167 N 
ATOM      2  C   UNL d   1      58.808   0.360  30.248  0.00  0.00     0.220 A 
ATOM      3  C   UNL d   1      58.818  -0.803  29.403  0.00  0.00     0.301 A 
ATOM      4  S   UNL d   1      58.335   0.676  30.842  0.00  0.00    -0.019 SA
ATOM      5  N   UNL d   1      57.790  -0.466  30.443  0.00  0.00    -0.147 NA
ATOM      6  N   UNL d   1      59.509   0.618  29.889  0.00  0.00    -0.121 NA
ATOM      7  C   UNL d   1      57.707   0.161  30.959  0.00  0.00     0.163 A 
ATOM      8  N   UNL d   1      59.860   0.177  29.299  0.00  0.00    -0.141 NA
ATOM      9  C   UNL d   1      59.516  -0.532  29.056  0.00  0.00     0.161 A 
ATOM     10  O   UNL d   1      58.475  -1.508  29.162  0.00  0.00    -0.263 OA
ATOM     11  C   UNL d   1      59.865  -0.985  28.459  0.00  0.00     0.028 C 
ENDROOT
BRANCH   7  12
ATOM     12  S   UNL d   1      57.095   0.261  31.506  0.00  0.00    -0.059 SA
BRANCH  12  13
ATOM     13  C   UNL d   1      56.772  -0.395  31.881  0.00  0.00     0.038 C 
BRANCH  13  14
ATOM     14  C   UNL d   1      56.228  -0.239  32.477  0.00  0.00     0.017 A 
ATOM     15  C   UNL d   1      55.945  -0.855  32.953  0.00  0.00     0.058 A 
ATOM     16 CL   UNL d   1      56.208  -1.624  32.828  0.00  0.00    -0.082 Cl
ATOM     17  C   UNL d   1      55.406  -0.708  33.546  0.00  0.00     0.011 A 
ATOM     18  C   UNL d   1      55.135   0.067  33.679  0.00  0.00     0.001 A 
ATOM     19  C   UNL d   1      55.410   0.682  33.214  0.00  0.00     0.000 A 
ATOM     20  C   UNL d   1      55.956   0.536  32.611  0.00  0.00     0.001 A 
ENDBRANCH  13  14
ENDBRANCH  12  13
ENDBRANCH   7  12
TORSDOF 3
ENDMDL
MODEL 2
REMARK VINA RESULT:      -4.8      1.995      4.537
REMARK  3 active torsions:
REMARK  status: ('A' for Active; 'I' for Inactive)
REMARK    1  A    between atoms: S_10  and  C_7 
REMARK    2  A    between atoms: C_13  and  S_10 
REMARK    3  A    between atoms: C_12  and  C_13 
ROOT
ATOM      1  N   UNL d   1      56.636  -0.504  31.980  0.00  0.00    -0.167 N 
ATOM      2  C   UNL d   1      56.561   0.305  32.086  0.00  0.00     0.220 A 
ATOM      3  C   UNL d   1      56.235  -1.039  32.477  0.00  0.00     0.301 A 
ATOM      4  S   UNL d   1      57.019   0.679  31.514  0.00  0.00    -0.019 SA
ATOM      5  N   UNL d   1      57.137  -0.631  31.348  0.00  0.00    -0.147 NA
ATOM      6  N   UNL d   1      56.079   0.592  32.696  0.00  0.00    -0.121 NA
ATOM      7  C   UNL d   1      57.373   0.094  31.061  0.00  0.00     0.163 A 
ATOM      8  N   UNL d   1      55.682   0.076  33.189  0.00  0.00    -0.141 NA
ATOM      9  C   UNL d   1      55.760  -0.737  33.079  0.00  0.00     0.161 A 
ATOM     10  O   UNL d   1      56.313  -1.848  32.367  0.00  0.00    -0.263 OA
ATOM     11  C   UNL d   1      55.361  -1.266  33.573  0.00  0.00     0.028 C 
ENDROOT
BRANCH   7  12
ATOM     12  S   UNL d   1      57.883   0.220  30.421  0.00  0.00    -0.059 SA
BRANCH  12  13
ATOM     13  C   UNL d   1      58.684   0.343  30.556  0.00  0.00     0.038 C 
BRANCH  13  14
ATOM     14  C   UNL d   1      59.156   0.418  29.887  0.00  0.00     0.017 A 
ATOM     15  C   UNL d   1      59.963   0.588  29.964  0.00  0.00     0.058 A 
ATOM     16 CL   UNL d   1      60.293   0.682  30.712  0.00  0.00    -0.082 Cl
ATOM     17  C   UNL d   1      60.437   0.665  29.306  0.00  0.00     0.011 A 
ATOM     18  C   UNL d   1      60.111   0.572  28.546  0.00  0.00     0.001 A 
ATOM     19  C   UNL d   1      59.315   0.404  28.461  0.00  0.00     0.000 A 
ATOM     20  C   UNL d   1      58.831   0.326  29.126  0.00  0.00     0.001 A 
ENDBRANCH  13  14
ENDBRANCH  12  13
ENDBRANCH   7  12
TORSDOF 3
ENDMDL
