MODEL 1
REMARK VINA RESULT:      -1.7      0.000      0.000
REMARK  4 active torsions:
REMARK  status: ('A' for Active; 'I' for Inactive)
REMARK    1  A    between atoms: C_15  and  C_2 
REMARK    2  A    between atoms: C_5  and  S_13 
REMARK       I    between atoms: C_11  and  N_8 
REMARK    3  A    between atoms: C_18  and  C_11 
REMARK    4  A    between atoms: S_13  and  C_18 
ROOT
ATOM      1  N   UNL d   1      32.955  19.452 -22.508  0.00  0.00    -0.272 N 
ATOM      2  C   UNL d   1      32.941  18.644 -22.610  0.00  0.00     0.271 C 
ATOM      3  C   UNL d   1      32.976  21.091 -22.321  0.00  0.00     0.023 A 
ATOM      4  C   UNL d   1      33.230  19.790 -21.809  0.00  0.00     0.083 A 
ATOM      5  C   UNL d   1      32.687  19.944 -23.122  0.00  0.00     0.083 A 
ATOM      6  O   UNL d   1      33.201  18.154 -22.015  0.00  0.00    -0.266 OA
ATOM      7  C   UNL d   1      33.241  20.610 -21.715  0.00  0.00     0.021 A 
ATOM      8  C   UNL d   1      32.701  20.765 -23.020  0.00  0.00     0.021 A 
ENDROOT
BRANCH   2   9
ATOM      9  C   UNL d   1      32.660  18.316 -23.321  0.00  0.00     0.099 C 
BRANCH   9  10
ATOM     10  S   UNL d   1      32.595  17.496 -23.398  0.00  0.00    -0.054 SA
BRANCH  10  11
ATOM     11  C   UNL d   1      32.014  17.160 -23.898  0.00  0.00     0.164 A 
ATOM     12  S   UNL d   1      31.551  16.498 -23.729  0.00  0.00    -0.039 SA
ATOM     13  C   UNL d   1      31.052  16.365 -24.382  0.00  0.00     0.134 A 
ATOM     14  C   UNL d   1      30.490  15.751 -24.449  0.00  0.00     0.030 C 
ATOM     15  N   UNL d   1      31.210  16.950 -24.954  0.00  0.00    -0.140 NA
ATOM     16  N   UNL d   1      31.810  17.447 -24.653  0.00  0.00    -0.134 NA
ENDBRANCH  10  11
ENDBRANCH   9  10
ENDBRANCH   2   9
BRANCH   3  17
ATOM     17  C   UNL d   1      32.984  21.901 -22.234  0.00  0.00     0.110 A 
ATOM     18  N   UNL d   1      33.191  22.439 -22.809  0.00  0.00    -0.126 NA
ATOM     19  O   UNL d   1      33.124  23.201 -22.494  0.00  0.00    -0.211 OA
ATOM     20  C   UNL d   1      32.877  23.125 -21.724  0.00  0.00     0.127 A 
ATOM     21  C   UNL d   1      32.714  23.678 -21.134  0.00  0.00     0.029 A 
ATOM     22  C   UNL d   1      32.789  22.318 -21.558  0.00  0.00     0.047 A 
ATOM     23  C   UNL d   1      32.471  23.435 -20.399  0.00  0.00     0.032 A 
ATOM     24  C   UNL d   1      32.378  22.629 -20.221  0.00  0.00     0.140 A 
ATOM     25  C   UNL d   1      32.545  22.075 -20.824  0.00  0.00     0.033 A 
ATOM     26  F   UNL d   1      32.135  22.386 -19.487  0.00  0.00    -0.204 F 
ENDBRANCH   3  17
TORSDOF 4
ENDMDL
MODEL 2
REMARK VINA RESULT:      -0.7      1.454      2.297
REMARK  4 active torsions:
REMARK  status: ('A' for Active; 'I' for Inactive)
REMARK    1  A    between atoms: C_15  and  C_2 
REMARK    2  A    between atoms: C_5  and  S_13 
REMARK       I    between atoms: C_11  and  N_8 
REMARK    3  A    between atoms: C_18  and  C_11 
REMARK    4  A    between atoms: S_13  and  C_18 
ROOT
ATOM      1  N   UNL d   1      32.137  17.774 -23.750  0.00  0.00    -0.272 N 
ATOM      2  C   UNL d   1      31.897  17.005 -23.864  0.00  0.00     0.271 C 
ATOM      3  C   UNL d   1      32.607  19.341 -23.530  0.00  0.00     0.023 A 
ATOM      4  C   UNL d   1      32.812  17.952 -23.312  0.00  0.00     0.083 A 
ATOM      5  C   UNL d   1      31.692  18.393 -24.082  0.00  0.00     0.083 A 
ATOM      6  O   UNL d   1      32.326  16.392 -23.543  0.00  0.00    -0.266 OA
ATOM      7  C   UNL d   1      33.047  18.735 -23.202  0.00  0.00     0.021 A 
ATOM      8  C   UNL d   1      31.934  19.175 -23.967  0.00  0.00     0.021 A 
ENDROOT
BRANCH   2   9
ATOM      9  C   UNL d   1      31.213  16.841 -24.309  0.00  0.00     0.099 C 
BRANCH   9  10
ATOM     10  S   UNL d   1      30.814  16.125 -24.200  0.00  0.00    -0.054 SA
BRANCH  10  11
ATOM     11  C   UNL d   1      29.978  16.097 -24.219  0.00  0.00     0.164 A 
ATOM     12  S   UNL d   1      29.476  16.110 -23.565  0.00  0.00    -0.039 SA
ATOM     13  C   UNL d   1      28.693  16.071 -23.845  0.00  0.00     0.134 A 
ATOM     14  C   UNL d   1      28.005  16.070 -23.372  0.00  0.00     0.030 C 
ATOM     15  N   UNL d   1      28.717  16.034 -24.677  0.00  0.00    -0.140 NA
ATOM     16  N   UNL d   1      29.518  16.050 -24.912  0.00  0.00    -0.134 NA
ENDBRANCH  10  11
ENDBRANCH   9  10
ENDBRANCH   2   9
BRANCH   3  17
ATOM     17  C   UNL d   1      32.835  20.116 -23.424  0.00  0.00     0.110 A 
ATOM     18  N   UNL d   1      33.051  20.633 -24.015  0.00  0.00    -0.126 NA
ATOM     19  O   UNL d   1      33.241  21.361 -23.672  0.00  0.00    -0.211 OA
ATOM     20  C   UNL d   1      33.140  21.286 -22.870  0.00  0.00     0.127 A 
ATOM     21  C   UNL d   1      33.241  21.813 -22.244  0.00  0.00     0.029 A 
ATOM     22  C   UNL d   1      32.887  20.513 -22.712  0.00  0.00     0.047 A 
ATOM     23  C   UNL d   1      33.094  21.579 -21.481  0.00  0.00     0.032 A 
ATOM     24  C   UNL d   1      32.841  20.806 -21.310  0.00  0.00     0.140 A 
ATOM     25  C   UNL d   1      32.741  20.278 -21.949  0.00  0.00     0.033 A 
ATOM     26  F   UNL d   1      32.695  20.572 -20.548  0.00  0.00    -0.204 F 
ENDBRANCH   3  17
TORSDOF 4
ENDMDL
