MODEL 1
REMARK VINA RESULT:      49.9      0.000      0.000
REMARK  3 active torsions:
REMARK  status: ('A' for Active; 'I' for Inactive)
REMARK    1  A    between atoms: C_10  and  N_2 
REMARK    2  A    between atoms: C_15  and  C_3 
REMARK    3  A    between atoms: C_6  and  C_4 
ROOT
ATOM      1  N   UNL d   1     -54.777-100.656 -40.043  0.00  0.00    -0.165 NA
ATOM      2  N   UNL d   1     -54.766-101.728 -39.103  0.00  0.00    -0.228 N 
ATOM      3  C   UNL d   1     -54.738-102.007 -40.499  0.00  0.00     0.081 A 
ATOM      4  C   UNL d   1     -54.755-101.199 -40.663  0.00  0.00     0.106 A 
ATOM      5  C   UNL d   1     -54.744-102.272 -39.723  0.00  0.00     0.105 A 
ENDROOT
BRANCH   4   6
ATOM      6  C   UNL d   1     -54.749-100.929 -41.444  0.00  0.00     0.022 A 
ATOM      7  C   UNL d   1     -54.739-101.470 -42.064  0.00  0.00     0.028 A 
ATOM      8  C   UNL d   1     -54.733-101.201 -42.846  0.00  0.00     0.123 A 
ATOM      9  O   UNL d   1     -54.723-101.744 -43.468  0.00  0.00    -0.301 OA
ATOM     10  C   UNL d   1     -54.739-100.377 -43.000  0.00  0.00     0.123 A 
ATOM     11  C   UNL d   1     -54.717-101.465 -44.258  0.00  0.00     0.149 A 
ATOM     12  C   UNL d   1     -54.723-100.650 -44.411  0.00  0.00     0.149 A 
ATOM     13  O   UNL d   1     -54.733-100.111 -43.780  0.00  0.00    -0.301 OA
ATOM     14  C   UNL d   1     -54.749 -99.848 -42.371  0.00  0.00     0.027 A 
ATOM     15  C   UNL d   1     -54.755-100.115 -41.596  0.00  0.00     0.004 A 
ENDBRANCH   4   6
BRANCH   3  16
ATOM     16  C   UNL d   1     -54.715-102.575 -41.147  0.00  0.00     0.237 C 
ATOM     17  O   UNL d   1     -55.445-102.877 -41.464  0.00  0.00    -0.283 OA
ENDBRANCH   3  16
BRANCH   2  18
ATOM     18  C   UNL d   1     -54.777-101.776 -38.280  0.00  0.00     0.083 A 
ATOM     19  C   UNL d   1     -54.713-102.507 -37.904  0.00  0.00     0.019 A 
ATOM     20  C   UNL d   1     -54.725-102.546 -37.079  0.00  0.00     0.002 A 
ATOM     21  C   UNL d   1     -54.801-101.857 -36.634  0.00  0.00     0.000 A 
ATOM     22  C   UNL d   1     -54.865-101.124 -37.012  0.00  0.00     0.002 A 
ATOM     23  C   UNL d   1     -54.853-101.087 -37.835  0.00  0.00     0.019 A 
ENDBRANCH   2  18
TORSDOF 3
ENDMDL
MODEL 2
REMARK VINA RESULT:      50.8      1.038      1.806
REMARK  3 active torsions:
REMARK  status: ('A' for Active; 'I' for Inactive)
REMARK    1  A    between atoms: C_10  and  N_2 
REMARK    2  A    between atoms: C_15  and  C_3 
REMARK    3  A    between atoms: C_6  and  C_4 
ROOT
ATOM      1  N   UNL d   1     -54.762-100.373 -41.500  0.00  0.00    -0.165 NA
ATOM      2  N   UNL d   1     -54.780-101.610 -40.791  0.00  0.00    -0.228 N 
ATOM      3  C   UNL d   1     -54.788-101.606 -42.216  0.00  0.00     0.081 A 
ATOM      4  C   UNL d   1     -54.773-100.783 -42.216  0.00  0.00     0.106 A 
ATOM      5  C   UNL d   1     -54.791-102.020 -41.507  0.00  0.00     0.105 A 
ENDROOT
BRANCH   4   6
ATOM      6  C   UNL d   1     -54.770-100.363 -42.928  0.00  0.00     0.022 A 
ATOM      7  C   UNL d   1     -54.781-100.771 -43.643  0.00  0.00     0.028 A 
ATOM      8  C   UNL d   1     -54.778-100.352 -44.356  0.00  0.00     0.123 A 
ATOM      9  O   UNL d   1     -54.790-100.761 -45.073  0.00  0.00    -0.301 OA
ATOM     10  C   UNL d   1     -54.762 -99.514 -44.344  0.00  0.00     0.123 A 
ATOM     11  C   UNL d   1     -54.786-100.331 -45.793  0.00  0.00     0.149 A 
ATOM     12  C   UNL d   1     -54.771 -99.502 -45.781  0.00  0.00     0.149 A 
ATOM     13  O   UNL d   1     -54.759 -99.099 -45.056  0.00  0.00    -0.301 OA
ATOM     14  C   UNL d   1     -54.751 -99.120 -43.623  0.00  0.00     0.027 A 
ATOM     15  C   UNL d   1     -54.754 -99.535 -42.916  0.00  0.00     0.004 A 
ENDBRANCH   4   6
BRANCH   3  16
ATOM     16  C   UNL d   1     -54.799-102.035 -42.963  0.00  0.00     0.237 C 
ATOM     17  O   UNL d   1     -54.927-102.876 -42.961  0.00  0.00    -0.283 OA
ENDBRANCH   3  16
BRANCH   2  18
ATOM     18  C   UNL d   1     -54.779-101.820 -39.994  0.00  0.00     0.083 A 
ATOM     19  C   UNL d   1     -54.715-101.242 -39.410  0.00  0.00     0.019 A 
ATOM     20  C   UNL d   1     -54.715-101.463 -38.614  0.00  0.00     0.002 A 
ATOM     21  C   UNL d   1     -54.779-102.257 -38.405  0.00  0.00     0.000 A 
ATOM     22  C   UNL d   1     -54.843-102.836 -38.992  0.00  0.00     0.002 A 
ATOM     23  C   UNL d   1     -54.843-102.615 -39.786  0.00  0.00     0.019 A 
ENDBRANCH   2  18
TORSDOF 3
ENDMDL
