MODEL 1
REMARK VINA RESULT:      -5.1      0.000      0.000
REMARK  8 active torsions:
REMARK  status: ('A' for Active; 'I' for Inactive)
REMARK    1  A    between atoms: S_13  and  C_4 
REMARK    2  A    between atoms: C_5  and  N_10 
REMARK    3  A    between atoms: C_20  and  N_6 
REMARK       I    between atoms: N_10  and  C_14 
REMARK    4  A    between atoms: C_19  and  S_13 
REMARK    5  A    between atoms: C_14  and  C_19 
REMARK    6  A    between atoms: C_22  and  C_20 
REMARK    7  A    between atoms: C_28  and  C_22 
REMARK    8  A    between atoms: N_25  and  C_28 
ROOT
ATOM      1  N   UNL d   1     -41.331  13.915  19.623  0.00  0.00    -0.185 NA
ATOM      2  C   UNL d   1     -40.760  14.042  19.042  0.00  0.00     0.354 A 
ATOM      3  C   UNL d   1     -40.370  14.228  20.635  0.00  0.00     0.040 A 
ATOM      4  C   UNL d   1     -41.136  14.008  20.420  0.00  0.00     0.117 A 
ATOM      5  N   UNL d   1     -39.995  14.262  19.257  0.00  0.00    -0.258 N 
ATOM      6  C   UNL d   1     -39.799  14.355  20.053  0.00  0.00     0.070 A 
ATOM      7  O   UNL d   1     -40.949  13.951  18.239  0.00  0.00    -0.244 OA
ATOM      8  C   UNL d   1     -40.015  14.361  21.364  0.00  0.00     0.004 A 
ATOM      9  C   UNL d   1     -39.096  14.566  20.427  0.00  0.00     0.018 A 
ATOM     10  C   UNL d   1     -39.225  14.571  21.229  0.00  0.00     0.002 A 
ENDROOT
BRANCH   4  11
ATOM     11  S   UNL d   1     -41.707  13.881  21.002  0.00  0.00    -0.062 SA
BRANCH  11  12
ATOM     12  C   UNL d   1     -42.239  13.268  20.925  0.00  0.00     0.099 C 
BRANCH  12  13
ATOM     13  C   UNL d   1     -42.963  13.296  21.320  0.00  0.00     0.288 C 
ATOM     14  N   UNL d   1     -43.430  12.622  21.375  0.00  0.00    -0.182 NA
ATOM     15  O   UNL d   1     -43.218  14.003  21.661  0.00  0.00    -0.265 OA
BRANCH  14  16
ATOM     16  C   UNL d   1     -44.153  12.651  21.770  0.00  0.00     0.197 A 
ATOM     17  N   UNL d   1     -44.336  12.081  22.339  0.00  0.00    -0.221 NA
ATOM     18  C   UNL d   1     -45.092  12.256  22.635  0.00  0.00     0.090 A 
ATOM     19  C   UNL d   1     -45.558  11.885  23.205  0.00  0.00     0.020 A 
ATOM     20  C   UNL d   1     -45.367  12.922  22.254  0.00  0.00     0.050 A 
ATOM     21  C   UNL d   1     -46.298  12.189  23.387  0.00  0.00     0.002 A 
ATOM     22  C   UNL d   1     -46.575  12.859  23.004  0.00  0.00     0.001 A 
ATOM     23  C   UNL d   1     -46.113  13.229  22.436  0.00  0.00     0.008 A 
ATOM     24  C   UNL d   1     -47.333  13.156  23.202  0.00  0.00     0.000 C 
ATOM     25  S   UNL d   1     -44.790  13.173  21.715  0.00  0.00    -0.047 SA
ENDBRANCH  14  16
ENDBRANCH  12  13
ENDBRANCH  11  12
ENDBRANCH   4  11
BRANCH   5  26
ATOM     26  C   UNL d   1     -39.424  14.390  18.675  0.00  0.00     0.086 C 
BRANCH  26  27
ATOM     27  C   UNL d   1     -39.112  13.759  18.257  0.00  0.00     0.038 C 
BRANCH  27  28
ATOM     28  C   UNL d   1     -38.442  13.861  17.787  0.00  0.00     0.082 C 
BRANCH  28  29
ATOM     29  N   UNL d   1     -38.197  13.261  17.283  0.00  0.00    -0.300 N 
ATOM     30  C   UNL d   1     -37.941  12.540  17.592  0.00  0.00     0.100 C 
ATOM     31  C   UNL d   1     -38.207  13.379  16.466  0.00  0.00     0.100 C 
ENDBRANCH  28  29
ENDBRANCH  27  28
ENDBRANCH  26  27
ENDBRANCH   5  26
TORSDOF 8
ENDMDL
MODEL 2
REMARK VINA RESULT:      -4.4      1.826      7.352
REMARK  8 active torsions:
REMARK  status: ('A' for Active; 'I' for Inactive)
REMARK    1  A    between atoms: S_13  and  C_4 
REMARK    2  A    between atoms: C_5  and  N_10 
REMARK    3  A    between atoms: C_20  and  N_6 
REMARK       I    between atoms: N_10  and  C_14 
REMARK    4  A    between atoms: C_19  and  S_13 
REMARK    5  A    between atoms: C_14  and  C_19 
REMARK    6  A    between atoms: C_22  and  C_20 
REMARK    7  A    between atoms: C_28  and  C_22 
REMARK    8  A    between atoms: N_25  and  C_28 
ROOT
ATOM      1  N   UNL d   1     -45.590  13.315  22.277  0.00  0.00    -0.185 NA
ATOM      2  C   UNL d   1     -46.364  13.404  22.548  0.00  0.00     0.354 A 
ATOM      3  C   UNL d   1     -45.503  12.049  22.937  0.00  0.00     0.040 A 
ATOM      4  C   UNL d   1     -45.159  12.638  22.471  0.00  0.00     0.117 A 
ATOM      5  N   UNL d   1     -46.707  12.815  23.014  0.00  0.00    -0.258 N 
ATOM      6  C   UNL d   1     -46.277  12.138  23.208  0.00  0.00     0.070 A 
ATOM      7  O   UNL d   1     -46.802  14.082  22.357  0.00  0.00    -0.244 OA
ATOM      8  C   UNL d   1     -45.223  11.330  23.216  0.00  0.00     0.004 A 
ATOM      9  C   UNL d   1     -46.470  11.472  23.654  0.00  0.00     0.018 A 
ATOM     10  C   UNL d   1     -45.826  10.975  23.660  0.00  0.00     0.002 A 
ENDROOT
BRANCH   4  11
ATOM     11  S   UNL d   1     -44.385  12.549  22.199  0.00  0.00    -0.062 SA
BRANCH  11  12
ATOM     12  C   UNL d   1     -44.106  13.027  21.600  0.00  0.00     0.099 C 
BRANCH  12  13
ATOM     13  C   UNL d   1     -43.294  13.096  21.472  0.00  0.00     0.288 C 
ATOM     14  N   UNL d   1     -42.968  13.826  21.281  0.00  0.00    -0.182 NA
ATOM     15  O   UNL d   1     -42.808  12.432  21.536  0.00  0.00    -0.265 OA
BRANCH  14  16
ATOM     16  C   UNL d   1     -42.156  13.895  21.153  0.00  0.00     0.197 A 
ATOM     17  N   UNL d   1     -41.875  14.198  20.438  0.00  0.00    -0.221 NA
ATOM     18  C   UNL d   1     -41.045  14.199  20.475  0.00  0.00     0.090 A 
ATOM     19  C   UNL d   1     -40.471  14.435  19.933  0.00  0.00     0.020 A 
ATOM     20  C   UNL d   1     -40.822  13.903  21.201  0.00  0.00     0.050 A 
ATOM     21  C   UNL d   1     -39.676  14.372  20.126  0.00  0.00     0.002 A 
ATOM     22  C   UNL d   1     -39.451  14.074  20.856  0.00  0.00     0.001 A 
ATOM     23  C   UNL d   1     -40.021  13.838  21.398  0.00  0.00     0.008 A 
ATOM     24  C   UNL d   1     -38.635  14.015  21.037  0.00  0.00     0.000 C 
ATOM     25  S   UNL d   1     -41.506  13.712  21.628  0.00  0.00    -0.047 SA
ENDBRANCH  14  16
ENDBRANCH  12  13
ENDBRANCH  11  12
ENDBRANCH   4  11
BRANCH   5  26
ATOM     26  C   UNL d   1     -47.481  12.904  23.285  0.00  0.00     0.086 C 
BRANCH  26  27
ATOM     27  C   UNL d   1     -48.112  12.713  22.802  0.00  0.00     0.038 C 
BRANCH  27  28
ATOM     28  C   UNL d   1     -48.885  12.866  23.047  0.00  0.00     0.082 C 
BRANCH  28  29
ATOM     29  N   UNL d   1     -49.514  12.465  22.701  0.00  0.00    -0.300 N 
ATOM     30  C   UNL d   1     -49.964  11.938  23.147  0.00  0.00     0.100 C 
ATOM     31  C   UNL d   1     -49.695  12.591  21.906  0.00  0.00     0.100 C 
ENDBRANCH  28  29
ENDBRANCH  27  28
ENDBRANCH  26  27
ENDBRANCH   5  26
TORSDOF 8
ENDMDL
MODEL 3
REMARK VINA RESULT:      -3.9      2.194      7.588
REMARK  8 active torsions:
REMARK  status: ('A' for Active; 'I' for Inactive)
REMARK    1  A    between atoms: S_13  and  C_4 
REMARK    2  A    between atoms: C_5  and  N_10 
REMARK    3  A    between atoms: C_20  and  N_6 
REMARK       I    between atoms: N_10  and  C_14 
REMARK    4  A    between atoms: C_19  and  S_13 
REMARK    5  A    between atoms: C_14  and  C_19 
REMARK    6  A    between atoms: C_22  and  C_20 
REMARK    7  A    between atoms: C_28  and  C_22 
REMARK    8  A    between atoms: N_25  and  C_28 
ROOT
ATOM      1  N   UNL d   1     -46.459  13.652  22.483  0.00  0.00    -0.185 NA
ATOM      2  C   UNL d   1     -47.267  13.754  22.619  0.00  0.00     0.354 A 
ATOM      3  C   UNL d   1     -46.520  12.359  23.091  0.00  0.00     0.040 A 
ATOM      4  C   UNL d   1     -46.085  12.955  22.719  0.00  0.00     0.117 A 
ATOM      5  N   UNL d   1     -47.700  13.158  22.991  0.00  0.00    -0.258 N 
ATOM      6  C   UNL d   1     -47.327  12.461  23.226  0.00  0.00     0.070 A 
ATOM      7  O   UNL d   1     -47.648  14.453  22.385  0.00  0.00    -0.244 OA
ATOM      8  C   UNL d   1     -46.310  11.621  23.382  0.00  0.00     0.004 A 
ATOM      9  C   UNL d   1     -47.611  11.784  23.601  0.00  0.00     0.018 A 
ATOM     10  C   UNL d   1     -46.990  11.268  23.698  0.00  0.00     0.002 A 
ENDROOT
BRANCH   4  11
ATOM     11  S   UNL d   1     -45.278  12.853  22.583  0.00  0.00    -0.062 SA
BRANCH  11  12
ATOM     12  C   UNL d   1     -44.982  12.907  21.825  0.00  0.00     0.099 C 
BRANCH  12  13
ATOM     13  C   UNL d   1     -44.243  13.251  21.695  0.00  0.00     0.288 C 
ATOM     14  N   UNL d   1     -43.623  12.796  21.404  0.00  0.00    -0.182 NA
ATOM     15  O   UNL d   1     -44.126  14.051  21.856  0.00  0.00    -0.265 OA
BRANCH  14  16
ATOM     16  C   UNL d   1     -42.885  13.139  21.273  0.00  0.00     0.197 A 
ATOM     17  N   UNL d   1     -42.256  12.974  21.782  0.00  0.00    -0.221 NA
ATOM     18  C   UNL d   1     -41.595  13.396  21.510  0.00  0.00     0.090 A 
ATOM     19  C   UNL d   1     -40.822  13.448  21.790  0.00  0.00     0.020 A 
ATOM     20  C   UNL d   1     -41.815  13.812  20.844  0.00  0.00     0.050 A 
ATOM     21  C   UNL d   1     -40.276  13.918  21.399  0.00  0.00     0.002 A 
ATOM     22  C   UNL d   1     -40.496  14.337  20.730  0.00  0.00     0.001 A 
ATOM     23  C   UNL d   1     -41.266  14.287  20.448  0.00  0.00     0.008 A 
ATOM     24  C   UNL d   1     -39.926  14.813  20.342  0.00  0.00     0.000 C 
ATOM     25  S   UNL d   1     -42.615  13.658  20.691  0.00  0.00    -0.047 SA
ENDBRANCH  14  16
ENDBRANCH  12  13
ENDBRANCH  11  12
ENDBRANCH   4  11
BRANCH   5  26
ATOM     26  C   UNL d   1     -48.507  13.260  23.126  0.00  0.00     0.086 C 
BRANCH  26  27
ATOM     27  C   UNL d   1     -49.045  13.151  22.520  0.00  0.00     0.038 C 
BRANCH  27  28
ATOM     28  C   UNL d   1     -49.856  13.172  22.673  0.00  0.00     0.082 C 
BRANCH  28  29
ATOM     29  N   UNL d   1     -50.393  13.127  22.053  0.00  0.00    -0.300 N 
ATOM     30  C   UNL d   1     -51.046  13.630  22.034  0.00  0.00     0.100 C 
ATOM     31  C   UNL d   1     -50.280  12.576  21.448  0.00  0.00     0.100 C 
ENDBRANCH  28  29
ENDBRANCH  27  28
ENDBRANCH  26  27
ENDBRANCH   5  26
TORSDOF 8
ENDMDL
