MODEL 1
REMARK VINA RESULT:      -6.0      0.000      0.000
REMARK  0 active torsions:
REMARK  status: ('A' for Active; 'I' for Inactive)
ROOT
ATOM      1  C   UNL d   1      57.760  -0.090  30.764  0.00  0.00     0.166 A 
ATOM      2  C   UNL d   1      57.655  -0.910  30.730  0.00  0.00     0.117 A 
ATOM      3  N   UNL d   1      58.295   0.132  30.169  0.00  0.00    -0.288 N 
ATOM      4  C   UNL d   1      58.125  -1.197  30.113  0.00  0.00     0.037 A 
ATOM      5  N   UNL d   1      57.363   0.368  31.327  0.00  0.00    -0.225 NA
ATOM      6  C   UNL d   1      58.510  -0.554  29.780  0.00  0.00     0.067 A 
ATOM      7  N   UNL d   1      57.149  -1.272  31.263  0.00  0.00    -0.241 NA
ATOM      8  C   UNL d   1      56.856   0.005  31.860  0.00  0.00     0.101 A 
ATOM      9  C   UNL d   1      56.750  -0.820  31.826  0.00  0.00     0.099 A 
ATOM     10  C   UNL d   1      59.029  -0.686  29.135  0.00  0.00     0.018 A 
ATOM     11  C   UNL d   1      58.238  -1.976  29.828  0.00  0.00     0.003 A 
ATOM     12  C   UNL d   1      58.746   0.682  29.738  0.00  0.00     0.101 C 
ATOM     13  C   UNL d   1      58.741  -2.094  29.205  0.00  0.00     0.000 A 
ATOM     14  C   UNL d   1      59.124  -1.462  28.871  0.00  0.00     0.002 A 
ATOM     15  C   UNL d   1      56.256  -1.151  32.352  0.00  0.00     0.021 A 
ATOM     16  C   UNL d   1      56.458   0.459  32.424  0.00  0.00     0.021 A 
ATOM     17  C   UNL d   1      58.897  -2.787  28.884  0.00  0.00     0.000 C 
ATOM     18  C   UNL d   1      55.849  -0.721  32.920  0.00  0.00     0.002 A 
ATOM     19  C   UNL d   1      55.954   0.097  32.954  0.00  0.00     0.002 A 
ENDROOT
TORSDOF 0
ENDMDL
MODEL 2
REMARK VINA RESULT:      -4.6      1.851      4.282
REMARK  0 active torsions:
REMARK  status: ('A' for Active; 'I' for Inactive)
ROOT
ATOM      1  C   UNL d   1      57.634   0.674  32.698  0.00  0.00     0.166 A 
ATOM      2  C   UNL d   1      56.873   0.672  32.375  0.00  0.00     0.117 A 
ATOM      3  N   UNL d   1      57.569   0.678  33.527  0.00  0.00    -0.288 N 
ATOM      4  C   UNL d   1      56.334   0.675  33.003  0.00  0.00     0.037 A 
ATOM      5  N   UNL d   1      58.305   0.671  32.213  0.00  0.00    -0.225 NA
ATOM      6  C   UNL d   1      56.769   0.678  33.698  0.00  0.00     0.067 A 
ATOM      7  N   UNL d   1      56.783   0.667  31.561  0.00  0.00    -0.241 NA
ATOM      8  C   UNL d   1      58.214   0.667  31.398  0.00  0.00     0.101 A 
ATOM      9  C   UNL d   1      57.448   0.665  31.072  0.00  0.00     0.099 A 
ATOM     10  C   UNL d   1      56.359   0.682  34.429  0.00  0.00     0.018 A 
ATOM     11  C   UNL d   1      55.496   0.674  33.005  0.00  0.00     0.003 A 
ATOM     12  C   UNL d   1      57.875   0.682  34.299  0.00  0.00     0.101 C 
ATOM     13  C   UNL d   1      55.109   0.678  33.716  0.00  0.00     0.000 A 
ATOM     14  C   UNL d   1      55.534   0.681  34.407  0.00  0.00     0.002 A 
ATOM     15  C   UNL d   1      57.383   0.661  30.281  0.00  0.00     0.021 A 
ATOM     16  C   UNL d   1      58.880   0.665  30.910  0.00  0.00     0.021 A 
ATOM     17  C   UNL d   1      54.335   0.678  33.801  0.00  0.00     0.000 C 
ATOM     18  C   UNL d   1      58.030   0.659  29.777  0.00  0.00     0.002 A 
ATOM     19  C   UNL d   1      58.790   0.661  30.099  0.00  0.00     0.002 A 
ENDROOT
TORSDOF 0
ENDMDL
MODEL 3
REMARK VINA RESULT:      -4.2      2.066      2.761
REMARK  0 active torsions:
REMARK  status: ('A' for Active; 'I' for Inactive)
ROOT
ATOM      1  C   UNL d   1      57.171   0.678  33.122  0.00  0.00     0.166 A 
ATOM      2  C   UNL d   1      56.693   0.678  32.446  0.00  0.00     0.117 A 
ATOM      3  N   UNL d   1      57.967   0.680  32.882  0.00  0.00    -0.288 N 
ATOM      4  C   UNL d   1      57.193   0.678  31.787  0.00  0.00     0.037 A 
ATOM      5  N   UNL d   1      56.838   0.678  33.879  0.00  0.00    -0.225 NA
ATOM      6  C   UNL d   1      57.964   0.680  32.064  0.00  0.00     0.067 A 
ATOM      7  N   UNL d   1      55.878   0.676  32.530  0.00  0.00    -0.241 NA
ATOM      8  C   UNL d   1      56.023   0.676  33.963  0.00  0.00     0.101 A 
ATOM      9  C   UNL d   1      55.542   0.675  33.284  0.00  0.00     0.099 A 
ATOM     10  C   UNL d   1      58.592   0.681  31.509  0.00  0.00     0.018 A 
ATOM     11  C   UNL d   1      57.018   0.678  30.967  0.00  0.00     0.003 A 
ATOM     12  C   UNL d   1      58.786   0.682  33.018  0.00  0.00     0.101 C 
ATOM     13  C   UNL d   1      57.630   0.679  30.438  0.00  0.00     0.000 A 
ATOM     14  C   UNL d   1      58.396   0.681  30.707  0.00  0.00     0.002 A 
ATOM     15  C   UNL d   1      54.755   0.674  33.388  0.00  0.00     0.021 A 
ATOM     16  C   UNL d   1      55.687   0.676  34.718  0.00  0.00     0.021 A 
ATOM     17  C   UNL d   1      57.549   0.679  29.663  0.00  0.00     0.000 C 
ATOM     18  C   UNL d   1      54.399   0.673  34.127  0.00  0.00     0.002 A 
ATOM     19  C   UNL d   1      54.875   0.674  34.801  0.00  0.00     0.002 A 
ENDROOT
TORSDOF 0
ENDMDL
MODEL 4
REMARK VINA RESULT:      -3.9      9.248      9.546
REMARK  0 active torsions:
REMARK  status: ('A' for Active; 'I' for Inactive)
ROOT
ATOM      1  C   UNL d   1      60.212  -9.451  33.442  0.00  0.00     0.166 A 
ATOM      2  C   UNL d   1      59.392  -9.445  33.552  0.00  0.00     0.117 A 
ATOM      3  N   UNL d   1      60.369  -9.576  32.636  0.00  0.00    -0.288 N 
ATOM      4  C   UNL d   1      59.040  -9.567  32.814  0.00  0.00     0.037 A 
ATOM      5  N   UNL d   1      60.729  -9.342  34.079  0.00  0.00    -0.225 NA
ATOM      6  C   UNL d   1      59.644  -9.645  32.265  0.00  0.00     0.067 A 
ATOM      7  N   UNL d   1      59.088  -9.331  34.304  0.00  0.00    -0.241 NA
ATOM      8  C   UNL d   1      60.424  -9.228  34.832  0.00  0.00     0.101 A 
ATOM      9  C   UNL d   1      59.599  -9.222  34.943  0.00  0.00     0.099 A 
ATOM     10  C   UNL d   1      59.443  -9.775  31.461  0.00  0.00     0.018 A 
ATOM     11  C   UNL d   1      58.233  -9.614  32.593  0.00  0.00     0.003 A 
ATOM     12  C   UNL d   1      60.870  -9.672  31.980  0.00  0.00     0.101 C 
ATOM     13  C   UNL d   1      58.049  -9.740  31.815  0.00  0.00     0.000 A 
ATOM     14  C   UNL d   1      58.642  -9.818  31.267  0.00  0.00     0.002 A 
ATOM     15  C   UNL d   1      59.326  -9.109  35.680  0.00  0.00     0.021 A 
ATOM     16  C   UNL d   1      60.937  -9.119  35.471  0.00  0.00     0.021 A 
ATOM     17  C   UNL d   1      57.325  -9.795  31.532  0.00  0.00     0.000 C 
ATOM     18  C   UNL d   1      59.816  -9.000  36.329  0.00  0.00     0.002 A 
ATOM     19  C   UNL d   1      60.634  -9.005  36.220  0.00  0.00     0.002 A 
ENDROOT
TORSDOF 0
ENDMDL
MODEL 5
REMARK VINA RESULT:      -3.6      1.762      2.106
REMARK  0 active torsions:
REMARK  status: ('A' for Active; 'I' for Inactive)
ROOT
ATOM      1  C   UNL d   1      57.508   0.679  31.091  0.00  0.00     0.166 A 
ATOM      2  C   UNL d   1      58.182   0.679  31.571  0.00  0.00     0.117 A 
ATOM      3  N   UNL d   1      57.750   0.678  30.296  0.00  0.00    -0.288 N 
ATOM      4  C   UNL d   1      58.843   0.678  31.073  0.00  0.00     0.037 A 
ATOM      5  N   UNL d   1      56.750   0.679  31.421  0.00  0.00    -0.225 NA
ATOM      6  C   UNL d   1      58.568   0.678  30.301  0.00  0.00     0.067 A 
ATOM      7  N   UNL d   1      58.096   0.680  32.385  0.00  0.00    -0.241 NA
ATOM      8  C   UNL d   1      56.664   0.680  32.237  0.00  0.00     0.101 A 
ATOM      9  C   UNL d   1      57.342   0.680  32.720  0.00  0.00     0.099 A 
ATOM     10  C   UNL d   1      59.125   0.677  29.674  0.00  0.00     0.018 A 
ATOM     11  C   UNL d   1      59.662   0.678  31.250  0.00  0.00     0.003 A 
ATOM     12  C   UNL d   1      57.616   0.677  29.476  0.00  0.00     0.101 C 
ATOM     13  C   UNL d   1      60.193   0.677  30.639  0.00  0.00     0.000 A 
ATOM     14  C   UNL d   1      59.926   0.677  29.873  0.00  0.00     0.002 A 
ATOM     15  C   UNL d   1      57.236   0.681  33.506  0.00  0.00     0.021 A 
ATOM     16  C   UNL d   1      55.908   0.681  32.571  0.00  0.00     0.021 A 
ATOM     17  C   UNL d   1      60.967   0.677  30.722  0.00  0.00     0.000 C 
ATOM     18  C   UNL d   1      56.495   0.682  33.860  0.00  0.00     0.002 A 
ATOM     19  C   UNL d   1      55.823   0.682  33.383  0.00  0.00     0.002 A 
ENDROOT
TORSDOF 0
ENDMDL
MODEL 6
REMARK VINA RESULT:      -3.0      9.168      9.497
REMARK  0 active torsions:
REMARK  status: ('A' for Active; 'I' for Inactive)
ROOT
ATOM      1  C   UNL d   1      58.500  -9.810  32.254  0.00  0.00     0.166 A 
ATOM      2  C   UNL d   1      59.202  -9.810  31.817  0.00  0.00     0.117 A 
ATOM      3  N   UNL d   1      57.859  -9.812  31.726  0.00  0.00    -0.288 N 
ATOM      4  C   UNL d   1      58.996  -9.812  31.015  0.00  0.00     0.037 A 
ATOM      5  N   UNL d   1      58.513  -9.809  33.082  0.00  0.00    -0.225 NA
ATOM      6  C   UNL d   1      58.177  -9.813  30.972  0.00  0.00     0.067 A 
ATOM      7  N   UNL d   1      59.920  -9.809  32.209  0.00  0.00    -0.241 NA
ATOM      8  C   UNL d   1      59.233  -9.807  33.475  0.00  0.00     0.101 A 
ATOM      9  C   UNL d   1      59.939  -9.807  33.034  0.00  0.00     0.099 A 
ATOM     10  C   UNL d   1      57.813  -9.815  30.218  0.00  0.00     0.018 A 
ATOM     11  C   UNL d   1      59.475  -9.813  30.327  0.00  0.00     0.003 A 
ATOM     12  C   UNL d   1      57.050  -9.813  31.534  0.00  0.00     0.101 C 
ATOM     13  C   UNL d   1      59.114  -9.815  29.602  0.00  0.00     0.000 A 
ATOM     14  C   UNL d   1      58.304  -9.816  29.554  0.00  0.00     0.002 A 
ATOM     15  C   UNL d   1      60.625  -9.806  33.434  0.00  0.00     0.021 A 
ATOM     16  C   UNL d   1      59.251  -9.806  34.300  0.00  0.00     0.021 A 
ATOM     17  C   UNL d   1      59.489  -9.816  28.919  0.00  0.00     0.000 C 
ATOM     18  C   UNL d   1      60.667  -9.804  34.254  0.00  0.00     0.002 A 
ATOM     19  C   UNL d   1      59.967  -9.804  34.691  0.00  0.00     0.002 A 
ENDROOT
TORSDOF 0
ENDMDL
