MODEL 1
REMARK VINA RESULT:      77.4      0.000      0.000
REMARK  6 active torsions:
REMARK  status: ('A' for Active; 'I' for Inactive)
REMARK    1  A    between atoms: C_9  and  S_1 
REMARK    2  A    between atoms: N_10  and  S_1 
REMARK    3  A    between atoms: C_2  and  N_6 
REMARK       I    between atoms: N_6  and  C_8 
REMARK    4  A    between atoms: C_8  and  C_15 
REMARK    5  A    between atoms: O_24  and  C_13 
REMARK    6  A    between atoms: O_23  and  C_14 
ROOT
ATOM      1  N   UNL d   1     -53.378  23.773  33.326  0.00  0.00    -0.183 NA
ATOM      2  C   UNL d   1     -53.818  23.708  34.026  0.00  0.00     0.281 C 
ATOM      3  O   UNL d   1     -54.527  23.290  34.019  0.00  0.00    -0.265 OA
ENDROOT
BRANCH   1   4
ATOM      4  C   UNL d   1     -52.658  24.196  33.322  0.00  0.00     0.197 A 
ATOM      5  N   UNL d   1     -52.575  25.015  33.321  0.00  0.00    -0.218 NA
ATOM      6  C   UNL d   1     -51.772  25.187  33.316  0.00  0.00     0.114 A 
ATOM      7  C   UNL d   1     -51.356  25.896  33.314  0.00  0.00     0.112 A 
ATOM      8  C   UNL d   1     -51.361  24.474  33.314  0.00  0.00     0.074 A 
ATOM      9  C   UNL d   1     -50.531  25.899  33.309  0.00  0.00     0.028 A 
ATOM     10  C   UNL d   1     -50.122  25.175  33.306  0.00  0.00     0.027 A 
ATOM     11  C   UNL d   1     -50.534  24.468  33.309  0.00  0.00     0.102 A 
ATOM     12  S   UNL d   1     -51.920  23.861  33.317  0.00  0.00    -0.045 SA
BRANCH   7  13
ATOM     13  O   UNL d   1     -51.766  26.625  33.316  0.00  0.00    -0.327 OA
ATOM     14  C   UNL d   1     -51.363  27.324  33.487  0.00  0.00     0.181 C 
ENDBRANCH   7  13
BRANCH  11  15
ATOM     15  O   UNL d   1     -50.125  23.739  33.306  0.00  0.00    -0.328 OA
ATOM     16  C   UNL d   1     -49.980  23.349  34.016  0.00  0.00     0.181 C 
ENDBRANCH  11  15
ENDBRANCH   1   4
BRANCH   2  17
ATOM     17  C   UNL d   1     -53.541  24.058  34.702  0.00  0.00     0.058 A 
ATOM     18  C   UNL d   1     -53.384  23.615  35.373  0.00  0.00     0.005 A 
ATOM     19  C   UNL d   1     -53.102  23.971  36.058  0.00  0.00     0.013 A 
ATOM     20  C   UNL d   1     -52.975  24.789  36.073  0.00  0.00     0.104 A 
ATOM     21  C   UNL d   1     -53.132  25.243  35.399  0.00  0.00     0.013 A 
ATOM     22  C   UNL d   1     -53.414  24.877  34.716  0.00  0.00     0.005 A 
BRANCH  20  23
ATOM     23  S   UNL d   1     -52.693  25.150  36.760  0.00  0.00     0.271 S 
ATOM     24  O   UNL d   1     -52.546  24.404  37.087  0.00  0.00    -0.200 OA
ATOM     25  O   UNL d   1     -52.842  25.889  36.428  0.00  0.00    -0.200 OA
BRANCH  23  26
ATOM     26  N   UNL d   1     -52.412  25.513  37.442  0.00  0.00    -0.226 N 
ATOM     27  C   UNL d   1     -51.646  25.800  37.471  0.00  0.00     0.111 C 
ATOM     28  C   UNL d   1     -52.907  25.585  38.097  0.00  0.00     0.111 C 
ENDBRANCH  23  26
ENDBRANCH  20  23
ENDBRANCH   2  17
TORSDOF 6
ENDMDL
MODEL 2
REMARK VINA RESULT:      79.2      1.657      3.240
REMARK  6 active torsions:
REMARK  status: ('A' for Active; 'I' for Inactive)
REMARK    1  A    between atoms: C_9  and  S_1 
REMARK    2  A    between atoms: N_10  and  S_1 
REMARK    3  A    between atoms: C_2  and  N_6 
REMARK       I    between atoms: N_6  and  C_8 
REMARK    4  A    between atoms: C_8  and  C_15 
REMARK    5  A    between atoms: O_24  and  C_13 
REMARK    6  A    between atoms: O_23  and  C_14 
ROOT
ATOM      1  N   UNL d   1     -50.475  27.238  33.306  0.00  0.00    -0.183 NA
ATOM      2  C   UNL d   1     -50.386  27.683  34.001  0.00  0.00     0.281 C 
ATOM      3  O   UNL d   1     -50.073  28.442  33.955  0.00  0.00    -0.265 OA
ENDROOT
BRANCH   1   4
ATOM      4  C   UNL d   1     -50.792  26.466  33.341  0.00  0.00     0.197 A 
ATOM      5  N   UNL d   1     -50.362  25.767  33.406  0.00  0.00    -0.218 NA
ATOM      6  C   UNL d   1     -50.896  25.143  33.421  0.00  0.00     0.114 A 
ATOM      7  C   UNL d   1     -50.798  24.329  33.478  0.00  0.00     0.112 A 
ATOM      8  C   UNL d   1     -51.655  25.459  33.364  0.00  0.00     0.074 A 
ATOM      9  C   UNL d   1     -51.451  23.826  33.479  0.00  0.00     0.028 A 
ATOM     10  C   UNL d   1     -52.215  24.152  33.421  0.00  0.00     0.027 A 
ATOM     11  C   UNL d   1     -52.315  24.962  33.364  0.00  0.00     0.102 A 
ATOM     12  S   UNL d   1     -51.581  26.284  33.314  0.00  0.00    -0.045 SA
BRANCH   7  13
ATOM     13  O   UNL d   1     -50.031  24.001  33.536  0.00  0.00    -0.327 OA
ATOM     14  C   UNL d   1     -49.938  23.189  33.650  0.00  0.00     0.181 C 
ENDBRANCH   7  13
BRANCH  11  15
ATOM     15  O   UNL d   1     -53.081  25.290  33.306  0.00  0.00    -0.328 OA
ATOM     16  C   UNL d   1     -53.736  24.841  33.520  0.00  0.00     0.181 C 
ENDBRANCH  11  15
ENDBRANCH   1   4
BRANCH   2  17
ATOM     17  C   UNL d   1     -50.609  27.360  34.709  0.00  0.00     0.058 A 
ATOM     18  C   UNL d   1     -51.391  27.160  34.854  0.00  0.00     0.005 A 
ATOM     19  C   UNL d   1     -51.616  26.832  35.573  0.00  0.00     0.013 A 
ATOM     20  C   UNL d   1     -51.047  26.701  36.161  0.00  0.00     0.104 A 
ATOM     21  C   UNL d   1     -50.257  26.900  36.021  0.00  0.00     0.013 A 
ATOM     22  C   UNL d   1     -50.040  27.229  35.296  0.00  0.00     0.005 A 
BRANCH  20  23
ATOM     23  S   UNL d   1     -51.270  26.371  36.884  0.00  0.00     0.271 S 
ATOM     24  O   UNL d   1     -51.541  27.113  37.135  0.00  0.00    -0.200 OA
ATOM     25  O   UNL d   1     -50.999  25.637  36.629  0.00  0.00    -0.200 OA
BRANCH  23  26
ATOM     26  N   UNL d   1     -51.491  26.040  37.604  0.00  0.00    -0.226 N 
ATOM     27  C   UNL d   1     -52.268  25.816  37.733  0.00  0.00     0.111 C 
ATOM     28  C   UNL d   1     -50.926  25.935  38.194  0.00  0.00     0.111 C 
ENDBRANCH  23  26
ENDBRANCH  20  23
ENDBRANCH   2  17
TORSDOF 6
ENDMDL
