MODEL 1
REMARK VINA RESULT:      34.4      0.000      0.000
REMARK  3 active torsions:
REMARK  status: ('A' for Active; 'I' for Inactive)
REMARK       I    between atoms: C_2  and  N_1 
REMARK    1  A    between atoms: C_4  and  C_2 
REMARK    2  A    between atoms: C_6  and  C_4 
REMARK    3  A    between atoms: C_10  and  C_6 
ROOT
ATOM      1  N   UNL d   1      58.181  49.706  50.499  0.00  0.00    -0.273 N 
ATOM      2  C   UNL d   1      58.963  49.707  50.262  0.00  0.00     0.265 C 
ATOM      3  C   UNL d   1      57.532  49.706  50.004  0.00  0.00     0.067 A 
ATOM      4  C   UNL d   1      57.915  49.706  51.277  0.00  0.00     0.083 A 
ATOM      5  C   UNL d   1      56.853  49.706  50.471  0.00  0.00     0.018 A 
ATOM      6  O   UNL d   1      59.153  49.707  49.461  0.00  0.00    -0.267 OA
ATOM      7  C   UNL d   1      57.085  49.705  51.260  0.00  0.00     0.021 A 
ATOM      8  C   UNL d   1      57.464  49.707  49.178  0.00  0.00     0.018 A 
ATOM      9  C   UNL d   1      56.105  49.706  50.117  0.00  0.00     0.002 A 
ATOM     10  C   UNL d   1      56.718  49.707  48.830  0.00  0.00     0.002 A 
ATOM     11  C   UNL d   1      56.035  49.706  49.296  0.00  0.00     0.000 A 
ENDROOT
BRANCH   2  12
ATOM     12  C   UNL d   1      59.566  49.707  50.824  0.00  0.00     0.061 C 
BRANCH  12  13
ATOM     13  C   UNL d   1      60.332  49.489  50.614  0.00  0.00     0.005 C 
BRANCH  13  14
ATOM     14  C   UNL d   1      60.809  49.105  51.160  0.00  0.00     0.002 A 
ATOM     15  C   UNL d   1      61.061  49.500  51.838  0.00  0.00     0.030 A 
ATOM     16  C   UNL d   1      61.542  49.116  52.392  0.00  0.00     0.140 A 
ATOM     17  F   UNL d   1      61.792  49.512  53.067  0.00  0.00    -0.204 F 
ATOM     18  C   UNL d   1      61.771  48.331  52.263  0.00  0.00     0.030 A 
ATOM     19  C   UNL d   1      61.517  47.936  51.581  0.00  0.00     0.002 A 
ATOM     20  C   UNL d   1      61.038  48.320  51.031  0.00  0.00     0.000 A 
ENDBRANCH  13  14
ENDBRANCH  12  13
ENDBRANCH   2  12
TORSDOF 3
ENDMDL
