MODEL 1
REMARK VINA RESULT:      12.8      0.000      0.000
REMARK  2 active torsions:
REMARK  status: ('A' for Active; 'I' for Inactive)
REMARK    1  A    between atoms: C_5  and  N_1 
REMARK    2  A    between atoms: C_7  and  C_5 
ROOT
ATOM      1  N   UNL d   1      45.482 -13.405  44.427  0.00  0.00    -0.251 N 
ATOM      2  C   UNL d   1      46.229 -13.227  44.718  0.00  0.00     0.378 A 
ATOM      3  O   UNL d   1      46.588 -13.932  44.955  0.00  0.00    -0.258 OA
ATOM      4  C   UNL d   1      45.375 -14.227  44.484  0.00  0.00     0.092 A 
ATOM      5  C   UNL d   1      46.059 -14.550  44.810  0.00  0.00     0.121 A 
ATOM      6  O   UNL d   1      46.568 -12.477  44.767  0.00  0.00    -0.237 OA
ATOM      7  C   UNL d   1      44.740 -14.708  44.278  0.00  0.00     0.020 A 
ATOM      8  C   UNL d   1      46.107 -15.367  44.931  0.00  0.00     0.026 A 
ATOM      9  C   UNL d   1      44.790 -15.523  44.400  0.00  0.00     0.002 A 
ATOM     10  C   UNL d   1      45.471 -15.852  44.725  0.00  0.00     0.002 A 
ENDROOT
BRANCH   1  11
ATOM     11  C   UNL d   1      44.932 -12.866  44.131  0.00  0.00     0.086 C 
BRANCH  11  12
ATOM     12  C   UNL d   1      44.993 -12.605  43.358  0.00  0.00     0.028 A 
ATOM     13  C   UNL d   1      44.319 -12.358  42.947  0.00  0.00     0.059 A 
ATOM     14 CL   UNL d   1      43.594 -12.388  43.353  0.00  0.00    -0.082 Cl
ATOM     15  C   UNL d   1      44.383 -12.098  42.174  0.00  0.00     0.011 A 
ATOM     16  C   UNL d   1      45.124 -12.080  41.797  0.00  0.00     0.001 A 
ATOM     17  C   UNL d   1      45.799 -12.327  42.206  0.00  0.00     0.000 A 
ATOM     18  C   UNL d   1      45.732 -12.588  42.984  0.00  0.00     0.002 A 
ENDBRANCH  11  12
ENDBRANCH   1  11
TORSDOF 2
ENDMDL
