MODEL 1
REMARK VINA RESULT:      22.6      0.000      0.000
REMARK  1 active torsions:
REMARK  status: ('A' for Active; 'I' for Inactive)
REMARK    1  A    between atoms: C_12  and  C_8 
ROOT
ATOM      1  N   UNL d   1      13.839  12.989  -3.210  0.00  0.00    -0.123 N 
ATOM      2  N   UNL d   1      13.301  11.795  -3.763  0.00  0.00    -0.180 NA
ATOM      3  C   UNL d   1      13.653  12.188  -3.145  0.00  0.00     0.217 A 
ATOM      4  N   UNL d   1      13.666  13.397  -3.909  0.00  0.00    -0.141 NA
ATOM      5  N   UNL d   1      14.194  13.397  -2.594  0.00  0.00    -0.146 NA
ATOM      6  C   UNL d   1      13.127  12.188  -4.456  0.00  0.00     0.300 A 
ATOM      7  C   UNL d   1      13.309  12.990  -4.529  0.00  0.00     0.161 A 
ATOM      8  C   UNL d   1      14.369  12.989  -1.888  0.00  0.00     0.110 A 
ATOM      9  S   UNL d   1      13.829  11.794  -2.448  0.00  0.00    -0.045 SA
ATOM     10  C   UNL d   1      14.187  12.187  -1.815  0.00  0.00     0.059 A 
ATOM     11  O   UNL d   1      12.769  11.788  -5.084  0.00  0.00    -0.263 OA
ATOM     12  C   UNL d   1      13.134  13.390  -5.230  0.00  0.00     0.028 C 
ENDROOT
BRANCH   8  13
ATOM     13  C   UNL d   1      14.726  13.388  -1.263  0.00  0.00     0.020 A 
ATOM     14  C   UNL d   1      14.716  14.214  -1.249  0.00  0.00     0.002 A 
ATOM     15  C   UNL d   1      15.074  14.618  -0.622  0.00  0.00     0.000 A 
ATOM     16  C   UNL d   1      15.439  14.195  -0.014  0.00  0.00     0.000 A 
ATOM     17  C   UNL d   1      15.445  13.368  -0.034  0.00  0.00     0.000 A 
ATOM     18  C   UNL d   1      15.088  12.968  -0.659  0.00  0.00     0.002 A 
ENDBRANCH   8  13
TORSDOF 1
ENDMDL
