MODEL 1
REMARK VINA RESULT:      38.9      0.000      0.000
REMARK  7 active torsions:
REMARK  status: ('A' for Active; 'I' for Inactive)
REMARK    1  A    between atoms: N_7  and  C_1 
REMARK    2  A    between atoms: N_8  and  C_4 
REMARK    3  A    between atoms: N_9  and  C_5 
REMARK    4  A    between atoms: C_14  and  N_8 
REMARK    5  A    between atoms: C_13  and  N_9 
REMARK    6  A    between atoms: C_20  and  C_14 
REMARK    7  A    between atoms: O_21  and  C_15 
ROOT
ATOM      1  C   UNL d   1      46.159 -19.259  43.717  0.00  0.00     0.201 A 
ATOM      2  N   UNL d   1      46.595 -17.935  43.716  0.00  0.00    -0.038 NA
ATOM      3  N   UNL d   1      46.112 -18.504  44.949  0.00  0.00    -0.036 NA
ATOM      4  C   UNL d   1      46.470 -18.623  43.294  0.00  0.00     0.206 A 
ATOM      5  C   UNL d   1      46.415 -17.876  44.547  0.00  0.00     0.753 A 
ATOM      6  C   UNL d   1      45.979 -19.200  44.547  0.00  0.00     0.227 A 
ATOM      7  N   UNL d   1      45.670 -19.842  44.955  0.00  0.00    -0.125 N 
ENDROOT
BRANCH   5   8
ATOM      8  N   UNL d   1      46.547 -17.180  44.954  0.00  0.00    -0.059 NA
BRANCH   8   9
ATOM      9  C   UNL d   1      46.059 -16.497  44.809  0.00  0.00     0.100 A 
ATOM     10  C   UNL d   1      46.399 -15.741  44.736  0.00  0.00     0.022 A 
ATOM     11  C   UNL d   1      45.923 -15.064  44.592  0.00  0.00     0.026 A 
ATOM     12  C   UNL d   1      45.099 -15.121  44.518  0.00  0.00     0.094 A 
ATOM     13  C   UNL d   1      44.770 -15.874  44.591  0.00  0.00     0.026 A 
ATOM     14  C   UNL d   1      45.253 -16.561  44.737  0.00  0.00     0.022 A 
BRANCH  12  15
ATOM     15  O   UNL d   1      44.619 -14.439  44.373  0.00  0.00    -0.328 OA
ATOM     16  C   UNL d   1      44.928 -13.683  44.440  0.00  0.00     0.181 C 
ENDBRANCH  12  15
ENDBRANCH   8   9
ENDBRANCH   5   8
BRANCH   4  17
ATOM     17  N   UNL d   1      46.641 -18.685  42.494  0.00  0.00    -0.223 NA
BRANCH  17  18
ATOM     18  C   UNL d   1      46.054 -18.924  41.972  0.00  0.00     0.101 C 
BRANCH  18  19
ATOM     19  C   UNL d   1      45.979 -18.553  41.245  0.00  0.00     0.019 A 
ATOM     20  C   UNL d   1      45.239 -18.482  40.891  0.00  0.00     0.002 A 
ATOM     21  C   UNL d   1      45.165 -18.116  40.173  0.00  0.00     0.000 A 
ATOM     22  C   UNL d   1      45.830 -17.813  39.793  0.00  0.00     0.000 A 
ATOM     23  C   UNL d   1      46.569 -17.878  40.137  0.00  0.00     0.000 A 
ATOM     24  C   UNL d   1      46.645 -18.254  40.874  0.00  0.00     0.002 A 
ENDBRANCH  18  19
ENDBRANCH  17  18
ENDBRANCH   4  17
BRANCH   1  25
ATOM     25  N   UNL d   1      46.024 -19.975  43.295  0.00  0.00    -0.107 N 
ATOM     26  O   UNL d   1      45.276 -20.325  43.380  0.00  0.00    -0.531 OA
ATOM     27  O   UNL d   1      46.636 -20.319  42.803  0.00  0.00    -0.531 OA
ENDBRANCH   1  25
TORSDOF 7
ENDMDL
