MODEL 1
REMARK VINA RESULT:      33.2      0.000      0.000
REMARK  4 active torsions:
REMARK  status: ('A' for Active; 'I' for Inactive)
REMARK    1  A    between atoms: N_2  and  S_1 
REMARK    2  A    between atoms: C_5  and  S_1 
REMARK    3  A    between atoms: O_16  and  C_11 
REMARK    4  A    between atoms: C_19  and  O_16 
ROOT
ATOM      1  C   UNL d   1      15.065  14.956  -0.822  0.00  0.00     0.107 A 
ATOM      2  C   UNL d   1      14.945  15.303  -1.560  0.00  0.00     0.040 A 
ATOM      3  C   UNL d   1      15.153  16.092  -1.686  0.00  0.00     0.128 A 
ATOM      4  C   UNL d   1      15.481  16.535  -1.073  0.00  0.00     0.163 A 
ATOM      5  C   UNL d   1      15.394  15.399  -0.209  0.00  0.00     0.015 A 
ATOM      6  C   UNL d   1      15.602  16.189  -0.335  0.00  0.00     0.032 A 
ATOM      7  F   UNL d   1      15.689  17.325  -1.199  0.00  0.00    -0.202 F 
ENDROOT
BRANCH   1   8
ATOM      8  S   UNL d   1      14.857  14.167  -0.697  0.00  0.00     0.286 S 
ATOM      9  O   UNL d   1      14.392  14.181  -1.379  0.00  0.00    -0.198 OA
ATOM     10  O   UNL d   1      15.323  14.153  -0.015  0.00  0.00    -0.198 OA
BRANCH   8  11
ATOM     11  N   UNL d   1      14.649  13.377  -0.571  0.00  0.00    -0.152 N 
ATOM     12  N   UNL d   1      13.921  13.101  -0.305  0.00  0.00    -0.155 NA
ATOM     13  C   UNL d   1      13.953  12.283  -0.259  0.00  0.00     0.104 A 
ATOM     14  C   UNL d   1      13.338  11.781  -0.016  0.00  0.00     0.022 C 
ATOM     15  C   UNL d   1      14.707  12.046  -0.498  0.00  0.00     0.041 A 
ATOM     16  C   UNL d   1      15.137  12.719  -0.690  0.00  0.00     0.096 A 
ATOM     17  C   UNL d   1      15.918  12.741  -0.957  0.00  0.00     0.022 C 
ENDBRANCH   8  11
ENDBRANCH   1   8
BRANCH   3  18
ATOM     18  O   UNL d   1      15.033  16.439  -2.424  0.00  0.00    -0.303 OA
BRANCH  18  19
ATOM     19  C   UNL d   1      14.587  16.042  -3.003  0.00  0.00     0.123 C 
ATOM     20  C   UNL d   1      14.639  16.271  -3.793  0.00  0.00     0.029 C 
ENDBRANCH  18  19
ENDBRANCH   3  18
TORSDOF 4
ENDMDL
MODEL 2
REMARK VINA RESULT:      33.8      2.897      3.581
REMARK  4 active torsions:
REMARK  status: ('A' for Active; 'I' for Inactive)
REMARK    1  A    between atoms: N_2  and  S_1 
REMARK    2  A    between atoms: C_5  and  S_1 
REMARK    3  A    between atoms: O_16  and  C_11 
REMARK    4  A    between atoms: C_19  and  O_16 
ROOT
ATOM      1  C   UNL d   1      13.594  12.402  -3.062  0.00  0.00     0.107 A 
ATOM      2  C   UNL d   1      13.440  13.177  -3.296  0.00  0.00     0.040 A 
ATOM      3  C   UNL d   1      13.164  13.332  -4.059  0.00  0.00     0.128 A 
ATOM      4  C   UNL d   1      13.044  12.712  -4.588  0.00  0.00     0.163 A 
ATOM      5  C   UNL d   1      13.474  11.781  -3.592  0.00  0.00     0.015 A 
ATOM      6  C   UNL d   1      13.199  11.936  -4.355  0.00  0.00     0.032 A 
ATOM      7  F   UNL d   1      12.769  12.867  -5.352  0.00  0.00    -0.202 F 
ENDROOT
BRANCH   1   8
ATOM      8  S   UNL d   1      13.869  12.247  -2.299  0.00  0.00     0.286 S 
ATOM      9  O   UNL d   1      13.204  11.779  -2.154  0.00  0.00    -0.198 OA
ATOM     10  O   UNL d   1      14.535  12.714  -2.443  0.00  0.00    -0.198 OA
BRANCH   8  11
ATOM     11  N   UNL d   1      14.145  12.091  -1.535  0.00  0.00    -0.152 N 
ATOM     12  N   UNL d   1      14.928  12.119  -1.284  0.00  0.00    -0.155 NA
ATOM     13  C   UNL d   1      14.954  11.927  -0.487  0.00  0.00     0.104 A 
ATOM     14  C   UNL d   1      15.635  11.888  -0.014  0.00  0.00     0.022 C 
ATOM     15  C   UNL d   1      14.180  11.779  -0.239  0.00  0.00     0.041 A 
ATOM     16  C   UNL d   1      13.681  11.880  -0.883  0.00  0.00     0.096 A 
ATOM     17  C   UNL d   1      12.861  11.788  -0.886  0.00  0.00     0.022 C 
ENDBRANCH   8  11
ENDBRANCH   1   8
BRANCH   3  18
ATOM     18  O   UNL d   1      13.010  14.107  -4.292  0.00  0.00    -0.303 OA
BRANCH  18  19
ATOM     19  C   UNL d   1      13.539  14.717  -4.094  0.00  0.00     0.123 C 
ATOM     20  C   UNL d   1      13.585  15.394  -4.561  0.00  0.00     0.029 C 
ENDBRANCH  18  19
ENDBRANCH   3  18
TORSDOF 4
ENDMDL
MODEL 3
REMARK VINA RESULT:      34.4      1.961      3.723
REMARK  4 active torsions:
REMARK  status: ('A' for Active; 'I' for Inactive)
REMARK    1  A    between atoms: N_2  and  S_1 
REMARK    2  A    between atoms: C_5  and  S_1 
REMARK    3  A    between atoms: O_16  and  C_11 
REMARK    4  A    between atoms: C_19  and  O_16 
ROOT
ATOM      1  C   UNL d   1      14.851  14.194  -0.947  0.00  0.00     0.107 A 
ATOM      2  C   UNL d   1      14.714  13.667  -1.565  0.00  0.00     0.040 A 
ATOM      3  C   UNL d   1      14.615  12.862  -1.408  0.00  0.00     0.128 A 
ATOM      4  C   UNL d   1      14.654  12.584  -0.633  0.00  0.00     0.163 A 
ATOM      5  C   UNL d   1      14.889  13.917  -0.171  0.00  0.00     0.015 A 
ATOM      6  C   UNL d   1      14.791  13.112  -0.014  0.00  0.00     0.032 A 
ATOM      7  F   UNL d   1      14.555  11.779  -0.476  0.00  0.00    -0.202 F 
ENDROOT
BRANCH   1   8
ATOM      8  S   UNL d   1      14.949  14.999  -1.104  0.00  0.00     0.286 S 
ATOM      9  O   UNL d   1      15.338  15.092  -0.381  0.00  0.00    -0.198 OA
ATOM     10  O   UNL d   1      14.560  14.906  -1.826  0.00  0.00    -0.198 OA
BRANCH   8  11
ATOM     11  N   UNL d   1      15.048  15.804  -1.261  0.00  0.00    -0.152 N 
ATOM     12  N   UNL d   1      15.279  16.382  -0.721  0.00  0.00    -0.155 NA
ATOM     13  C   UNL d   1      15.307  17.104  -1.108  0.00  0.00     0.104 A 
ATOM     14  C   UNL d   1      15.515  17.833  -0.770  0.00  0.00     0.022 C 
ATOM     15  C   UNL d   1      15.091  16.977  -1.895  0.00  0.00     0.041 A 
ATOM     16  C   UNL d   1      14.931  16.177  -1.990  0.00  0.00     0.096 A 
ATOM     17  C   UNL d   1      14.695  15.805  -2.688  0.00  0.00     0.022 C 
ENDBRANCH   8  11
ENDBRANCH   1   8
BRANCH   3  18
ATOM     18  O   UNL d   1      14.478  12.334  -2.026  0.00  0.00    -0.303 OA
BRANCH  18  19
ATOM     19  C   UNL d   1      13.849  12.464  -2.554  0.00  0.00     0.123 C 
ATOM     20  C   UNL d   1      13.564  11.846  -3.018  0.00  0.00     0.029 C 
ENDBRANCH  18  19
ENDBRANCH   3  18
TORSDOF 4
ENDMDL
MODEL 4
REMARK VINA RESULT:      34.8      2.004      2.331
REMARK  4 active torsions:
REMARK  status: ('A' for Active; 'I' for Inactive)
REMARK    1  A    between atoms: N_2  and  S_1 
REMARK    2  A    between atoms: C_5  and  S_1 
REMARK    3  A    between atoms: O_16  and  C_11 
REMARK    4  A    between atoms: C_19  and  O_16 
ROOT
ATOM      1  C   UNL d   1      14.628  13.866  -1.569  0.00  0.00     0.107 A 
ATOM      2  C   UNL d   1      14.554  14.681  -1.669  0.00  0.00     0.040 A 
ATOM      3  C   UNL d   1      14.942  15.198  -1.155  0.00  0.00     0.128 A 
ATOM      4  C   UNL d   1      15.403  14.901  -0.541  0.00  0.00     0.163 A 
ATOM      5  C   UNL d   1      15.090  13.568  -0.954  0.00  0.00     0.015 A 
ATOM      6  C   UNL d   1      15.478  14.085  -0.440  0.00  0.00     0.032 A 
ATOM      7  F   UNL d   1      15.791  15.418  -0.026  0.00  0.00    -0.202 F 
ENDROOT
BRANCH   1   8
ATOM      8  S   UNL d   1      14.240  13.349  -2.083  0.00  0.00     0.286 S 
ATOM      9  O   UNL d   1      14.960  13.172  -2.448  0.00  0.00    -0.198 OA
ATOM     10  O   UNL d   1      13.520  13.526  -1.719  0.00  0.00    -0.198 OA
BRANCH   8  11
ATOM     11  N   UNL d   1      13.852  12.832  -2.598  0.00  0.00    -0.152 N 
ATOM     12  N   UNL d   1      13.739  12.941  -3.406  0.00  0.00    -0.155 NA
ATOM     13  C   UNL d   1      13.329  12.296  -3.702  0.00  0.00     0.104 A 
ATOM     14  C   UNL d   1      13.099  12.181  -4.491  0.00  0.00     0.022 C 
ATOM     15  C   UNL d   1      13.184  11.779  -3.074  0.00  0.00     0.041 A 
ATOM     16  C   UNL d   1      13.507  12.109  -2.393  0.00  0.00     0.096 A 
ATOM     17  C   UNL d   1      13.491  11.780  -1.637  0.00  0.00     0.022 C 
ENDBRANCH   8  11
ENDBRANCH   1   8
BRANCH   3  18
ATOM     18  O   UNL d   1      14.868  16.013  -1.255  0.00  0.00    -0.303 OA
BRANCH  18  19
ATOM     19  C   UNL d   1      15.178  16.380  -1.933  0.00  0.00     0.123 C 
ATOM     20  C   UNL d   1      15.061  17.186  -2.057  0.00  0.00     0.029 C 
ENDBRANCH  18  19
ENDBRANCH   3  18
TORSDOF 4
ENDMDL
