MODEL 1
REMARK VINA RESULT:      50.9      0.000      0.000
REMARK  5 active torsions:
REMARK  status: ('A' for Active; 'I' for Inactive)
REMARK    1  A    between atoms: C_3  and  C_1 
REMARK    2  A    between atoms: C_7  and  C_2 
REMARK       I    between atoms: N_5  and  C_3 
REMARK    3  A    between atoms: C_6  and  N_5 
REMARK    4  A    between atoms: N_10  and  C_6 
REMARK    5  A    between atoms: C_14  and  N_10 
ROOT
ATOM      1  C   UNL d   1      13.300  13.058  -4.321  0.00  0.00     0.103 A 
ATOM      2  C   UNL d   1      13.505  13.805  -4.617  0.00  0.00     0.116 A 
ATOM      3  N   UNL d   1      13.480  13.763  -5.441  0.00  0.00    -0.126 NA
ATOM      4  O   UNL d   1      13.260  12.995  -5.655  0.00  0.00    -0.211 OA
ATOM      5  C   UNL d   1      13.152  12.573  -4.966  0.00  0.00     0.131 A 
ATOM      6  C   UNL d   1      12.931  11.783  -4.922  0.00  0.00     0.029 C 
ENDROOT
BRANCH   1   7
ATOM      7  C   UNL d   1      13.258  12.864  -3.527  0.00  0.00     0.285 C 
ATOM      8  N   UNL d   1      13.687  12.242  -3.211  0.00  0.00    -0.179 NA
ATOM      9  O   UNL d   1      12.769  13.310  -3.028  0.00  0.00    -0.265 OA
BRANCH   8  10
ATOM     10  C   UNL d   1      13.646  12.047  -2.415  0.00  0.00     0.223 C 
ATOM     11  S   UNL d   1      12.920  12.116  -2.021  0.00  0.00    -0.037 SA
BRANCH  10  12
ATOM     12  N   UNL d   1      14.309  11.785  -2.003  0.00  0.00    -0.217 NA
BRANCH  12  13
ATOM     13  C   UNL d   1      14.709  12.301  -1.513  0.00  0.00     0.084 A 
ATOM     14  C   UNL d   1      14.349  12.556  -0.809  0.00  0.00     0.019 A 
ATOM     15  C   UNL d   1      14.753  13.076  -0.314  0.00  0.00     0.002 A 
ATOM     16  C   UNL d   1      15.511  13.343  -0.517  0.00  0.00     0.000 A 
ATOM     17  C   UNL d   1      15.869  13.084  -1.226  0.00  0.00     0.002 A 
ATOM     18  C   UNL d   1      15.918  13.868  -0.019  0.00  0.00     0.000 C 
ATOM     19  C   UNL d   1      15.462  12.560  -1.724  0.00  0.00     0.019 A 
ENDBRANCH  12  13
ENDBRANCH  10  12
ENDBRANCH   8  10
ENDBRANCH   1   7
BRANCH   2  20
ATOM     20  C   UNL d   1      13.700  14.471  -4.170  0.00  0.00     0.031 A 
ATOM     21  C   UNL d   1      14.327  14.951  -4.399  0.00  0.00     0.059 A 
ATOM     22 CL   UNL d   1      14.758  14.767  -5.074  0.00  0.00    -0.082 Cl
ATOM     23  C   UNL d   1      14.516  15.610  -3.951  0.00  0.00     0.011 A 
ATOM     24  C   UNL d   1      14.081  15.798  -3.268  0.00  0.00     0.001 A 
ATOM     25  C   UNL d   1      13.454  15.310  -3.047  0.00  0.00     0.000 A 
ATOM     26  C   UNL d   1      13.254  14.640  -3.492  0.00  0.00     0.002 A 
ENDBRANCH   2  20
TORSDOF 5
ENDMDL
