MODEL 1
REMARK VINA RESULT:      55.6      0.000      0.000
REMARK  5 active torsions:
REMARK  status: ('A' for Active; 'I' for Inactive)
REMARK    1  A    between atoms: O_5  and  C_1 
REMARK    2  A    between atoms: C_10  and  C_2 
REMARK    3  A    between atoms: C_3  and  O_5 
REMARK    4  A    between atoms: C_6  and  C_3 
REMARK    5  A    between atoms: N_11  and  C_10 
ROOT
ATOM      1  C   UNL d   1      13.812  14.169  -2.826  0.00  0.00     0.122 A 
ATOM      2  C   UNL d   1      13.951  13.625  -2.221  0.00  0.00     0.043 A 
ATOM      3  C   UNL d   1      13.496  13.914  -3.544  0.00  0.00     0.105 A 
ATOM      4  C   UNL d   1      13.319  13.117  -3.657  0.00  0.00     0.030 A 
ATOM      5  C   UNL d   1      13.460  12.583  -3.051  0.00  0.00     0.059 A 
ATOM      6  C   UNL d   1      13.773  12.828  -2.335  0.00  0.00     0.015 A 
ATOM      7  N   UNL d   1      13.361  14.456  -4.141  0.00  0.00    -0.242 NA
ATOM      8 CL   UNL d   1      13.272  11.781  -3.189  0.00  0.00    -0.082 Cl
ATOM      9  C   UNL d   1      13.008  12.871  -4.367  0.00  0.00     0.004 A 
ATOM     10  C   UNL d   1      13.045  14.202  -4.859  0.00  0.00     0.099 A 
ATOM     11  C   UNL d   1      12.868  13.405  -4.973  0.00  0.00     0.021 A 
ENDROOT
BRANCH   1  12
ATOM     12  O   UNL d   1      13.970  14.893  -2.733  0.00  0.00    -0.271 OA
BRANCH  12  13
ATOM     13  C   UNL d   1      14.652  15.543  -2.938  0.00  0.00     0.301 C 
ATOM     14  O   UNL d   1      15.052  15.443  -3.853  0.00  0.00    -0.259 OA
BRANCH  13  15
ATOM     15  C   UNL d   1      14.871  16.120  -2.392  0.00  0.00     0.074 A 
ATOM     16  C   UNL d   1      15.083  16.880  -2.656  0.00  0.00     0.063 A 
ATOM     17 CL   UNL d   1      15.091  17.124  -3.497  0.00  0.00    -0.082 Cl
ATOM     18  C   UNL d   1      15.304  17.462  -2.102  0.00  0.00     0.012 A 
ATOM     19  C   UNL d   1      15.315  17.286  -1.285  0.00  0.00     0.001 A 
ATOM     20  C   UNL d   1      15.103  16.527  -1.026  0.00  0.00     0.000 A 
ATOM     21  C   UNL d   1      14.882  15.946  -1.581  0.00  0.00     0.006 A 
ENDBRANCH  13  15
ENDBRANCH  12  13
ENDBRANCH   1  12
BRANCH   2  22
ATOM     22  C   UNL d   1      14.285  13.714  -1.380  0.00  0.00     0.082 C 
BRANCH  22  23
ATOM     23  N   UNL d   1      14.647  13.071  -1.019  0.00  0.00    -0.299 N 
ATOM     24  C   UNL d   1      14.280  12.701  -0.390  0.00  0.00     0.107 A 
ATOM     25  C   UNL d   1      14.633  12.052  -0.017  0.00  0.00     0.142 A 
ATOM     26  O   UNL d   1      15.355  11.786  -0.286  0.00  0.00    -0.300 OA
ATOM     27  C   UNL d   1      15.730  12.160  -0.925  0.00  0.00     0.142 A 
ATOM     28  C   UNL d   1      15.367  12.801  -1.283  0.00  0.00     0.107 A 
ENDBRANCH  22  23
ENDBRANCH   2  22
TORSDOF 5
ENDMDL
MODEL 2
REMARK VINA RESULT:      55.7      1.343      3.114
REMARK  5 active torsions:
REMARK  status: ('A' for Active; 'I' for Inactive)
REMARK    1  A    between atoms: O_5  and  C_1 
REMARK    2  A    between atoms: C_10  and  C_2 
REMARK    3  A    between atoms: C_3  and  O_5 
REMARK    4  A    between atoms: C_6  and  C_3 
REMARK    5  A    between atoms: N_11  and  C_10 
ROOT
ATOM      1  C   UNL d   1      14.257  13.736  -2.023  0.00  0.00     0.122 A 
ATOM      2  C   UNL d   1      13.614  13.261  -2.227  0.00  0.00     0.043 A 
ATOM      3  C   UNL d   1      14.703  13.558  -1.352  0.00  0.00     0.105 A 
ATOM      4  C   UNL d   1      14.506  12.907  -0.886  0.00  0.00     0.030 A 
ATOM      5  C   UNL d   1      13.865  12.441  -1.096  0.00  0.00     0.059 A 
ATOM      6  C   UNL d   1      13.417  12.611  -1.761  0.00  0.00     0.015 A 
ATOM      7  N   UNL d   1      15.340  14.031  -1.153  0.00  0.00    -0.242 NA
ATOM      8 CL   UNL d   1      13.685  11.787  -0.608  0.00  0.00    -0.082 Cl
ATOM      9  C   UNL d   1      14.948  12.736  -0.226  0.00  0.00     0.004 A 
ATOM     10  C   UNL d   1      15.786  13.853  -0.483  0.00  0.00     0.099 A 
ATOM     11  C   UNL d   1      15.589  13.202  -0.017  0.00  0.00     0.021 A 
ENDROOT
BRANCH   1  12
ATOM     12  O   UNL d   1      14.444  14.328  -2.438  0.00  0.00    -0.271 OA
BRANCH  12  13
ATOM     13  C   UNL d   1      14.420  15.291  -2.421  0.00  0.00     0.301 C 
ATOM     14  O   UNL d   1      14.251  15.681  -1.512  0.00  0.00    -0.259 OA
BRANCH  13  15
ATOM     15  C   UNL d   1      14.531  15.735  -3.106  0.00  0.00     0.074 A 
ATOM     16  C   UNL d   1      14.794  16.522  -3.052  0.00  0.00     0.063 A 
ATOM     17 CL   UNL d   1      14.968  16.932  -2.298  0.00  0.00    -0.082 Cl
ATOM     18  C   UNL d   1      14.905  16.968  -3.747  0.00  0.00     0.012 A 
ATOM     19  C   UNL d   1      14.754  16.630  -4.497  0.00  0.00     0.001 A 
ATOM     20  C   UNL d   1      14.491  15.845  -4.546  0.00  0.00     0.000 A 
ATOM     21  C   UNL d   1      14.381  15.399  -3.851  0.00  0.00     0.006 A 
ENDBRANCH  13  15
ENDBRANCH  12  13
ENDBRANCH   1  12
BRANCH   2  22
ATOM     22  C   UNL d   1      13.017  13.297  -2.913  0.00  0.00     0.082 C 
BRANCH  22  23
ATOM     23  N   UNL d   1      13.159  12.862  -3.594  0.00  0.00    -0.299 N 
ATOM     24  C   UNL d   1      12.802  13.080  -4.296  0.00  0.00     0.107 A 
ATOM     25  C   UNL d   1      12.935  12.651  -4.990  0.00  0.00     0.142 A 
ATOM     26  O   UNL d   1      13.431  12.003  -4.965  0.00  0.00    -0.300 OA
ATOM     27  C   UNL d   1      13.795  11.779  -4.255  0.00  0.00     0.142 A 
ATOM     28  C   UNL d   1      13.652  12.215  -3.576  0.00  0.00     0.107 A 
ENDBRANCH  22  23
ENDBRANCH   2  22
TORSDOF 5
ENDMDL
MODEL 3
REMARK VINA RESULT:      56.5      1.008      3.534
REMARK  5 active torsions:
REMARK  status: ('A' for Active; 'I' for Inactive)
REMARK    1  A    between atoms: O_5  and  C_1 
REMARK    2  A    between atoms: C_10  and  C_2 
REMARK    3  A    between atoms: C_3  and  O_5 
REMARK    4  A    between atoms: C_6  and  C_3 
REMARK    5  A    between atoms: N_11  and  C_10 
ROOT
ATOM      1  C   UNL d   1      14.343  14.654  -2.567  0.00  0.00     0.122 A 
ATOM      2  C   UNL d   1      14.317  14.554  -1.748  0.00  0.00     0.043 A 
ATOM      3  C   UNL d   1      14.633  15.357  -2.886  0.00  0.00     0.105 A 
ATOM      4  C   UNL d   1      14.897  15.958  -2.389  0.00  0.00     0.030 A 
ATOM      5  C   UNL d   1      14.868  15.851  -1.576  0.00  0.00     0.059 A 
ATOM      6  C   UNL d   1      14.581  15.155  -1.251  0.00  0.00     0.015 A 
ATOM      7  N   UNL d   1      14.657  15.452  -3.698  0.00  0.00    -0.242 NA
ATOM      8 CL   UNL d   1      15.141  16.474  -1.092  0.00  0.00    -0.082 Cl
ATOM      9  C   UNL d   1      15.182  16.649  -2.708  0.00  0.00     0.004 A 
ATOM     10  C   UNL d   1      14.947  16.155  -4.018  0.00  0.00     0.099 A 
ATOM     11  C   UNL d   1      15.211  16.756  -3.520  0.00  0.00     0.021 A 
ENDROOT
BRANCH   1  12
ATOM     12  O   UNL d   1      14.106  14.115  -3.026  0.00  0.00    -0.271 OA
BRANCH  12  13
ATOM     13  C   UNL d   1      13.422  13.938  -3.682  0.00  0.00     0.301 C 
ATOM     14  O   UNL d   1      12.769  14.691  -3.807  0.00  0.00    -0.259 OA
BRANCH  13  15
ATOM     15  C   UNL d   1      13.395  13.225  -4.093  0.00  0.00     0.074 A 
ATOM     16  C   UNL d   1      13.175  12.528  -3.696  0.00  0.00     0.063 A 
ATOM     17 CL   UNL d   1      12.960  12.490  -2.849  0.00  0.00    -0.082 Cl
ATOM     18  C   UNL d   1      13.149  11.807  -4.115  0.00  0.00     0.012 A 
ATOM     19  C   UNL d   1      13.343  11.781  -4.927  0.00  0.00     0.001 A 
ATOM     20  C   UNL d   1      13.563  12.478  -5.318  0.00  0.00     0.000 A 
ATOM     21  C   UNL d   1      13.588  13.199  -4.899  0.00  0.00     0.006 A 
ENDBRANCH  13  15
ENDBRANCH  12  13
ENDBRANCH   1  12
BRANCH   2  22
ATOM     22  C   UNL d   1      14.037  13.866  -1.222  0.00  0.00     0.082 C 
BRANCH  22  23
ATOM     23  N   UNL d   1      14.592  13.409  -0.826  0.00  0.00    -0.299 N 
ATOM     24  C   UNL d   1      15.255  13.764  -0.506  0.00  0.00     0.107 A 
ATOM     25  C   UNL d   1      15.823  13.316  -0.105  0.00  0.00     0.142 A 
ATOM     26  O   UNL d   1      15.712  12.511  -0.031  0.00  0.00    -0.300 OA
ATOM     27  C   UNL d   1      15.040  12.148  -0.354  0.00  0.00     0.142 A 
ATOM     28  C   UNL d   1      14.488  12.606  -0.749  0.00  0.00     0.107 A 
ENDBRANCH  22  23
ENDBRANCH   2  22
TORSDOF 5
ENDMDL
MODEL 4
REMARK VINA RESULT:      58.2      1.189      1.572
REMARK  5 active torsions:
REMARK  status: ('A' for Active; 'I' for Inactive)
REMARK    1  A    between atoms: O_5  and  C_1 
REMARK    2  A    between atoms: C_10  and  C_2 
REMARK    3  A    between atoms: C_3  and  O_5 
REMARK    4  A    between atoms: C_6  and  C_3 
REMARK    5  A    between atoms: N_11  and  C_10 
ROOT
ATOM      1  C   UNL d   1      13.951  13.843  -3.399  0.00  0.00     0.122 A 
ATOM      2  C   UNL d   1      14.003  13.679  -2.593  0.00  0.00     0.043 A 
ATOM      3  C   UNL d   1      13.556  13.320  -3.900  0.00  0.00     0.105 A 
ATOM      4  C   UNL d   1      13.214  12.635  -3.595  0.00  0.00     0.030 A 
ATOM      5  C   UNL d   1      13.270  12.480  -2.792  0.00  0.00     0.059 A 
ATOM      6  C   UNL d   1      13.661  12.994  -2.288  0.00  0.00     0.015 A 
ATOM      7  N   UNL d   1      13.506  13.486  -4.700  0.00  0.00    -0.242 NA
ATOM      8 CL   UNL d   1      12.915  11.780  -2.506  0.00  0.00    -0.082 Cl
ATOM      9  C   UNL d   1      12.825  12.123  -4.093  0.00  0.00     0.004 A 
ATOM     10  C   UNL d   1      13.111  12.963  -5.201  0.00  0.00     0.099 A 
ATOM     11  C   UNL d   1      12.769  12.278  -4.896  0.00  0.00     0.021 A 
ENDROOT
BRANCH   1  12
ATOM     12  O   UNL d   1      14.258  14.461  -3.686  0.00  0.00    -0.271 OA
BRANCH  12  13
ATOM     13  C   UNL d   1      14.041  15.378  -3.890  0.00  0.00     0.301 C 
ATOM     14  O   UNL d   1      13.075  15.612  -3.750  0.00  0.00    -0.259 OA
BRANCH  13  15
ATOM     15  C   UNL d   1      14.616  15.905  -4.154  0.00  0.00     0.074 A 
ATOM     16  C   UNL d   1      14.913  16.486  -3.639  0.00  0.00     0.063 A 
ATOM     17 CL   UNL d   1      14.655  16.586  -2.809  0.00  0.00    -0.082 Cl
ATOM     18  C   UNL d   1      15.495  17.018  -3.910  0.00  0.00     0.012 A 
ATOM     19  C   UNL d   1      15.781  16.971  -4.694  0.00  0.00     0.001 A 
ATOM     20  C   UNL d   1      15.482  16.390  -5.204  0.00  0.00     0.000 A 
ATOM     21  C   UNL d   1      14.900  15.858  -4.933  0.00  0.00     0.006 A 
ENDBRANCH  13  15
ENDBRANCH  12  13
ENDBRANCH   1  12
BRANCH   2  22
ATOM     22  C   UNL d   1      14.389  14.125  -1.899  0.00  0.00     0.082 C 
BRANCH  22  23
ATOM     23  N   UNL d   1      14.712  13.700  -1.276  0.00  0.00    -0.299 N 
ATOM     24  C   UNL d   1      14.282  13.099  -0.929  0.00  0.00     0.107 A 
ATOM     25  C   UNL d   1      14.595  12.662  -0.300  0.00  0.00     0.142 A 
ATOM     26  O   UNL d   1      15.344  12.840  -0.030  0.00  0.00    -0.300 OA
ATOM     27  C   UNL d   1      15.784  13.449  -0.380  0.00  0.00     0.142 A 
ATOM     28  C   UNL d   1      15.458  13.872  -1.002  0.00  0.00     0.107 A 
ENDBRANCH  22  23
ENDBRANCH   2  22
TORSDOF 5
ENDMDL
