MODEL 1
REMARK VINA RESULT:      -2.6      0.000      0.000
REMARK  5 active torsions:
REMARK  status: ('A' for Active; 'I' for Inactive)
REMARK    1  A    between atoms: N_2  and  S_1 
REMARK    2  A    between atoms: C_3  and  S_1 
REMARK    3  A    between atoms: C_10  and  C_3 
REMARK    4  A    between atoms: C_9  and  N_4 
REMARK    5  A    between atoms: C_16  and  C_10 
ROOT
ATOM      1  N   UNL d   1      33.002  19.791 -22.459  0.00  0.00    -0.226 N 
ATOM      2  N   UNL d   1      32.775  18.362 -23.219  0.00  0.00    -0.301 N 
ATOM      3  C   UNL d   1      33.241  19.100 -22.094  0.00  0.00     0.111 A 
ATOM      4  C   UNL d   1      32.649  19.780 -23.206  0.00  0.00     0.111 A 
ATOM      5  C   UNL d   1      33.129  18.376 -22.472  0.00  0.00     0.100 A 
ATOM      6  C   UNL d   1      32.532  19.061 -23.592  0.00  0.00     0.100 A 
ENDROOT
BRANCH   1   7
ATOM      7  S   UNL d   1      33.121  20.526 -22.065  0.00  0.00     0.272 S 
ATOM      8  O   UNL d   1      33.204  20.902 -22.798  0.00  0.00    -0.200 OA
ATOM      9  O   UNL d   1      33.035  20.139 -21.326  0.00  0.00    -0.200 OA
BRANCH   7  10
ATOM     10  C   UNL d   1      33.238  21.250 -21.664  0.00  0.00     0.116 C 
BRANCH  10  11
ATOM     11  C   UNL d   1      32.717  21.462 -21.058  0.00  0.00     0.014 C 
BRANCH  11  12
ATOM     12  C   UNL d   1      32.823  22.183 -20.673  0.00  0.00     0.001 A 
ATOM     13  C   UNL d   1      32.967  22.893 -21.116  0.00  0.00     0.000 A 
ATOM     14  C   UNL d   1      33.072  23.613 -20.720  0.00  0.00     0.000 A 
ATOM     15  C   UNL d   1      33.034  23.629 -19.877  0.00  0.00     0.000 A 
ATOM     16  C   UNL d   1      32.896  22.946 -19.452  0.00  0.00     0.000 A 
ATOM     17  C   UNL d   1      32.791  22.223 -19.859  0.00  0.00     0.000 A 
ENDBRANCH  11  12
ENDBRANCH  10  11
ENDBRANCH   7  10
ENDBRANCH   1   7
BRANCH   2  18
ATOM     18  C   UNL d   1      32.662  17.629 -23.601  0.00  0.00     0.064 A 
ATOM     19  C   UNL d   1      32.973  16.941 -23.273  0.00  0.00     0.020 A 
ATOM     20  C   UNL d   1      32.857  16.221 -23.656  0.00  0.00     0.031 A 
ATOM     21  C   UNL d   1      32.434  16.194 -24.359  0.00  0.00     0.140 A 
ATOM     22  C   UNL d   1      32.118  16.886 -24.696  0.00  0.00     0.031 A 
ATOM     23  F   UNL d   1      32.314  15.453 -24.756  0.00  0.00    -0.204 F 
ATOM     24  C   UNL d   1      32.235  17.606 -24.310  0.00  0.00     0.020 A 
ENDBRANCH   2  18
TORSDOF 5
ENDMDL
MODEL 2
REMARK VINA RESULT:      -0.7      1.568      2.410
REMARK  5 active torsions:
REMARK  status: ('A' for Active; 'I' for Inactive)
REMARK    1  A    between atoms: N_2  and  S_1 
REMARK    2  A    between atoms: C_3  and  S_1 
REMARK    3  A    between atoms: C_10  and  C_3 
REMARK    4  A    between atoms: C_9  and  N_4 
REMARK    5  A    between atoms: C_16  and  C_10 
ROOT
ATOM      1  N   UNL d   1      32.564  21.285 -20.963  0.00  0.00    -0.226 N 
ATOM      2  N   UNL d   1      32.596  20.204 -22.188  0.00  0.00    -0.301 N 
ATOM      3  C   UNL d   1      33.218  20.805 -21.057  0.00  0.00     0.111 A 
ATOM      4  C   UNL d   1      31.918  21.234 -21.477  0.00  0.00     0.111 A 
ATOM      5  C   UNL d   1      33.241  20.258 -21.673  0.00  0.00     0.100 A 
ATOM      6  C   UNL d   1      31.932  20.690 -22.096  0.00  0.00     0.100 A 
ENDROOT
BRANCH   1   7
ATOM      7  S   UNL d   1      32.550  21.841 -20.331  0.00  0.00     0.272 S 
ATOM      8  O   UNL d   1      33.193  22.238 -20.670  0.00  0.00    -0.200 OA
ATOM      9  O   UNL d   1      31.899  21.435 -19.992  0.00  0.00    -0.200 OA
BRANCH   7  10
ATOM     10  C   UNL d   1      32.528  22.388 -19.699  0.00  0.00     0.116 C 
BRANCH  10  11
ATOM     11  C   UNL d   1      33.031  22.276 -19.053  0.00  0.00     0.014 C 
BRANCH  11  12
ATOM     12  C   UNL d   1      32.867  22.664 -18.344  0.00  0.00     0.001 A 
ATOM     13  C   UNL d   1      32.326  23.318 -18.325  0.00  0.00     0.000 A 
ATOM     14  C   UNL d   1      32.167  23.701 -17.608  0.00  0.00     0.000 A 
ATOM     15  C   UNL d   1      32.548  23.434 -16.904  0.00  0.00     0.000 A 
ATOM     16  C   UNL d   1      33.068  22.805 -16.924  0.00  0.00     0.000 A 
ATOM     17  C   UNL d   1      33.223  22.423 -17.652  0.00  0.00     0.000 A 
ENDBRANCH  11  12
ENDBRANCH  10  11
ENDBRANCH   7  10
ENDBRANCH   1   7
BRANCH   2  18
ATOM     18  C   UNL d   1      32.620  19.650 -22.812  0.00  0.00     0.064 A 
ATOM     19  C   UNL d   1      32.431  18.861 -22.669  0.00  0.00     0.020 A 
ATOM     20  C   UNL d   1      32.457  18.320 -23.290  0.00  0.00     0.031 A 
ATOM     21  C   UNL d   1      32.669  18.569 -24.042  0.00  0.00     0.140 A 
ATOM     22  C   UNL d   1      32.861  19.365 -24.193  0.00  0.00     0.031 A 
ATOM     23  F   UNL d   1      32.696  18.013 -24.684  0.00  0.00    -0.204 F 
ATOM     24  C   UNL d   1      32.834  19.905 -23.570  0.00  0.00     0.020 A 
ENDBRANCH   2  18
TORSDOF 5
ENDMDL
