MODEL 1
REMARK VINA RESULT:      53.0      0.000      0.000
REMARK  6 active torsions:
REMARK  status: ('A' for Active; 'I' for Inactive)
REMARK    1  A    between atoms: C_4  and  S_1 
REMARK    2  A    between atoms: C_5  and  S_1 
REMARK    3  A    between atoms: C_2  and  N_7 
REMARK    4  A    between atoms: N_3  and  C_2 
REMARK    5  A    between atoms: C_17  and  N_6 
REMARK    6  A    between atoms: N_7  and  C_12 
ROOT
ATOM      1  C   UNL d   1      13.613  14.361  -4.916  0.00  0.00     0.206 C 
ATOM      2  S   UNL d   1      13.992  13.785  -5.367  0.00  0.00    -0.038 SA
ENDROOT
BRANCH   1   3
ATOM      3  N   UNL d   1      13.148  14.136  -4.268  0.00  0.00    -0.218 NA
BRANCH   3   4
ATOM      4  C   UNL d   1      13.139  13.351  -4.015  0.00  0.00     0.085 A 
ATOM      5  C   UNL d   1      13.491  13.151  -3.296  0.00  0.00     0.031 A 
ATOM      6  C   UNL d   1      13.481  12.368  -3.046  0.00  0.00     0.094 A 
ATOM      7  C   UNL d   1      13.119  11.786  -3.515  0.00  0.00     0.012 A 
ATOM      8  C   UNL d   1      12.769  11.995  -4.232  0.00  0.00     0.002 A 
ATOM      9  C   UNL d   1      12.783  12.782  -4.478  0.00  0.00     0.019 A 
BRANCH   6  10
ATOM     10  S   UNL d   1      13.830  12.163  -2.331  0.00  0.00     0.262 S 
ATOM     11  O   UNL d   1      14.525  12.548  -2.565  0.00  0.00    -0.213 OA
ATOM     12  O   UNL d   1      13.138  11.782  -2.103  0.00  0.00    -0.213 OA
BRANCH  10  13
ATOM     13  C   UNL d   1      14.179  11.958  -1.616  0.00  0.00     0.364 C 
ATOM     14  F   UNL d   1      14.990  11.814  -1.580  0.00  0.00    -0.159 F 
ATOM     15  F   UNL d   1      13.719  11.895  -0.930  0.00  0.00    -0.159 F 
ENDBRANCH  10  13
ENDBRANCH   6  10
ENDBRANCH   3   4
ENDBRANCH   1   3
BRANCH   1  16
ATOM     16  N   UNL d   1      13.695  15.155  -5.110  0.00  0.00    -0.278 N 
ATOM     17  C   UNL d   1      14.082  15.667  -4.595  0.00  0.00     0.101 A 
ATOM     18  C   UNL d   1      14.164  16.460  -4.788  0.00  0.00     0.100 A 
ATOM     19  N   UNL d   1      13.858  16.743  -5.496  0.00  0.00    -0.301 N 
ATOM     20  C   UNL d   1      13.469  16.235  -6.014  0.00  0.00     0.100 A 
ATOM     21  C   UNL d   1      13.388  15.436  -5.817  0.00  0.00     0.101 A 
BRANCH  19  22
ATOM     22  C   UNL d   1      13.943  17.542  -5.684  0.00  0.00     0.064 A 
ATOM     23  C   UNL d   1      14.559  17.975  -5.347  0.00  0.00     0.018 A 
ATOM     24  C   UNL d   1      14.649  18.771  -5.530  0.00  0.00     0.002 A 
ATOM     25  C   UNL d   1      14.124  19.139  -6.052  0.00  0.00     0.000 A 
ATOM     26  C   UNL d   1      13.511  18.709  -6.389  0.00  0.00     0.002 A 
ATOM     27  C   UNL d   1      13.418  17.910  -6.207  0.00  0.00     0.018 A 
ENDBRANCH  19  22
ENDBRANCH   1  16
TORSDOF 6
ENDMDL
