MODEL 1
REMARK VINA RESULT:      -4.2      0.000      0.000
REMARK  2 active torsions:
REMARK  status: ('A' for Active; 'I' for Inactive)
REMARK    1  A    between atoms: N_2  and  S_1 
REMARK    2  A    between atoms: C_4  and  S_1 
ROOT
ATOM      1  S   UNL d   1     -41.628-122.372 -51.269  0.00  0.00     0.273 S 
ATOM      2  O   UNL d   1     -42.314-122.151 -50.871  0.00  0.00    -0.200 OA
ATOM      3  O   UNL d   1     -41.124-122.932 -50.934  0.00  0.00    -0.200 OA
ENDROOT
BRANCH   1   4
ATOM      4  N   UNL d   1     -41.448-122.034 -52.000  0.00  0.00    -0.212 N 
ATOM      5  C   UNL d   1     -41.310-121.215 -52.053  0.00  0.00     0.193 A 
ATOM      6  N   UNL d   1     -41.128-120.874 -52.791  0.00  0.00    -0.223 NA
ATOM      7  C   UNL d   1     -41.222-122.166 -53.411  0.00  0.00     0.100 A 
ATOM      8  C   UNL d   1     -41.403-122.514 -52.686  0.00  0.00     0.094 A 
ATOM      9  C   UNL d   1     -41.178-122.647 -54.093  0.00  0.00     0.021 A 
ATOM     10  C   UNL d   1     -41.540-123.324 -52.628  0.00  0.00     0.020 A 
ATOM     11  C   UNL d   1     -41.496-123.800 -53.303  0.00  0.00     0.002 A 
ATOM     12  C   UNL d   1     -41.315-123.461 -54.037  0.00  0.00     0.002 A 
ENDBRANCH   1   4
BRANCH   1  13
ATOM     13  C   UNL d   1     -41.817-122.699 -50.546  0.00  0.00     0.104 A 
ATOM     14  C   UNL d   1     -42.539-122.512 -50.189  0.00  0.00     0.012 A 
ATOM     15  C   UNL d   1     -42.737-122.834 -49.465  0.00  0.00     0.001 A 
ATOM     16  C   UNL d   1     -43.057-121.998 -50.570  0.00  0.00     0.001 C 
ATOM     17  C   UNL d   1     -42.212-123.352 -49.084  0.00  0.00     0.000 A 
ATOM     18  C   UNL d   1     -41.490-123.541 -49.438  0.00  0.00     0.001 A 
ATOM     19  C   UNL d   1     -42.410-123.677 -48.357  0.00  0.00     0.000 C 
ATOM     20  C   UNL d   1     -41.299-123.211 -50.169  0.00  0.00     0.013 A 
ENDBRANCH   1  13
TORSDOF 2
ENDMDL
MODEL 2
REMARK VINA RESULT:      -4.2      1.410      1.991
REMARK  2 active torsions:
REMARK  status: ('A' for Active; 'I' for Inactive)
REMARK    1  A    between atoms: N_2  and  S_1 
REMARK    2  A    between atoms: C_4  and  S_1 
ROOT
ATOM      1  S   UNL d   1     -41.783-123.175 -50.099  0.00  0.00     0.273 S 
ATOM      2  O   UNL d   1     -42.512-123.041 -49.739  0.00  0.00    -0.200 OA
ATOM      3  O   UNL d   1     -41.124-123.348 -49.635  0.00  0.00    -0.200 OA
ENDROOT
BRANCH   1   4
ATOM      4  N   UNL d   1     -41.716-123.134 -50.920  0.00  0.00    -0.212 N 
ATOM      5  C   UNL d   1     -41.846-123.817 -51.379  0.00  0.00     0.193 A 
ATOM      6  N   UNL d   1     -41.777-123.777 -52.208  0.00  0.00    -0.223 NA
ATOM      7  C   UNL d   1     -41.451-122.380 -52.112  0.00  0.00     0.100 A 
ATOM      8  C   UNL d   1     -41.516-122.409 -51.291  0.00  0.00     0.094 A 
ATOM      9  C   UNL d   1     -41.253-121.657 -52.479  0.00  0.00     0.021 A 
ATOM     10  C   UNL d   1     -41.389-121.738 -50.833  0.00  0.00     0.020 A 
ATOM     11  C   UNL d   1     -41.192-121.021 -51.196  0.00  0.00     0.002 A 
ATOM     12  C   UNL d   1     -41.124-120.980 -52.020  0.00  0.00     0.002 A 
ENDBRANCH   1   4
BRANCH   1  13
ATOM     13  C   UNL d   1     -41.863-123.212 -49.288  0.00  0.00     0.104 A 
ATOM     14  C   UNL d   1     -42.605-123.367 -48.957  0.00  0.00     0.012 A 
ATOM     15  C   UNL d   1     -42.693-123.406 -48.146  0.00  0.00     0.001 A 
ATOM     16  C   UNL d   1     -43.252-123.481 -49.452  0.00  0.00     0.001 C 
ATOM     17  C   UNL d   1     -42.039-123.290 -47.650  0.00  0.00     0.000 A 
ATOM     18  C   UNL d   1     -41.296-123.134 -47.978  0.00  0.00     0.001 A 
ATOM     19  C   UNL d   1     -42.127-123.328 -46.836  0.00  0.00     0.000 C 
ATOM     20  C   UNL d   1     -41.216-123.097 -48.797  0.00  0.00     0.013 A 
ENDBRANCH   1  13
TORSDOF 2
ENDMDL
MODEL 3
REMARK VINA RESULT:      -3.2      1.010      3.495
REMARK  2 active torsions:
REMARK  status: ('A' for Active; 'I' for Inactive)
REMARK    1  A    between atoms: N_2  and  S_1 
REMARK    2  A    between atoms: C_4  and  S_1 
ROOT
ATOM      1  S   UNL d   1     -41.491-122.526 -52.154  0.00  0.00     0.273 S 
ATOM      2  O   UNL d   1     -41.852-122.100 -52.759  0.00  0.00    -0.200 OA
ATOM      3  O   UNL d   1     -41.123-123.244 -52.322  0.00  0.00    -0.200 OA
ENDROOT
BRANCH   1   4
ATOM      4  N   UNL d   1     -41.500-122.234 -51.382  0.00  0.00    -0.212 N 
ATOM      5  C   UNL d   1     -41.129-121.507 -51.213  0.00  0.00     0.193 A 
ATOM      6  N   UNL d   1     -41.138-121.212 -50.434  0.00  0.00    -0.223 NA
ATOM      7  C   UNL d   1     -41.881-122.364 -50.005  0.00  0.00     0.100 A 
ATOM      8  C   UNL d   1     -41.879-122.666 -50.772  0.00  0.00     0.094 A 
ATOM      9  C   UNL d   1     -42.260-122.797 -49.400  0.00  0.00     0.021 A 
ATOM     10  C   UNL d   1     -42.243-123.383 -50.946  0.00  0.00     0.020 A 
ATOM     11  C   UNL d   1     -42.619-123.812 -50.346  0.00  0.00     0.002 A 
ATOM     12  C   UNL d   1     -42.627-123.519 -49.572  0.00  0.00     0.002 A 
ENDBRANCH   1   4
BRANCH   1  13
ATOM     13  C   UNL d   1     -41.489-122.805 -52.921  0.00  0.00     0.104 A 
ATOM     14  C   UNL d   1     -41.838-122.354 -53.520  0.00  0.00     0.012 A 
ATOM     15  C   UNL d   1     -41.840-122.626 -54.290  0.00  0.00     0.001 A 
ATOM     16  C   UNL d   1     -42.181-121.630 -53.333  0.00  0.00     0.001 C 
ATOM     17  C   UNL d   1     -41.493-123.356 -54.475  0.00  0.00     0.000 A 
ATOM     18  C   UNL d   1     -41.144-123.808 -53.878  0.00  0.00     0.001 A 
ATOM     19  C   UNL d   1     -41.495-123.629 -55.248  0.00  0.00     0.000 C 
ATOM     20  C   UNL d   1     -41.146-123.527 -53.104  0.00  0.00     0.013 A 
ENDBRANCH   1  13
TORSDOF 2
ENDMDL
MODEL 4
REMARK VINA RESULT:      -3.0      1.627      4.107
REMARK  2 active torsions:
REMARK  status: ('A' for Active; 'I' for Inactive)
REMARK    1  A    between atoms: N_2  and  S_1 
REMARK    2  A    between atoms: C_4  and  S_1 
ROOT
ATOM      1  S   UNL d   1     -41.649-122.525 -53.049  0.00  0.00     0.273 S 
ATOM      2  O   UNL d   1     -41.166-122.783 -53.665  0.00  0.00    -0.200 OA
ATOM      3  O   UNL d   1     -42.287-122.029 -53.210  0.00  0.00    -0.200 OA
ENDROOT
BRANCH   1   4
ATOM      4  N   UNL d   1     -41.493-122.764 -52.275  0.00  0.00    -0.212 N 
ATOM      5  C   UNL d   1     -41.442-123.576 -52.096  0.00  0.00     0.193 A 
ATOM      6  N   UNL d   1     -41.285-123.817 -51.314  0.00  0.00    -0.223 NA
ATOM      7  C   UNL d   1     -41.229-122.441 -50.902  0.00  0.00     0.100 A 
ATOM      8  C   UNL d   1     -41.385-122.192 -51.671  0.00  0.00     0.094 A 
ATOM      9  C   UNL d   1     -41.123-121.869 -50.303  0.00  0.00     0.021 A 
ATOM     10  C   UNL d   1     -41.436-121.391 -51.855  0.00  0.00     0.020 A 
ATOM     11  C   UNL d   1     -41.330-120.824 -51.261  0.00  0.00     0.002 A 
ATOM     12  C   UNL d   1     -41.173-121.063 -50.484  0.00  0.00     0.002 A 
ENDBRANCH   1   4
BRANCH   1  13
ATOM     13  C   UNL d   1     -41.793-122.296 -53.819  0.00  0.00     0.104 A 
ATOM     14  C   UNL d   1     -41.601-122.807 -54.440  0.00  0.00     0.012 A 
ATOM     15  C   UNL d   1     -41.742-122.585 -55.213  0.00  0.00     0.001 A 
ATOM     16  C   UNL d   1     -41.266-123.539 -54.272  0.00  0.00     0.001 C 
ATOM     17  C   UNL d   1     -42.080-121.846 -55.379  0.00  0.00     0.000 A 
ATOM     18  C   UNL d   1     -42.273-121.334 -54.760  0.00  0.00     0.001 A 
ATOM     19  C   UNL d   1     -42.222-121.623 -56.155  0.00  0.00     0.000 C 
ATOM     20  C   UNL d   1     -42.127-121.565 -53.983  0.00  0.00     0.013 A 
ENDBRANCH   1  13
TORSDOF 2
ENDMDL
