MODEL 1
REMARK VINA RESULT:      -4.1      0.000      0.000
REMARK  5 active torsions:
REMARK  status: ('A' for Active; 'I' for Inactive)
REMARK    1  A    between atoms: C_8  and  C_1 
REMARK    2  A    between atoms: N_6  and  C_2 
REMARK    3  A    between atoms: C_12  and  C_4 
REMARK       I    between atoms: C_7  and  N_6 
REMARK    4  A    between atoms: C_9  and  C_7 
REMARK    5  A    between atoms: O_15  and  C_8 
ROOT
ATOM      1  C   UNL d   1      58.433   0.059  30.516  0.00  0.00     0.110 A 
ATOM      2  C   UNL d   1      58.103  -0.656  30.309  0.00  0.00     0.096 A 
ATOM      3  S   UNL d   1      58.021   0.330  31.195  0.00  0.00    -0.080 SA
ATOM      4  C   UNL d   1      57.448  -0.231  31.384  0.00  0.00     0.031 A 
ATOM      5  C   UNL d   1      57.500  -0.846  30.830  0.00  0.00     0.026 A 
ENDROOT
BRANCH   2   6
ATOM      6  N   UNL d   1      58.354  -1.106  29.665  0.00  0.00    -0.207 NA
ATOM      7  C   UNL d   1      58.379  -1.923  29.711  0.00  0.00     0.279 C 
ATOM      8  O   UNL d   1      58.144  -2.291  30.425  0.00  0.00    -0.265 OA
BRANCH   7   9
ATOM      9  C   UNL d   1      58.623  -2.378  29.090  0.00  0.00     0.058 A 
ATOM     10  C   UNL d   1      58.869  -2.842  28.455  0.00  0.00     0.005 A 
ATOM     11  C   UNL d   1      59.244  -2.917  29.187  0.00  0.00     0.005 A 
ENDBRANCH   7   9
ENDBRANCH   2   6
BRANCH   1  12
ATOM     12  C   UNL d   1      59.053   0.439  30.128  0.00  0.00     0.303 C 
ATOM     13  O   UNL d   1      58.965   0.680  29.330  0.00  0.00    -0.259 OA
BRANCH  12  14
ATOM     14  O   UNL d   1      59.773   0.585  30.530  0.00  0.00    -0.295 OA
ATOM     15  C   UNL d   1      60.461   0.682  30.116  0.00  0.00     0.185 C 
ENDBRANCH  12  14
ENDBRANCH   1  12
BRANCH   4  16
ATOM     16  C   UNL d   1      56.923  -0.153  32.035  0.00  0.00     0.006 A 
ATOM     17  C   UNL d   1      56.910   0.552  32.467  0.00  0.00     0.001 A 
ATOM     18  C   UNL d   1      56.398   0.625  33.099  0.00  0.00     0.000 A 
ATOM     19  C   UNL d   1      55.898  -0.006  33.302  0.00  0.00     0.000 A 
ATOM     20  C   UNL d   1      55.926  -0.710  32.855  0.00  0.00     0.000 A 
ATOM     21  C   UNL d   1      56.445  -0.759  32.228  0.00  0.00     0.001 A 
ENDBRANCH   4  16
TORSDOF 5
ENDMDL
MODEL 2
REMARK VINA RESULT:      -3.2      0.942      2.391
REMARK  5 active torsions:
REMARK  status: ('A' for Active; 'I' for Inactive)
REMARK    1  A    between atoms: C_8  and  C_1 
REMARK    2  A    between atoms: N_6  and  C_2 
REMARK    3  A    between atoms: C_12  and  C_4 
REMARK       I    between atoms: C_7  and  N_6 
REMARK    4  A    between atoms: C_9  and  C_7 
REMARK    5  A    between atoms: O_15  and  C_8 
ROOT
ATOM      1  C   UNL d   1      58.165  -1.158  29.869  0.00  0.00     0.110 A 
ATOM      2  C   UNL d   1      58.550  -0.441  29.878  0.00  0.00     0.096 A 
ATOM      3  S   UNL d   1      57.638  -1.160  30.522  0.00  0.00    -0.080 SA
ATOM      4  C   UNL d   1      57.717  -0.440  30.913  0.00  0.00     0.031 A 
ATOM      5  C   UNL d   1      58.287   0.009  30.511  0.00  0.00     0.026 A 
ENDROOT
BRANCH   2   6
ATOM      6  N   UNL d   1      59.118  -0.219  29.323  0.00  0.00    -0.207 NA
ATOM      7  C   UNL d   1      59.767   0.227  29.545  0.00  0.00     0.279 C 
ATOM      8  O   UNL d   1      59.842   0.454  30.347  0.00  0.00    -0.265 OA
BRANCH   7   9
ATOM      9  C   UNL d   1      60.333   0.452  29.014  0.00  0.00     0.058 A 
ATOM     10  C   UNL d   1      60.908   0.682  28.471  0.00  0.00     0.005 A 
ATOM     11  C   UNL d   1      61.133   0.434  29.226  0.00  0.00     0.005 A 
ENDBRANCH   7   9
ENDBRANCH   2   6
BRANCH   1  12
ATOM     12  C   UNL d   1      58.277  -1.763  29.319  0.00  0.00     0.303 C 
ATOM     13  O   UNL d   1      58.018  -1.664  28.528  0.00  0.00    -0.259 OA
BRANCH  12  14
ATOM     14  O   UNL d   1      58.648  -2.477  29.550  0.00  0.00    -0.295 OA
ATOM     15  C   UNL d   1      58.893  -3.010  28.994  0.00  0.00     0.185 C 
ENDBRANCH  12  14
ENDBRANCH   1  12
BRANCH   4  16
ATOM     16  C   UNL d   1      57.276  -0.237  31.599  0.00  0.00     0.006 A 
ATOM     17  C   UNL d   1      56.643  -0.714  31.833  0.00  0.00     0.001 A 
ATOM     18  C   UNL d   1      56.216  -0.514  32.500  0.00  0.00     0.000 A 
ATOM     19  C   UNL d   1      56.421   0.163  32.935  0.00  0.00     0.000 A 
ATOM     20  C   UNL d   1      57.063   0.633  32.683  0.00  0.00     0.000 A 
ATOM     21  C   UNL d   1      57.474   0.413  32.014  0.00  0.00     0.001 A 
ENDBRANCH   4  16
TORSDOF 5
ENDMDL
