MODEL 1
REMARK VINA RESULT:      21.5      0.000      0.000
REMARK  5 active torsions:
REMARK  status: ('A' for Active; 'I' for Inactive)
REMARK    1  A    between atoms: C_2  and  S_1 
REMARK    2  A    between atoms: C_9  and  S_1 
REMARK    3  A    between atoms: N_5  and  C_3 
REMARK    4  A    between atoms: O_28  and  C_23 
REMARK    5  A    between atoms: O_29  and  C_24 
ROOT
ATOM      1  C   UNL d   1     -41.965-123.100 -52.584  0.00  0.00     0.123 A 
ATOM      2  C   UNL d   1     -41.830-122.407 -53.007  0.00  0.00     0.078 A 
ATOM      3  C   UNL d   1     -41.848-122.419 -53.830  0.00  0.00     0.036 A 
ATOM      4  C   UNL d   1     -42.119-123.805 -52.984  0.00  0.00     0.112 A 
ATOM      5  N   UNL d   1     -42.137-123.817 -53.806  0.00  0.00    -0.243 NA
ATOM      6  C   UNL d   1     -42.002-123.125 -54.230  0.00  0.00     0.083 A 
ATOM      7  C   UNL d   1     -41.713-121.726 -54.253  0.00  0.00     0.027 A 
ATOM      8  C   UNL d   1     -42.020-123.137 -55.052  0.00  0.00     0.021 A 
ATOM      9  C   UNL d   1     -41.731-121.739 -55.077  0.00  0.00     0.094 A 
ATOM     10  C   UNL d   1     -41.884-122.444 -55.476  0.00  0.00     0.026 A 
ENDROOT
BRANCH   1  11
ATOM     11  S   UNL d   1     -41.948-123.093 -51.750  0.00  0.00     0.213 S 
ATOM     12  O   UNL d   1     -42.769-122.942 -51.734  0.00  0.00    -0.217 OA
ATOM     13  O   UNL d   1     -41.132-123.244 -51.767  0.00  0.00    -0.217 OA
BRANCH  11  14
ATOM     14  C   UNL d   1     -41.932-123.086 -50.916  0.00  0.00     0.088 A 
ATOM     15  C   UNL d   1     -42.629-122.949 -50.495  0.00  0.00     0.013 A 
ATOM     16  C   UNL d   1     -42.619-122.941 -49.672  0.00  0.00     0.025 A 
ATOM     17  C   UNL d   1     -41.903-123.072 -49.261  0.00  0.00     0.094 A 
ATOM     18  C   UNL d   1     -41.206-123.210 -49.696  0.00  0.00     0.025 A 
ATOM     19  C   UNL d   1     -41.222-123.216 -50.515  0.00  0.00     0.013 A 
BRANCH  17  20
ATOM     20  O   UNL d   1     -41.890-123.065 -48.431  0.00  0.00    -0.328 OA
ATOM     21  C   UNL d   1     -42.571-123.249 -48.003  0.00  0.00     0.181 C 
ENDBRANCH  17  20
ENDBRANCH  11  14
ENDBRANCH   1  11
BRANCH   2  22
ATOM     22  N   UNL d   1     -41.677-121.702 -52.607  0.00  0.00    -0.303 N 
ATOM     23  C   UNL d   1     -41.614-120.995 -53.026  0.00  0.00     0.081 A 
ATOM     24  C   UNL d   1     -41.459-120.283 -52.622  0.00  0.00     0.053 A 
ATOM     25  C   UNL d   1     -41.368-120.284 -51.804  0.00  0.00     0.239 A 
ATOM     26  C   UNL d   1     -41.431-120.996 -51.374  0.00  0.00     0.053 A 
ATOM     27  O   UNL d   1     -41.264-120.198 -50.980  0.00  0.00    -0.298 OA
ATOM     28  O   UNL d   1     -41.291-119.538 -52.143  0.00  0.00    -0.298 OA
ATOM     29  C   UNL d   1     -41.586-121.708 -51.778  0.00  0.00     0.081 A 
ATOM     30  C   UNL d   1     -41.123-119.395 -50.827  0.00  0.00     0.146 A 
ATOM     31  C   UNL d   1     -41.139-118.989 -51.545  0.00  0.00     0.146 A 
ENDBRANCH   2  22
BRANCH   9  32
ATOM     32  O   UNL d   1     -41.594-121.038 -55.496  0.00  0.00    -0.328 OA
ATOM     33  C   UNL d   1     -41.928-120.941 -56.246  0.00  0.00     0.181 C 
ENDBRANCH   9  32
TORSDOF 5
ENDMDL
MODEL 2
REMARK VINA RESULT:      22.8      1.882      5.145
REMARK  5 active torsions:
REMARK  status: ('A' for Active; 'I' for Inactive)
REMARK    1  A    between atoms: C_2  and  S_1 
REMARK    2  A    between atoms: C_9  and  S_1 
REMARK    3  A    between atoms: N_5  and  C_3 
REMARK    4  A    between atoms: O_28  and  C_23 
REMARK    5  A    between atoms: O_29  and  C_24 
ROOT
ATOM      1  C   UNL d   1     -41.757-123.288 -49.443  0.00  0.00     0.123 A 
ATOM      2  C   UNL d   1     -42.481-123.157 -49.074  0.00  0.00     0.078 A 
ATOM      3  C   UNL d   1     -42.570-123.333 -48.274  0.00  0.00     0.036 A 
ATOM      4  C   UNL d   1     -41.123-123.595 -49.014  0.00  0.00     0.112 A 
ATOM      5  N   UNL d   1     -41.213-123.772 -48.216  0.00  0.00    -0.243 NA
ATOM      6  C   UNL d   1     -41.936-123.641 -47.845  0.00  0.00     0.083 A 
ATOM      7  C   UNL d   1     -43.294-123.202 -47.905  0.00  0.00     0.027 A 
ATOM      8  C   UNL d   1     -42.026-123.818 -47.047  0.00  0.00     0.021 A 
ATOM      9  C   UNL d   1     -43.384-123.379 -47.105  0.00  0.00     0.094 A 
ATOM     10  C   UNL d   1     -42.750-123.687 -46.676  0.00  0.00     0.026 A 
ENDROOT
BRANCH   1  11
ATOM     11  S   UNL d   1     -41.660-123.111 -50.253  0.00  0.00     0.213 S 
ATOM     12  O   UNL d   1     -42.140-123.764 -50.453  0.00  0.00    -0.217 OA
ATOM     13  O   UNL d   1     -41.183-122.461 -50.053  0.00  0.00    -0.217 OA
BRANCH  11  14
ATOM     14  C   UNL d   1     -41.564-122.934 -51.062  0.00  0.00     0.088 A 
ATOM     15  C   UNL d   1     -41.489-122.147 -51.302  0.00  0.00     0.013 A 
ATOM     16  C   UNL d   1     -41.394-121.967 -52.100  0.00  0.00     0.025 A 
ATOM     17  C   UNL d   1     -41.374-122.581 -52.669  0.00  0.00     0.094 A 
ATOM     18  C   UNL d   1     -41.451-123.370 -52.414  0.00  0.00     0.025 A 
ATOM     19  C   UNL d   1     -41.545-123.543 -51.620  0.00  0.00     0.013 A 
BRANCH  17  20
ATOM     20  O   UNL d   1     -41.278-122.402 -53.474  0.00  0.00    -0.328 OA
ATOM     21  C   UNL d   1     -41.599-122.898 -54.050  0.00  0.00     0.181 C 
ENDBRANCH  17  20
ENDBRANCH  11  14
ENDBRANCH   1  11
BRANCH   2  22
ATOM     22  N   UNL d   1     -43.115-122.849 -49.503  0.00  0.00    -0.303 N 
ATOM     23  C   UNL d   1     -43.211-122.033 -49.570  0.00  0.00     0.081 A 
ATOM     24  C   UNL d   1     -43.851-121.723 -50.003  0.00  0.00     0.053 A 
ATOM     25  C   UNL d   1     -44.389-122.231 -50.365  0.00  0.00     0.239 A 
ATOM     26  C   UNL d   1     -44.297-123.057 -50.301  0.00  0.00     0.053 A 
ATOM     27  O   UNL d   1     -44.976-122.674 -50.761  0.00  0.00    -0.298 OA
ATOM     28  O   UNL d   1     -44.558-121.434 -50.482  0.00  0.00    -0.298 OA
ATOM     29  C   UNL d   1     -43.657-123.368 -49.868  0.00  0.00     0.081 A 
ATOM     30  C   UNL d   1     -45.499-122.136 -51.116  0.00  0.00     0.146 A 
ATOM     31  C   UNL d   1     -45.240-121.372 -50.943  0.00  0.00     0.146 A 
ENDBRANCH   2  22
BRANCH   9  32
ATOM     32  O   UNL d   1     -44.114-123.245 -46.740  0.00  0.00    -0.328 OA
ATOM     33  C   UNL d   1     -44.712-123.812 -46.804  0.00  0.00     0.181 C 
ENDBRANCH   9  32
TORSDOF 5
ENDMDL
MODEL 3
REMARK VINA RESULT:      23.1      1.580      2.211
REMARK  5 active torsions:
REMARK  status: ('A' for Active; 'I' for Inactive)
REMARK    1  A    between atoms: C_2  and  S_1 
REMARK    2  A    between atoms: C_9  and  S_1 
REMARK    3  A    between atoms: N_5  and  C_3 
REMARK    4  A    between atoms: O_28  and  C_23 
REMARK    5  A    between atoms: O_29  and  C_24 
ROOT
ATOM      1  C   UNL d   1     -41.726-123.077 -51.506  0.00  0.00     0.123 A 
ATOM      2  C   UNL d   1     -42.312-122.628 -51.870  0.00  0.00     0.078 A 
ATOM      3  C   UNL d   1     -42.303-122.530 -52.688  0.00  0.00     0.036 A 
ATOM      4  C   UNL d   1     -41.131-123.427 -51.958  0.00  0.00     0.112 A 
ATOM      5  N   UNL d   1     -41.123-123.329 -52.775  0.00  0.00    -0.243 NA
ATOM      6  C   UNL d   1     -41.709-122.880 -53.141  0.00  0.00     0.083 A 
ATOM      7  C   UNL d   1     -42.889-122.081 -53.053  0.00  0.00     0.027 A 
ATOM      8  C   UNL d   1     -41.701-122.782 -53.957  0.00  0.00     0.021 A 
ATOM      9  C   UNL d   1     -42.881-121.983 -53.871  0.00  0.00     0.094 A 
ATOM     10  C   UNL d   1     -42.287-122.333 -54.323  0.00  0.00     0.026 A 
ENDROOT
BRANCH   1  11
ATOM     11  S   UNL d   1     -41.729-123.179 -50.678  0.00  0.00     0.213 S 
ATOM     12  O   UNL d   1     -42.262-123.817 -50.759  0.00  0.00    -0.217 OA
ATOM     13  O   UNL d   1     -41.199-122.545 -50.598  0.00  0.00    -0.217 OA
BRANCH  11  14
ATOM     14  C   UNL d   1     -41.733-123.283 -49.850  0.00  0.00     0.088 A 
ATOM     15  C   UNL d   1     -42.351-123.699 -49.494  0.00  0.00     0.013 A 
ATOM     16  C   UNL d   1     -42.361-123.804 -48.678  0.00  0.00     0.025 A 
ATOM     17  C   UNL d   1     -41.744-123.490 -48.208  0.00  0.00     0.094 A 
ATOM     18  C   UNL d   1     -41.126-123.072 -48.579  0.00  0.00     0.025 A 
ATOM     19  C   UNL d   1     -41.123-122.971 -49.391  0.00  0.00     0.013 A 
BRANCH  17  20
ATOM     20  O   UNL d   1     -41.751-123.594 -47.384  0.00  0.00    -0.328 OA
ATOM     21  C   UNL d   1     -42.212-123.103 -46.908  0.00  0.00     0.181 C 
ENDBRANCH  17  20
ENDBRANCH  11  14
ENDBRANCH   1  11
BRANCH   2  22
ATOM     22  N   UNL d   1     -42.906-122.277 -51.418  0.00  0.00    -0.303 N 
ATOM     23  C   UNL d   1     -43.638-122.647 -51.340  0.00  0.00     0.081 A 
ATOM     24  C   UNL d   1     -44.238-122.293 -50.883  0.00  0.00     0.053 A 
ATOM     25  C   UNL d   1     -44.100-121.573 -50.509  0.00  0.00     0.239 A 
ATOM     26  C   UNL d   1     -43.361-121.194 -50.583  0.00  0.00     0.053 A 
ATOM     27  O   UNL d   1     -44.042-120.848 -50.098  0.00  0.00    -0.298 OA
ATOM     28  O   UNL d   1     -44.856-121.872 -50.379  0.00  0.00    -0.298 OA
ATOM     29  C   UNL d   1     -42.761-121.547 -51.040  0.00  0.00     0.081 A 
ATOM     30  C   UNL d   1     -44.770-120.714 -49.721  0.00  0.00     0.146 A 
ATOM     31  C   UNL d   1     -45.270-121.347 -49.895  0.00  0.00     0.146 A 
ENDBRANCH   2  22
BRANCH   9  32
ATOM     32  O   UNL d   1     -43.473-121.531 -54.230  0.00  0.00    -0.328 OA
ATOM     33  C   UNL d   1     -43.478-121.446 -55.053  0.00  0.00     0.181 C 
ENDBRANCH   9  32
TORSDOF 5
ENDMDL
