MODEL 1
REMARK VINA RESULT:      -7.3      0.000      0.000
REMARK  7 active torsions:
REMARK  status: ('A' for Active; 'I' for Inactive)
REMARK    1  A    between atoms: C_7  and  C_3 
REMARK    2  A    between atoms: C_8  and  C_7 
REMARK       I    between atoms: N_12  and  C_8 
REMARK    3  A    between atoms: C_15  and  N_12 
REMARK    4  A    between atoms: C_13  and  C_15 
REMARK    5  A    between atoms: C_16  and  C_13 
REMARK    6  A    between atoms: O_14  and  C_16 
REMARK    7  A    between atoms: C_17  and  O_14 
ROOT
ATOM      1  C   UNL d   1      52.969  33.557  52.924  0.00  0.00     0.082 C 
ENDROOT
BRANCH   1   2
ATOM      2  C   UNL d   1      53.152  34.032  53.578  0.00  0.00     0.096 A 
ATOM      3  C   UNL d   1      52.742  34.739  53.703  0.00  0.00     0.082 A 
ATOM      4  C   UNL d   1      52.918  35.224  54.356  0.00  0.00     0.285 A 
ATOM      5  N   UNL d   1      53.514  34.979  54.876  0.00  0.00    -0.152 NA
ATOM      6  O   UNL d   1      52.512  35.923  54.480  0.00  0.00    -0.265 OA
ATOM      7  C   UNL d   1      53.924  34.272  54.751  0.00  0.00     0.371 A 
ATOM      8  N   UNL d   1      53.742  33.803  54.104  0.00  0.00    -0.191 NA
ATOM      9  O   UNL d   1      54.518  34.039  55.279  0.00  0.00    -0.242 OA
ENDBRANCH   1   2
BRANCH   1  10
ATOM     10  C   UNL d   1      52.588  32.834  53.035  0.00  0.00     0.281 C 
ATOM     11  O   UNL d   1      51.810  32.813  53.315  0.00  0.00    -0.265 OA
ATOM     12  N   UNL d   1      52.985  32.131  52.864  0.00  0.00    -0.206 NA
BRANCH  12  13
ATOM     13  C   UNL d   1      52.604  31.407  52.975  0.00  0.00     0.104 C 
BRANCH  13  14
ATOM     14  C   UNL d   1      53.040  30.707  52.956  0.00  0.00     0.048 C 
BRANCH  14  15
ATOM     15  C   UNL d   1      52.772  30.046  53.371  0.00  0.00     0.124 C 
BRANCH  15  16
ATOM     16  O   UNL d   1      53.321  29.564  53.765  0.00  0.00    -0.303 OA
BRANCH  16  17
ATOM     17  C   UNL d   1      53.067  29.095  54.396  0.00  0.00     0.123 C 
ATOM     18  C   UNL d   1      53.592  28.566  54.750  0.00  0.00     0.029 C 
ENDBRANCH  16  17
ENDBRANCH  15  16
ENDBRANCH  14  15
ENDBRANCH  13  14
ENDBRANCH  12  13
ENDBRANCH   1  10
TORSDOF 7
ENDMDL
MODEL 2
REMARK VINA RESULT:      -6.9      2.406      4.084
REMARK  7 active torsions:
REMARK  status: ('A' for Active; 'I' for Inactive)
REMARK    1  A    between atoms: C_7  and  C_3 
REMARK    2  A    between atoms: C_8  and  C_7 
REMARK       I    between atoms: N_12  and  C_8 
REMARK    3  A    between atoms: C_15  and  N_12 
REMARK    4  A    between atoms: C_13  and  C_15 
REMARK    5  A    between atoms: C_16  and  C_13 
REMARK    6  A    between atoms: O_14  and  C_16 
REMARK    7  A    between atoms: C_17  and  O_14 
ROOT
ATOM      1  C   UNL d   1      52.618  34.049  54.416  0.00  0.00     0.082 C 
ENDROOT
BRANCH   1   2
ATOM      2  C   UNL d   1      53.353  33.667  54.433  0.00  0.00     0.096 A 
ATOM      3  C   UNL d   1      53.984  34.002  54.849  0.00  0.00     0.082 A 
ATOM      4  C   UNL d   1      54.726  33.628  54.873  0.00  0.00     0.285 A 
ATOM      5  N   UNL d   1      54.815  32.910  54.470  0.00  0.00    -0.152 NA
ATOM      6  O   UNL d   1      55.350  33.960  55.285  0.00  0.00    -0.265 OA
ATOM      7  C   UNL d   1      54.184  32.575  54.054  0.00  0.00     0.371 A 
ATOM      8  N   UNL d   1      53.458  32.953  54.037  0.00  0.00    -0.191 NA
ATOM      9  O   UNL d   1      54.288  31.856  53.654  0.00  0.00    -0.242 OA
ENDBRANCH   1   2
BRANCH   1  10
ATOM     10  C   UNL d   1      52.299  34.297  53.696  0.00  0.00     0.281 C 
ATOM     11  O   UNL d   1      52.732  34.799  53.201  0.00  0.00    -0.265 OA
ATOM     12  N   UNL d   1      51.547  34.041  53.471  0.00  0.00    -0.206 NA
BRANCH  12  13
ATOM     13  C   UNL d   1      51.228  34.288  52.751  0.00  0.00     0.104 C 
BRANCH  13  14
ATOM     14  C   UNL d   1      50.417  34.217  52.616  0.00  0.00     0.048 C 
BRANCH  14  15
ATOM     15  C   UNL d   1      50.108  34.401  51.873  0.00  0.00     0.124 C 
BRANCH  15  16
ATOM     16  O   UNL d   1      49.298  34.563  51.800  0.00  0.00    -0.303 OA
BRANCH  16  17
ATOM     17  C   UNL d   1      48.934  34.481  51.064  0.00  0.00     0.123 C 
ATOM     18  C   UNL d   1      48.212  34.853  50.919  0.00  0.00     0.029 C 
ENDBRANCH  16  17
ENDBRANCH  15  16
ENDBRANCH  14  15
ENDBRANCH  13  14
ENDBRANCH  12  13
ENDBRANCH   1  10
TORSDOF 7
ENDMDL
MODEL 3
REMARK VINA RESULT:      -6.0      1.698      4.572
REMARK  7 active torsions:
REMARK  status: ('A' for Active; 'I' for Inactive)
REMARK    1  A    between atoms: C_7  and  C_3 
REMARK    2  A    between atoms: C_8  and  C_7 
REMARK       I    between atoms: N_12  and  C_8 
REMARK    3  A    between atoms: C_15  and  N_12 
REMARK    4  A    between atoms: C_13  and  C_15 
REMARK    5  A    between atoms: C_16  and  C_13 
REMARK    6  A    between atoms: O_14  and  C_16 
REMARK    7  A    between atoms: C_17  and  O_14 
ROOT
ATOM      1  C   UNL d   1      53.942  31.337  53.542  0.00  0.00     0.082 C 
ENDROOT
BRANCH   1   2
ATOM      2  C   UNL d   1      53.548  30.613  53.632  0.00  0.00     0.096 A 
ATOM      3  C   UNL d   1      53.054  30.334  53.031  0.00  0.00     0.082 A 
ATOM      4  C   UNL d   1      52.653  29.610  53.111  0.00  0.00     0.285 A 
ATOM      5  N   UNL d   1      52.764  29.176  53.807  0.00  0.00    -0.152 NA
ATOM      6  O   UNL d   1      52.164  29.334  52.516  0.00  0.00    -0.265 OA
ATOM      7  C   UNL d   1      53.258  29.455  54.408  0.00  0.00     0.371 A 
ATOM      8  N   UNL d   1      53.648  30.170  54.319  0.00  0.00    -0.191 NA
ATOM      9  O   UNL d   1      53.360  29.010  55.101  0.00  0.00    -0.242 OA
ENDBRANCH   1   2
BRANCH   1  10
ATOM     10  C   UNL d   1      53.611  32.027  53.850  0.00  0.00     0.281 C 
ATOM     11  O   UNL d   1      53.669  32.191  54.658  0.00  0.00    -0.265 OA
ATOM     12  N   UNL d   1      53.221  32.554  53.348  0.00  0.00    -0.206 NA
BRANCH  12  13
ATOM     13  C   UNL d   1      52.890  33.244  53.655  0.00  0.00     0.104 C 
BRANCH  13  14
ATOM     14  C   UNL d   1      52.540  33.793  53.148  0.00  0.00     0.048 C 
BRANCH  14  15
ATOM     15  C   UNL d   1      51.793  34.097  53.324  0.00  0.00     0.124 C 
BRANCH  15  16
ATOM     16  O   UNL d   1      51.223  34.146  52.724  0.00  0.00    -0.303 OA
BRANCH  16  17
ATOM     17  C   UNL d   1      50.484  34.472  52.894  0.00  0.00     0.123 C 
ATOM     18  C   UNL d   1      49.899  34.490  52.312  0.00  0.00     0.029 C 
ENDBRANCH  16  17
ENDBRANCH  15  16
ENDBRANCH  14  15
ENDBRANCH  13  14
ENDBRANCH  12  13
ENDBRANCH   1  10
TORSDOF 7
ENDMDL
MODEL 4
REMARK VINA RESULT:      -5.4      2.689      3.314
REMARK  7 active torsions:
REMARK  status: ('A' for Active; 'I' for Inactive)
REMARK    1  A    between atoms: C_7  and  C_3 
REMARK    2  A    between atoms: C_8  and  C_7 
REMARK       I    between atoms: N_12  and  C_8 
REMARK    3  A    between atoms: C_15  and  N_12 
REMARK    4  A    between atoms: C_13  and  C_15 
REMARK    5  A    between atoms: C_16  and  C_13 
REMARK    6  A    between atoms: O_14  and  C_16 
REMARK    7  A    between atoms: C_17  and  O_14 
ROOT
ATOM      1  C   UNL d   1      51.137  34.203  52.707  0.00  0.00     0.082 C 
ENDROOT
BRANCH   1   2
ATOM      2  C   UNL d   1      50.378  34.448  52.483  0.00  0.00     0.096 A 
ATOM      3  C   UNL d   1      49.900  34.856  53.021  0.00  0.00     0.082 A 
ATOM      4  C   UNL d   1      49.137  35.107  52.807  0.00  0.00     0.285 A 
ATOM      5  N   UNL d   1      48.868  34.936  52.043  0.00  0.00    -0.152 NA
ATOM      6  O   UNL d   1      48.664  35.511  53.339  0.00  0.00    -0.265 OA
ATOM      7  C   UNL d   1      49.346  34.528  51.505  0.00  0.00     0.371 A 
ATOM      8  N   UNL d   1      50.097  34.286  51.727  0.00  0.00    -0.191 NA
ATOM      9  O   UNL d   1      49.064  34.364  50.743  0.00  0.00    -0.242 OA
ENDBRANCH   1   2
BRANCH   1  10
ATOM     10  C   UNL d   1      51.249  33.453  53.033  0.00  0.00     0.281 C 
ATOM     11  O   UNL d   1      50.730  33.171  53.612  0.00  0.00    -0.265 OA
ATOM     12  N   UNL d   1      51.880  32.986  52.780  0.00  0.00    -0.206 NA
BRANCH  12  13
ATOM     13  C   UNL d   1      51.992  32.236  53.106  0.00  0.00     0.104 C 
BRANCH  13  14
ATOM     14  C   UNL d   1      52.692  31.825  52.959  0.00  0.00     0.048 C 
BRANCH  14  15
ATOM     15  C   UNL d   1      52.696  31.000  52.983  0.00  0.00     0.124 C 
BRANCH  15  16
ATOM     16  O   UNL d   1      53.195  30.612  53.521  0.00  0.00    -0.303 OA
BRANCH  16  17
ATOM     17  C   UNL d   1      53.264  29.790  53.487  0.00  0.00     0.123 C 
ATOM     18  C   UNL d   1      53.441  29.365  54.172  0.00  0.00     0.029 C 
ENDBRANCH  16  17
ENDBRANCH  15  16
ENDBRANCH  14  15
ENDBRANCH  13  14
ENDBRANCH  12  13
ENDBRANCH   1  10
TORSDOF 7
ENDMDL
MODEL 5
REMARK VINA RESULT:      -5.3      3.213      4.376
REMARK  7 active torsions:
REMARK  status: ('A' for Active; 'I' for Inactive)
REMARK    1  A    between atoms: C_7  and  C_3 
REMARK    2  A    between atoms: C_8  and  C_7 
REMARK       I    between atoms: N_12  and  C_8 
REMARK    3  A    between atoms: C_15  and  N_12 
REMARK    4  A    between atoms: C_13  and  C_15 
REMARK    5  A    between atoms: C_16  and  C_13 
REMARK    6  A    between atoms: O_14  and  C_16 
REMARK    7  A    between atoms: C_17  and  O_14 
ROOT
ATOM      1  C   UNL d   1      50.171  33.886  52.679  0.00  0.00     0.082 C 
ENDROOT
BRANCH   1   2
ATOM      2  C   UNL d   1      49.586  34.454  52.527  0.00  0.00     0.096 A 
ATOM      3  C   UNL d   1      49.192  34.457  51.800  0.00  0.00     0.082 A 
ATOM      4  C   UNL d   1      48.603  35.021  51.637  0.00  0.00     0.285 A 
ATOM      5  N   UNL d   1      48.424  35.580  52.222  0.00  0.00    -0.152 NA
ATOM      6  O   UNL d   1      48.213  35.024  50.918  0.00  0.00    -0.265 OA
ATOM      7  C   UNL d   1      48.818  35.577  52.949  0.00  0.00     0.371 A 
ATOM      8  N   UNL d   1      49.396  35.015  53.098  0.00  0.00    -0.191 NA
ATOM      9  O   UNL d   1      48.628  36.141  53.525  0.00  0.00    -0.242 OA
ENDBRANCH   1   2
BRANCH   1  10
ATOM     10  C   UNL d   1      50.966  34.107  52.690  0.00  0.00     0.281 C 
ATOM     11  O   UNL d   1      51.294  34.509  52.045  0.00  0.00    -0.265 OA
ATOM     12  N   UNL d   1      51.433  33.926  53.346  0.00  0.00    -0.206 NA
BRANCH  12  13
ATOM     13  C   UNL d   1      52.228  34.147  53.357  0.00  0.00     0.104 C 
BRANCH  13  14
ATOM     14  C   UNL d   1      52.771  33.702  53.790  0.00  0.00     0.048 C 
BRANCH  14  15
ATOM     15  C   UNL d   1      53.363  34.083  54.220  0.00  0.00     0.124 C 
BRANCH  15  16
ATOM     16  O   UNL d   1      54.099  33.712  54.316  0.00  0.00    -0.303 OA
BRANCH  16  17
ATOM     17  C   UNL d   1      54.414  33.628  55.074  0.00  0.00     0.123 C 
ATOM     18  C   UNL d   1      55.223  33.739  55.196  0.00  0.00     0.029 C 
ENDBRANCH  16  17
ENDBRANCH  15  16
ENDBRANCH  14  15
ENDBRANCH  13  14
ENDBRANCH  12  13
ENDBRANCH   1  10
TORSDOF 7
ENDMDL
MODEL 6
REMARK VINA RESULT:      -4.8      9.519     10.057
REMARK  7 active torsions:
REMARK  status: ('A' for Active; 'I' for Inactive)
REMARK    1  A    between atoms: C_7  and  C_3 
REMARK    2  A    between atoms: C_8  and  C_7 
REMARK       I    between atoms: N_12  and  C_8 
REMARK    3  A    between atoms: C_15  and  N_12 
REMARK    4  A    between atoms: C_13  and  C_15 
REMARK    5  A    between atoms: C_16  and  C_13 
REMARK    6  A    between atoms: O_14  and  C_16 
REMARK    7  A    between atoms: C_17  and  O_14 
ROOT
ATOM      1  C   UNL d   1      45.504  29.188  58.497  0.00  0.00     0.082 C 
ENDROOT
BRANCH   1   2
ATOM      2  C   UNL d   1      45.160  29.939  58.565  0.00  0.00     0.096 A 
ATOM      3  C   UNL d   1      44.911  30.214  59.304  0.00  0.00     0.082 A 
ATOM      4  C   UNL d   1      44.564  30.966  59.385  0.00  0.00     0.285 A 
ATOM      5  N   UNL d   1      44.475  31.430  58.705  0.00  0.00    -0.152 NA
ATOM      6  O   UNL d   1      44.318  31.238  60.116  0.00  0.00    -0.265 OA
ATOM      7  C   UNL d   1      44.724  31.155  57.966  0.00  0.00     0.371 A 
ATOM      8  N   UNL d   1      45.065  30.413  57.899  0.00  0.00    -0.191 NA
ATOM      9  O   UNL d   1      44.629  31.631  57.294  0.00  0.00    -0.242 OA
ENDBRANCH   1   2
BRANCH   1  10
ATOM     10  C   UNL d   1      45.056  28.554  58.218  0.00  0.00     0.281 C 
ATOM     11  O   UNL d   1      44.315  28.392  58.547  0.00  0.00    -0.265 OA
ATOM     12  N   UNL d   1      45.350  28.081  57.609  0.00  0.00    -0.206 NA
BRANCH  12  13
ATOM     13  C   UNL d   1      44.903  27.447  57.329  0.00  0.00     0.104 C 
BRANCH  13  14
ATOM     14  C   UNL d   1      45.227  26.929  56.774  0.00  0.00     0.048 C 
BRANCH  14  15
ATOM     15  C   UNL d   1      44.817  26.244  56.563  0.00  0.00     0.124 C 
BRANCH  15  16
ATOM     16  O   UNL d   1      45.181  25.690  56.065  0.00  0.00    -0.303 OA
BRANCH  16  17
ATOM     17  C   UNL d   1      44.830  24.951  55.959  0.00  0.00     0.123 C 
ATOM     18  C   UNL d   1      44.933  24.547  55.247  0.00  0.00     0.029 C 
ENDBRANCH  16  17
ENDBRANCH  15  16
ENDBRANCH  14  15
ENDBRANCH  13  14
ENDBRANCH  12  13
ENDBRANCH   1  10
TORSDOF 7
ENDMDL
MODEL 7
REMARK VINA RESULT:      -4.5     10.080     10.810
REMARK  7 active torsions:
REMARK  status: ('A' for Active; 'I' for Inactive)
REMARK    1  A    between atoms: C_7  and  C_3 
REMARK    2  A    between atoms: C_8  and  C_7 
REMARK       I    between atoms: N_12  and  C_8 
REMARK    3  A    between atoms: C_15  and  N_12 
REMARK    4  A    between atoms: C_13  and  C_15 
REMARK    5  A    between atoms: C_16  and  C_13 
REMARK    6  A    between atoms: O_14  and  C_16 
REMARK    7  A    between atoms: C_17  and  O_14 
ROOT
ATOM      1  C   UNL d   1      44.488  27.597  56.972  0.00  0.00     0.082 C 
ENDROOT
BRANCH   1   2
ATOM      2  C   UNL d   1      44.661  27.912  57.719  0.00  0.00     0.096 A 
ATOM      3  C   UNL d   1      45.026  28.651  57.781  0.00  0.00     0.082 A 
ATOM      4  C   UNL d   1      45.204  28.977  58.525  0.00  0.00     0.285 A 
ATOM      5  N   UNL d   1      45.006  28.542  59.201  0.00  0.00    -0.152 NA
ATOM      6  O   UNL d   1      45.565  29.709  58.586  0.00  0.00    -0.265 OA
ATOM      7  C   UNL d   1      44.642  27.802  59.139  0.00  0.00     0.371 A 
ATOM      8  N   UNL d   1      44.471  27.491  58.400  0.00  0.00    -0.191 NA
ATOM      9  O   UNL d   1      44.449  27.377  59.824  0.00  0.00    -0.242 OA
ENDBRANCH   1   2
BRANCH   1  10
ATOM     10  C   UNL d   1      44.917  26.952  56.688  0.00  0.00     0.281 C 
ATOM     11  O   UNL d   1      45.744  26.976  56.678  0.00  0.00    -0.265 OA
ATOM     12  N   UNL d   1      44.519  26.283  56.413  0.00  0.00    -0.206 NA
BRANCH  12  13
ATOM     13  C   UNL d   1      44.948  25.638  56.129  0.00  0.00     0.104 C 
BRANCH  13  14
ATOM     14  C   UNL d   1      44.575  25.072  55.660  0.00  0.00     0.048 C 
BRANCH  14  15
ATOM     15  C   UNL d   1      44.932  24.337  55.541  0.00  0.00     0.124 C 
BRANCH  15  16
ATOM     16  O   UNL d   1      44.867  23.969  54.801  0.00  0.00    -0.303 OA
BRANCH  16  17
ATOM     17  C   UNL d   1      45.038  23.164  54.734  0.00  0.00     0.123 C 
ATOM     18  C   UNL d   1      45.027  22.803  53.992  0.00  0.00     0.029 C 
ENDBRANCH  16  17
ENDBRANCH  15  16
ENDBRANCH  14  15
ENDBRANCH  13  14
ENDBRANCH  12  13
ENDBRANCH   1  10
TORSDOF 7
ENDMDL
MODEL 8
REMARK VINA RESULT:      -4.5     10.047     10.813
REMARK  7 active torsions:
REMARK  status: ('A' for Active; 'I' for Inactive)
REMARK    1  A    between atoms: C_7  and  C_3 
REMARK    2  A    between atoms: C_8  and  C_7 
REMARK       I    between atoms: N_12  and  C_8 
REMARK    3  A    between atoms: C_15  and  N_12 
REMARK    4  A    between atoms: C_13  and  C_15 
REMARK    5  A    between atoms: C_16  and  C_13 
REMARK    6  A    between atoms: O_14  and  C_16 
REMARK    7  A    between atoms: C_17  and  O_14 
ROOT
ATOM      1  C   UNL d   1      44.339  28.648  58.343  0.00  0.00     0.082 C 
ENDROOT
BRANCH   1   2
ATOM      2  C   UNL d   1      44.599  29.343  58.711  0.00  0.00     0.096 A 
ATOM      3  C   UNL d   1      44.868  29.977  58.253  0.00  0.00     0.082 A 
ATOM      4  C   UNL d   1      45.131  30.680  58.610  0.00  0.00     0.285 A 
ATOM      5  N   UNL d   1      45.117  30.727  59.437  0.00  0.00    -0.152 NA
ATOM      6  O   UNL d   1      45.396  31.307  58.157  0.00  0.00    -0.265 OA
ATOM      7  C   UNL d   1      44.849  30.093  59.895  0.00  0.00     0.371 A 
ATOM      8  N   UNL d   1      44.592  29.406  59.531  0.00  0.00    -0.191 NA
ATOM      9  O   UNL d   1      44.840  30.154  60.722  0.00  0.00    -0.242 OA
ENDBRANCH   1   2
BRANCH   1  10
ATOM     10  C   UNL d   1      44.804  27.966  58.375  0.00  0.00     0.281 C 
ATOM     11  O   UNL d   1      45.605  28.001  58.175  0.00  0.00    -0.265 OA
ATOM     12  N   UNL d   1      44.466  27.250  58.608  0.00  0.00    -0.206 NA
BRANCH  12  13
ATOM     13  C   UNL d   1      44.930  26.569  58.640  0.00  0.00     0.104 C 
BRANCH  13  14
ATOM     14  C   UNL d   1      44.598  25.858  58.896  0.00  0.00     0.048 C 
BRANCH  14  15
ATOM     15  C   UNL d   1      44.771  25.157  58.496  0.00  0.00     0.124 C 
BRANCH  15  16
ATOM     16  O   UNL d   1      44.643  24.431  58.875  0.00  0.00    -0.303 OA
BRANCH  16  17
ATOM     17  C   UNL d   1      44.602  23.741  58.424  0.00  0.00     0.123 C 
ATOM     18  C   UNL d   1      44.604  23.005  58.798  0.00  0.00     0.029 C 
ENDBRANCH  16  17
ENDBRANCH  15  16
ENDBRANCH  14  15
ENDBRANCH  13  14
ENDBRANCH  12  13
ENDBRANCH   1  10
TORSDOF 7
ENDMDL
MODEL 9
REMARK VINA RESULT:      -4.4      9.379     10.117
REMARK  7 active torsions:
REMARK  status: ('A' for Active; 'I' for Inactive)
REMARK    1  A    between atoms: C_7  and  C_3 
REMARK    2  A    between atoms: C_8  and  C_7 
REMARK       I    between atoms: N_12  and  C_8 
REMARK    3  A    between atoms: C_15  and  N_12 
REMARK    4  A    between atoms: C_13  and  C_15 
REMARK    5  A    between atoms: C_16  and  C_13 
REMARK    6  A    between atoms: O_14  and  C_16 
REMARK    7  A    between atoms: C_17  and  O_14 
ROOT
ATOM      1  C   UNL d   1      44.516  29.863  58.209  0.00  0.00     0.082 C 
ENDROOT
BRANCH   1   2
ATOM      2  C   UNL d   1      44.529  30.329  57.524  0.00  0.00     0.096 A 
ATOM      3  C   UNL d   1      44.645  31.146  57.582  0.00  0.00     0.082 A 
ATOM      4  C   UNL d   1      44.659  31.623  56.901  0.00  0.00     0.285 A 
ATOM      5  N   UNL d   1      44.555  31.259  56.165  0.00  0.00    -0.152 NA
ATOM      6  O   UNL d   1      44.774  32.431  56.958  0.00  0.00    -0.265 OA
ATOM      7  C   UNL d   1      44.439  30.442  56.107  0.00  0.00     0.371 A 
ATOM      8  N   UNL d   1      44.427  29.982  56.785  0.00  0.00    -0.191 NA
ATOM      9  O   UNL d   1      44.336  30.090  55.364  0.00  0.00    -0.242 OA
ENDBRANCH   1   2
BRANCH   1  10
ATOM     10  C   UNL d   1      44.977  29.180  58.251  0.00  0.00     0.281 C 
ATOM     11  O   UNL d   1      45.788  29.216  58.094  0.00  0.00    -0.265 OA
ATOM     12  N   UNL d   1      44.625  28.460  58.450  0.00  0.00    -0.206 NA
BRANCH  12  13
ATOM     13  C   UNL d   1      45.086  27.776  58.492  0.00  0.00     0.104 C 
BRANCH  13  14
ATOM     14  C   UNL d   1      44.765  27.085  58.808  0.00  0.00     0.048 C 
BRANCH  14  15
ATOM     15  C   UNL d   1      45.043  26.350  58.554  0.00  0.00     0.124 C 
BRANCH  15  16
ATOM     16  O   UNL d   1      44.758  25.661  58.917  0.00  0.00    -0.303 OA
BRANCH  16  17
ATOM     17  C   UNL d   1      44.897  24.930  58.560  0.00  0.00     0.123 C 
ATOM     18  C   UNL d   1      44.437  24.277  58.770  0.00  0.00     0.029 C 
ENDBRANCH  16  17
ENDBRANCH  15  16
ENDBRANCH  14  15
ENDBRANCH  13  14
ENDBRANCH  12  13
ENDBRANCH   1  10
TORSDOF 7
ENDMDL
