MODEL 1
REMARK VINA RESULT:      -4.8      0.000      0.000
REMARK  3 active torsions:
REMARK  status: ('A' for Active; 'I' for Inactive)
REMARK    1  A    between atoms: N_3  and  C_1 
REMARK       I    between atoms: C_5  and  N_3 
REMARK    2  A    between atoms: C_8  and  C_5 
REMARK       I    between atoms: C_11  and  N_12 
REMARK    3  A    between atoms: N_12  and  C_13 
ROOT
ATOM      1  C   UNL d   1      57.376   0.599  31.358  0.00  0.00     0.197 A 
ATOM      2  N   UNL d   1      57.130   0.531  30.577  0.00  0.00    -0.221 NA
ATOM      3  S   UNL d   1      58.190   0.571  31.373  0.00  0.00    -0.047 SA
ATOM      4  C   UNL d   1      58.448   0.486  30.604  0.00  0.00     0.051 A 
ATOM      5  C   UNL d   1      57.787   0.461  30.108  0.00  0.00     0.090 A 
ATOM      6  C   UNL d   1      59.221   0.427  30.287  0.00  0.00     0.027 A 
ATOM      7  C   UNL d   1      59.320   0.344  29.475  0.00  0.00     0.085 A 
ATOM      8  C   UNL d   1      57.896   0.377  29.294  0.00  0.00     0.021 A 
ATOM      9  C   UNL d   1      58.646   0.318  28.970  0.00  0.00     0.021 A 
ENDROOT
BRANCH   1  10
ATOM     10  N   UNL d   1      56.891   0.682  32.024  0.00  0.00    -0.182 NA
ATOM     11  C   UNL d   1      56.584   0.003  32.369  0.00  0.00     0.287 C 
ATOM     12  O   UNL d   1      56.774  -0.750  32.032  0.00  0.00    -0.265 OA
BRANCH  11  13
ATOM     13  C   UNL d   1      56.108   0.050  33.020  0.00  0.00     0.087 A 
ATOM     14  S   UNL d   1      56.078   0.594  33.649  0.00  0.00    -0.082 SA
ATOM     15  C   UNL d   1      55.490   0.381  34.158  0.00  0.00     0.036 A 
ATOM     16  C   UNL d   1      55.134  -0.293  33.875  0.00  0.00     0.008 A 
ATOM     17  C   UNL d   1      55.521  -0.510  33.153  0.00  0.00     0.012 A 
ENDBRANCH  11  13
ENDBRANCH   1  10
BRANCH   7  18
ATOM     18  N   UNL d   1      60.104   0.286  29.173  0.00  0.00    -0.208 NA
ATOM     19  C   UNL d   1      60.359  -0.430  28.817  0.00  0.00     0.279 C 
ATOM     20  O   UNL d   1      61.133  -0.489  28.517  0.00  0.00    -0.265 OA
ATOM     21  C   UNL d   1      59.839  -1.073  28.764  0.00  0.00     0.068 C 
ENDBRANCH   7  18
TORSDOF 3
ENDMDL
MODEL 2
REMARK VINA RESULT:      -2.0      1.927      5.005
REMARK  3 active torsions:
REMARK  status: ('A' for Active; 'I' for Inactive)
REMARK    1  A    between atoms: N_3  and  C_1 
REMARK       I    between atoms: C_5  and  N_3 
REMARK    2  A    between atoms: C_8  and  C_5 
REMARK       I    between atoms: C_11  and  N_12 
REMARK    3  A    between atoms: N_12  and  C_13 
ROOT
ATOM      1  C   UNL d   1      57.217  -1.047  30.848  0.00  0.00     0.197 A 
ATOM      2  N   UNL d   1      56.873  -0.304  30.784  0.00  0.00    -0.221 NA
ATOM      3  S   UNL d   1      57.180  -1.279  31.628  0.00  0.00    -0.047 SA
ATOM      4  C   UNL d   1      56.814  -0.682  32.047  0.00  0.00     0.051 A 
ATOM      5  C   UNL d   1      56.623  -0.074  31.520  0.00  0.00     0.090 A 
ATOM      6  C   UNL d   1      56.628  -0.616  32.860  0.00  0.00     0.027 A 
ATOM      7  C   UNL d   1      56.251   0.062  33.135  0.00  0.00     0.085 A 
ATOM      8  C   UNL d   1      56.245   0.602  31.805  0.00  0.00     0.021 A 
ATOM      9  C   UNL d   1      56.056   0.681  32.598  0.00  0.00     0.021 A 
ENDROOT
BRANCH   1  10
ATOM     10  N   UNL d   1      57.548  -1.494  30.235  0.00  0.00    -0.182 NA
ATOM     11  C   UNL d   1      58.359  -1.453  30.118  0.00  0.00     0.287 C 
ATOM     12  O   UNL d   1      58.822  -0.957  30.625  0.00  0.00    -0.265 OA
BRANCH  11  13
ATOM     13  C   UNL d   1      58.713  -1.877  29.528  0.00  0.00     0.087 A 
ATOM     14  S   UNL d   1      59.170  -1.646  28.873  0.00  0.00    -0.082 SA
ATOM     15  C   UNL d   1      59.387  -2.300  28.455  0.00  0.00     0.036 A 
ATOM     16  C   UNL d   1      59.081  -2.957  28.823  0.00  0.00     0.008 A 
ATOM     17  C   UNL d   1      58.651  -2.697  29.506  0.00  0.00     0.012 A 
ENDBRANCH  11  13
ENDBRANCH   1  10
BRANCH   7  18
ATOM     18  N   UNL d   1      56.071   0.112  33.956  0.00  0.00    -0.208 NA
ATOM     19  C   UNL d   1      55.310   0.372  34.198  0.00  0.00     0.279 C 
ATOM     20  O   UNL d   1      55.130   0.423  35.009  0.00  0.00    -0.265 OA
ATOM     21  C   UNL d   1      54.743   0.576  33.629  0.00  0.00     0.068 C 
ENDBRANCH   7  18
TORSDOF 3
ENDMDL
