MODEL 1
REMARK VINA RESULT:      42.2      0.000      0.000
REMARK  2 active torsions:
REMARK  status: ('A' for Active; 'I' for Inactive)
REMARK    1  A    between atoms: N_10  and  C_5 
REMARK    2  A    between atoms: C_22  and  N_12 
ROOT
ATOM      1  N   UNL d   1      46.246 -18.173  42.080  0.00  0.00    -0.175 N 
ATOM      2  C   UNL d   1      46.388 -18.885  42.485  0.00  0.00     0.167 A 
ATOM      3  N   UNL d   1      46.109 -17.464  42.499  0.00  0.00    -0.143 NA
ATOM      4  C   UNL d   1      46.236 -18.150  41.249  0.00  0.00     0.283 A 
ATOM      5  C   UNL d   1      46.119 -17.488  43.329  0.00  0.00     0.168 A 
ATOM      6  N   UNL d   1      46.520 -19.567  42.057  0.00  0.00    -0.227 NA
ATOM      7  C   UNL d   1      46.373 -18.856  40.836  0.00  0.00     0.076 A 
ATOM      8  C   UNL d   1      46.393 -18.881  43.306  0.00  0.00     0.039 A 
ATOM      9  C   UNL d   1      46.261 -18.199  43.734  0.00  0.00     0.039 A 
ATOM     10  C   UNL d   1      46.515 -19.568  41.241  0.00  0.00     0.088 A 
ATOM     11  O   UNL d   1      46.097 -17.459  40.856  0.00  0.00    -0.265 OA
ATOM     12  C   UNL d   1      46.363 -18.832  40.006  0.00  0.00     0.006 A 
ATOM     13  C   UNL d   1      46.536 -19.593  43.711  0.00  0.00     0.003 A 
ATOM     14  C   UNL d   1      46.266 -18.199  44.549  0.00  0.00     0.003 A 
ATOM     15  C   UNL d   1      46.647 -20.250  40.813  0.00  0.00     0.019 A 
ATOM     16  C   UNL d   1      46.499 -19.539  39.593  0.00  0.00     0.000 A 
ATOM     17  C   UNL d   1      46.539 -19.586  44.523  0.00  0.00     0.000 A 
ATOM     18  C   UNL d   1      46.409 -18.910  44.954  0.00  0.00     0.000 A 
ATOM     19  C   UNL d   1      46.642 -20.250  39.998  0.00  0.00     0.002 A 
ENDROOT
BRANCH   5  20
ATOM     20  N   UNL d   1      45.982 -16.781  43.742  0.00  0.00    -0.285 N 
ATOM     21  C   UNL d   1      45.383 -16.724  44.280  0.00  0.00     0.101 A 
ATOM     22  C   UNL d   1      45.263 -16.019  44.678  0.00  0.00     0.100 A 
ATOM     23  N   UNL d   1      45.744 -15.371  44.538  0.00  0.00    -0.300 N 
ATOM     24  C   UNL d   1      46.343 -15.428  44.000  0.00  0.00     0.100 A 
ATOM     25  C   UNL d   1      46.479 -16.135  43.587  0.00  0.00     0.101 A 
BRANCH  23  26
ATOM     26  C   UNL d   1      45.624 -14.664  44.936  0.00  0.00     0.080 C 
ATOM     27  C   UNL d   1      45.533 -13.966  44.507  0.00  0.00     0.021 C 
ENDBRANCH  23  26
ENDBRANCH   5  20
TORSDOF 2
ENDMDL
