MODEL 1
REMARK VINA RESULT:      -8.6      0.000      0.000
REMARK  5 active torsions:
REMARK  status: ('A' for Active; 'I' for Inactive)
REMARK    1  A    between atoms: C_12  and  N_3 
REMARK    2  A    between atoms: C_10  and  N_7 
REMARK    3  A    between atoms: C_11  and  C_10 
REMARK    4  A    between atoms: C_14  and  C_11 
REMARK    5  A    between atoms: C_19  and  C_12 
ROOT
ATOM      1  C   UNL d   1      51.635  33.644  53.242  0.00  0.00     0.191 A 
ATOM      2  C   UNL d   1      51.624  33.867  52.438  0.00  0.00     0.196 A 
ATOM      3  N   UNL d   1      52.393  33.344  53.405  0.00  0.00    -0.191 N 
ATOM      4  N   UNL d   1      50.965  33.744  53.699  0.00  0.00    -0.204 NA
ATOM      5  N   UNL d   1      52.375  33.701  52.124  0.00  0.00    -0.122 NA
ATOM      6  N   UNL d   1      52.831  33.385  52.716  0.00  0.00    -0.058 NA
ATOM      7  N   UNL d   1      50.265  34.287  52.574  0.00  0.00    -0.251 N 
ATOM      8  C   UNL d   1      50.944  34.185  52.115  0.00  0.00     0.289 A 
ATOM      9  C   UNL d   1      50.276  34.064  53.377  0.00  0.00     0.187 A 
ATOM     10  O   UNL d   1      50.933  34.408  51.312  0.00  0.00    -0.265 OA
ENDROOT
BRANCH   7  11
ATOM     11  C   UNL d   1      49.569  34.610  52.252  0.00  0.00     0.127 C 
BRANCH  11  12
ATOM     12  C   UNL d   1      49.133  35.179  52.675  0.00  0.00     0.213 C 
ATOM     13  O   UNL d   1      49.438  35.494  53.376  0.00  0.00    -0.285 OA
BRANCH  12  14
ATOM     14  C   UNL d   1      48.403  35.423  52.390  0.00  0.00     0.041 A 
ATOM     15  C   UNL d   1      48.132  35.150  51.657  0.00  0.00     0.004 A 
ATOM     16  C   UNL d   1      47.407  35.393  51.377  0.00  0.00     0.011 A 
ATOM     17  C   UNL d   1      46.941  35.911  51.821  0.00  0.00     0.058 A 
ATOM     18  C   UNL d   1      47.211  36.185  52.555  0.00  0.00     0.011 A 
ATOM     19 CL   UNL d   1      46.199  36.160  51.534  0.00  0.00    -0.082 Cl
ATOM     20  C   UNL d   1      47.936  35.940  52.833  0.00  0.00     0.004 A 
ENDBRANCH  12  14
ENDBRANCH  11  12
ENDBRANCH   7  11
BRANCH   3  21
ATOM     21  C   UNL d   1      52.662  33.052  54.143  0.00  0.00     0.104 C 
BRANCH  21  22
ATOM     22  C   UNL d   1      53.437  33.220  54.397  0.00  0.00     0.019 A 
ATOM     23  C   UNL d   1      53.596  33.901  54.834  0.00  0.00     0.002 A 
ATOM     24  C   UNL d   1      54.358  34.048  55.072  0.00  0.00     0.000 A 
ATOM     25  C   UNL d   1      54.969  33.540  54.892  0.00  0.00     0.000 A 
ATOM     26  C   UNL d   1      54.805  32.840  54.443  0.00  0.00     0.000 A 
ATOM     27  C   UNL d   1      54.037  32.691  54.201  0.00  0.00     0.002 A 
ENDBRANCH  21  22
ENDBRANCH   3  21
TORSDOF 5
ENDMDL
MODEL 2
REMARK VINA RESULT:      -7.9      2.223      5.911
REMARK  5 active torsions:
REMARK  status: ('A' for Active; 'I' for Inactive)
REMARK    1  A    between atoms: C_12  and  N_3 
REMARK    2  A    between atoms: C_10  and  N_7 
REMARK    3  A    between atoms: C_11  and  C_10 
REMARK    4  A    between atoms: C_14  and  C_11 
REMARK    5  A    between atoms: C_19  and  C_12 
ROOT
ATOM      1  C   UNL d   1      48.776  35.275  52.525  0.00  0.00     0.191 A 
ATOM      2  C   UNL d   1      49.037  34.893  51.831  0.00  0.00     0.196 A 
ATOM      3  N   UNL d   1      48.029  35.602  52.362  0.00  0.00    -0.191 N 
ATOM      4  N   UNL d   1      49.248  35.270  53.192  0.00  0.00    -0.204 NA
ATOM      5  N   UNL d   1      48.446  34.993  51.255  0.00  0.00    -0.122 NA
ATOM      6  N   UNL d   1      47.843  35.422  51.586  0.00  0.00    -0.058 NA
ATOM      7  N   UNL d   1      50.242  34.509  52.496  0.00  0.00    -0.251 N 
ATOM      8  C   UNL d   1      49.763  34.517  51.825  0.00  0.00     0.289 A 
ATOM      9  C   UNL d   1      49.981  34.891  53.190  0.00  0.00     0.187 A 
ATOM     10  O   UNL d   1      50.024  34.135  51.131  0.00  0.00    -0.265 OA
ENDROOT
BRANCH   7  11
ATOM     11  C   UNL d   1      50.981  34.128  52.498  0.00  0.00     0.127 C 
BRANCH  11  12
ATOM     12  C   UNL d   1      51.199  33.629  53.128  0.00  0.00     0.213 C 
ATOM     13  O   UNL d   1      50.623  33.357  53.654  0.00  0.00    -0.285 OA
BRANCH  12  14
ATOM     14  C   UNL d   1      51.985  33.413  53.220  0.00  0.00     0.041 A 
ATOM     15  C   UNL d   1      52.518  33.933  53.582  0.00  0.00     0.004 A 
ATOM     16  C   UNL d   1      53.297  33.715  53.672  0.00  0.00     0.011 A 
ATOM     17  C   UNL d   1      53.559  32.979  53.404  0.00  0.00     0.058 A 
ATOM     18  C   UNL d   1      53.026  32.458  53.042  0.00  0.00     0.011 A 
ATOM     19 CL   UNL d   1      54.357  32.757  53.496  0.00  0.00    -0.082 Cl
ATOM     20  C   UNL d   1      52.247  32.677  52.953  0.00  0.00     0.004 A 
ENDBRANCH  12  14
ENDBRANCH  11  12
ENDBRANCH   7  11
BRANCH   3  21
ATOM     21  C   UNL d   1      47.552  36.038  52.894  0.00  0.00     0.104 C 
BRANCH  21  22
ATOM     22  C   UNL d   1      46.731  36.092  52.764  0.00  0.00     0.019 A 
ATOM     23  C   UNL d   1      46.424  36.665  52.256  0.00  0.00     0.002 A 
ATOM     24  C   UNL d   1      45.621  36.702  52.143  0.00  0.00     0.000 A 
ATOM     25  C   UNL d   1      45.111  36.189  52.517  0.00  0.00     0.000 A 
ATOM     26  C   UNL d   1      45.427  35.601  53.040  0.00  0.00     0.000 A 
ATOM     27  C   UNL d   1      46.237  35.562  53.155  0.00  0.00     0.002 A 
ENDBRANCH  21  22
ENDBRANCH   3  21
TORSDOF 5
ENDMDL
MODEL 3
REMARK VINA RESULT:      -7.5      2.626      5.720
REMARK  5 active torsions:
REMARK  status: ('A' for Active; 'I' for Inactive)
REMARK    1  A    between atoms: C_12  and  N_3 
REMARK    2  A    between atoms: C_10  and  N_7 
REMARK    3  A    between atoms: C_11  and  C_10 
REMARK    4  A    between atoms: C_14  and  C_11 
REMARK    5  A    between atoms: C_19  and  C_12 
ROOT
ATOM      1  C   UNL d   1      50.615  34.027  53.020  0.00  0.00     0.191 A 
ATOM      2  C   UNL d   1      51.351  34.355  53.236  0.00  0.00     0.196 A 
ATOM      3  N   UNL d   1      50.085  34.657  52.912  0.00  0.00    -0.191 N 
ATOM      4  N   UNL d   1      50.538  33.216  52.954  0.00  0.00    -0.204 NA
ATOM      5  N   UNL d   1      51.257  35.181  53.256  0.00  0.00    -0.122 NA
ATOM      6  N   UNL d   1      50.490  35.352  53.059  0.00  0.00    -0.058 NA
ATOM      7  N   UNL d   1      51.914  33.044  53.314  0.00  0.00    -0.251 N 
ATOM      8  C   UNL d   1      51.988  33.863  53.380  0.00  0.00     0.289 A 
ATOM      9  C   UNL d   1      51.178  32.716  53.098  0.00  0.00     0.187 A 
ATOM     10  O   UNL d   1      52.723  34.192  53.596  0.00  0.00    -0.265 OA
ENDROOT
BRANCH   7  11
ATOM     11  C   UNL d   1      52.556  32.537  53.459  0.00  0.00     0.127 C 
BRANCH  11  12
ATOM     12  C   UNL d   1      52.703  31.887  52.960  0.00  0.00     0.213 C 
ATOM     13  O   UNL d   1      52.611  31.967  52.143  0.00  0.00    -0.285 OA
BRANCH  12  14
ATOM     14  C   UNL d   1      52.938  31.171  53.287  0.00  0.00     0.041 A 
ATOM     15  C   UNL d   1      53.505  31.157  53.890  0.00  0.00     0.004 A 
ATOM     16  C   UNL d   1      53.735  30.446  54.211  0.00  0.00     0.011 A 
ATOM     17  C   UNL d   1      53.407  29.738  53.939  0.00  0.00     0.058 A 
ATOM     18  C   UNL d   1      52.839  29.751  53.336  0.00  0.00     0.011 A 
ATOM     19 CL   UNL d   1      53.643  29.010  54.269  0.00  0.00    -0.082 Cl
ATOM     20  C   UNL d   1      52.609  30.464  53.015  0.00  0.00     0.004 A 
ENDBRANCH  12  14
ENDBRANCH  11  12
ENDBRANCH   7  11
BRANCH   3  21
ATOM     21  C   UNL d   1      49.279  34.594  52.691  0.00  0.00     0.104 C 
BRANCH  21  22
ATOM     22  C   UNL d   1      48.774  35.251  52.777  0.00  0.00     0.019 A 
ATOM     23  C   UNL d   1      48.599  35.550  53.525  0.00  0.00     0.002 A 
ATOM     24  C   UNL d   1      48.104  36.190  53.588  0.00  0.00     0.000 A 
ATOM     25  C   UNL d   1      47.778  36.547  52.933  0.00  0.00     0.000 A 
ATOM     26  C   UNL d   1      47.959  36.240  52.163  0.00  0.00     0.000 A 
ATOM     27  C   UNL d   1      48.457  35.593  52.098  0.00  0.00     0.002 A 
ENDBRANCH  21  22
ENDBRANCH   3  21
TORSDOF 5
ENDMDL
