MODEL 1
REMARK VINA RESULT:      -5.3      0.000      0.000
REMARK  5 active torsions:
REMARK  status: ('A' for Active; 'I' for Inactive)
REMARK    1  A    between atoms: C_11  and  C_1 
REMARK    2  A    between atoms: O_19  and  C_11 
REMARK    3  A    between atoms: C_16  and  N_12 
REMARK    4  A    between atoms: C_18  and  C_16 
REMARK    5  A    between atoms: C_26  and  O_19 
ROOT
ATOM      1  C   UNL d   1     -38.949  13.481  17.418  0.00  0.00     0.088 A 
ATOM      2  C   UNL d   1     -39.539  13.969  17.702  0.00  0.00     0.033 A 
ATOM      3  C   UNL d   1     -39.785  14.136  18.488  0.00  0.00     0.043 A 
ATOM      4  C   UNL d   1     -39.915  14.325  17.061  0.00  0.00     0.100 A 
ATOM      5  C   UNL d   1     -38.961  13.537  16.580  0.00  0.00     0.105 A 
ATOM      6  O   UNL d   1     -39.563  14.063  16.368  0.00  0.00    -0.307 OA
ATOM      7  C   UNL d   1     -40.407  14.661  18.608  0.00  0.00     0.103 A 
ATOM      8  O   UNL d   1     -40.659  14.834  19.381  0.00  0.00    -0.288 OA
ATOM      9  C   UNL d   1     -40.543  14.854  17.199  0.00  0.00     0.025 A 
ATOM     10  C   UNL d   1     -40.786  15.019  17.974  0.00  0.00     0.025 A 
ATOM     11  N   UNL d   1     -39.657  13.949  19.889  0.00  0.00    -0.282 N 
ATOM     12  C   UNL d   1     -39.411  13.782  19.116  0.00  0.00     0.084 A 
ATOM     13  C   UNL d   1     -40.282  14.476  20.020  0.00  0.00     0.209 A 
ATOM     14  C   UNL d   1     -38.457  13.135  16.063  0.00  0.00     0.027 C 
ATOM     15  C   UNL d   1     -40.919  15.210  16.558  0.00  0.00     0.002 A 
ATOM     16  C   UNL d   1     -41.405  15.540  18.108  0.00  0.00     0.002 A 
ATOM     17  C   UNL d   1     -41.544  15.736  16.698  0.00  0.00     0.000 A 
ATOM     18  C   UNL d   1     -41.785  15.900  17.467  0.00  0.00     0.000 A 
ENDROOT
BRANCH  11  19
ATOM     19  C   UNL d   1     -39.287  13.599  20.529  0.00  0.00     0.084 C 
BRANCH  19  20
ATOM     20  C   UNL d   1     -39.247  14.003  21.254  0.00  0.00     0.037 A 
ATOM     21  C   UNL d   1     -39.583  13.668  21.932  0.00  0.00     0.100 A 
ATOM     22  N   UNL d   1     -39.542  14.069  22.645  0.00  0.00    -0.242 NA
ATOM     23  C   UNL d   1     -39.169  14.802  22.692  0.00  0.00     0.099 A 
ATOM     24  C   UNL d   1     -38.838  15.129  22.017  0.00  0.00     0.021 A 
ATOM     25  C   UNL d   1     -38.874  14.733  21.295  0.00  0.00     0.005 A 
ENDBRANCH  19  20
ENDBRANCH  11  19
BRANCH   1  26
ATOM     26  C   UNL d   1     -38.444  13.024  17.874  0.00  0.00     0.302 C 
ATOM     27  O   UNL d   1     -37.940  13.370  18.416  0.00  0.00    -0.259 OA
BRANCH  26  28
ATOM     28  O   UNL d   1     -38.439  12.197  17.787  0.00  0.00    -0.271 OA
BRANCH  28  29
ATOM     29  C   UNL d   1     -38.031  11.744  18.329  0.00  0.00     0.126 C 
ATOM     30  C   UNL d   1     -37.942  10.936  18.210  0.00  0.00     0.029 C 
ENDBRANCH  28  29
ENDBRANCH  26  28
ENDBRANCH   1  26
TORSDOF 5
ENDMDL
MODEL 2
REMARK VINA RESULT:      -4.7      8.907     10.178
REMARK  5 active torsions:
REMARK  status: ('A' for Active; 'I' for Inactive)
REMARK    1  A    between atoms: C_11  and  C_1 
REMARK    2  A    between atoms: O_19  and  C_11 
REMARK    3  A    between atoms: C_16  and  N_12 
REMARK    4  A    between atoms: C_18  and  C_16 
REMARK    5  A    between atoms: C_26  and  O_19 
ROOT
ATOM      1  C   UNL d   1     -49.561  12.227  23.169  0.00  0.00     0.088 A 
ATOM      2  C   UNL d   1     -49.408  13.026  23.100  0.00  0.00     0.033 A 
ATOM      3  C   UNL d   1     -48.742  13.435  22.792  0.00  0.00     0.043 A 
ATOM      4  C   UNL d   1     -50.053  13.443  23.401  0.00  0.00     0.100 A 
ATOM      5  C   UNL d   1     -50.319  12.147  23.521  0.00  0.00     0.105 A 
ATOM      6  O   UNL d   1     -50.616  12.907  23.662  0.00  0.00    -0.307 OA
ATOM      7  C   UNL d   1     -48.742  14.258  22.794  0.00  0.00     0.103 A 
ATOM      8  O   UNL d   1     -48.089  14.673  22.492  0.00  0.00    -0.288 OA
ATOM      9  C   UNL d   1     -50.038  14.276  23.397  0.00  0.00     0.025 A 
ATOM     10  C   UNL d   1     -49.381  14.679  23.093  0.00  0.00     0.025 A 
ATOM     11  N   UNL d   1     -47.455  13.426  22.193  0.00  0.00    -0.282 N 
ATOM     12  C   UNL d   1     -48.110  13.019  22.496  0.00  0.00     0.084 A 
ATOM     13  C   UNL d   1     -47.446  14.254  22.191  0.00  0.00     0.209 A 
ATOM     14  C   UNL d   1     -50.698  11.434  23.695  0.00  0.00     0.027 C 
ATOM     15  C   UNL d   1     -50.682  14.692  23.698  0.00  0.00     0.002 A 
ATOM     16  C   UNL d   1     -49.368  15.499  23.089  0.00  0.00     0.002 A 
ATOM     17  C   UNL d   1     -50.665  15.520  23.692  0.00  0.00     0.000 A 
ATOM     18  C   UNL d   1     -50.013  15.921  23.390  0.00  0.00     0.000 A 
ENDROOT
BRANCH  11  19
ATOM     19  C   UNL d   1     -46.813  13.017  21.893  0.00  0.00     0.084 C 
BRANCH  19  20
ATOM     20  C   UNL d   1     -46.043  13.280  22.061  0.00  0.00     0.037 A 
ATOM     21  C   UNL d   1     -45.838  14.069  21.927  0.00  0.00     0.100 A 
ATOM     22  N   UNL d   1     -45.078  14.325  22.093  0.00  0.00    -0.242 NA
ATOM     23  C   UNL d   1     -44.517  13.802  22.393  0.00  0.00     0.099 A 
ATOM     24  C   UNL d   1     -44.725  13.021  22.525  0.00  0.00     0.021 A 
ATOM     25  C   UNL d   1     -45.488  12.754  22.360  0.00  0.00     0.005 A 
ENDBRANCH  19  20
ENDBRANCH  11  19
BRANCH   1  26
ATOM     26  C   UNL d   1     -49.062  11.621  22.935  0.00  0.00     0.302 C 
ATOM     27  O   UNL d   1     -49.066  11.348  22.165  0.00  0.00    -0.259 OA
BRANCH  26  28
ATOM     28  O   UNL d   1     -48.541  11.276  23.484  0.00  0.00    -0.271 OA
BRANCH  28  29
ATOM     29  C   UNL d   1     -48.160  10.582  23.288  0.00  0.00     0.126 C 
ATOM     30  C   UNL d   1     -47.488  10.348  23.697  0.00  0.00     0.029 C 
ENDBRANCH  28  29
ENDBRANCH  26  28
ENDBRANCH   1  26
TORSDOF 5
ENDMDL
MODEL 3
REMARK VINA RESULT:      -4.5      2.136      3.483
REMARK  5 active torsions:
REMARK  status: ('A' for Active; 'I' for Inactive)
REMARK    1  A    between atoms: C_11  and  C_1 
REMARK    2  A    between atoms: O_19  and  C_11 
REMARK    3  A    between atoms: C_16  and  N_12 
REMARK    4  A    between atoms: C_18  and  C_16 
REMARK    5  A    between atoms: C_26  and  O_19 
ROOT
ATOM      1  C   UNL d   1     -39.191  15.138  20.740  0.00  0.00     0.088 A 
ATOM      2  C   UNL d   1     -39.676  14.939  20.114  0.00  0.00     0.033 A 
ATOM      3  C   UNL d   1     -40.383  14.488  20.086  0.00  0.00     0.043 A 
ATOM      4  C   UNL d   1     -39.361  15.267  19.426  0.00  0.00     0.100 A 
ATOM      5  C   UNL d   1     -38.561  15.601  20.432  0.00  0.00     0.105 A 
ATOM      6  O   UNL d   1     -38.675  15.675  19.616  0.00  0.00    -0.307 OA
ATOM      7  C   UNL d   1     -40.758  14.377  19.363  0.00  0.00     0.103 A 
ATOM      8  O   UNL d   1     -41.459  13.932  19.324  0.00  0.00    -0.288 OA
ATOM      9  C   UNL d   1     -39.753  15.146  18.701  0.00  0.00     0.025 A 
ATOM     10  C   UNL d   1     -40.450  14.701  18.674  0.00  0.00     0.025 A 
ATOM     11  N   UNL d   1     -41.386  13.723  20.736  0.00  0.00    -0.282 N 
ATOM     12  C   UNL d   1     -40.689  14.167  20.767  0.00  0.00     0.084 A 
ATOM     13  C   UNL d   1     -41.771  13.606  20.012  0.00  0.00     0.209 A 
ATOM     14  C   UNL d   1     -37.940  15.922  20.871  0.00  0.00     0.027 C 
ATOM     15  C   UNL d   1     -39.438  15.475  18.013  0.00  0.00     0.002 A 
ATOM     16  C   UNL d   1     -40.835  14.583  17.959  0.00  0.00     0.002 A 
ATOM     17  C   UNL d   1     -39.830  15.353  17.293  0.00  0.00     0.000 A 
ATOM     18  C   UNL d   1     -40.523  14.910  17.266  0.00  0.00     0.000 A 
ENDROOT
BRANCH  11  19
ATOM     19  C   UNL d   1     -41.702  13.395  21.416  0.00  0.00     0.084 C 
BRANCH  19  20
ATOM     20  C   UNL d   1     -42.515  13.223  21.451  0.00  0.00     0.037 A 
ATOM     21  C   UNL d   1     -42.770  12.437  21.478  0.00  0.00     0.100 A 
ATOM     22  N   UNL d   1     -43.571  12.272  21.512  0.00  0.00    -0.242 NA
ATOM     23  C   UNL d   1     -44.124  12.882  21.521  0.00  0.00     0.099 A 
ATOM     24  C   UNL d   1     -43.867  13.659  21.495  0.00  0.00     0.021 A 
ATOM     25  C   UNL d   1     -43.062  13.836  21.460  0.00  0.00     0.005 A 
ENDBRANCH  19  20
ENDBRANCH  11  19
BRANCH   1  26
ATOM     26  C   UNL d   1     -39.305  14.922  21.522  0.00  0.00     0.302 C 
ATOM     27  O   UNL d   1     -39.809  15.346  22.006  0.00  0.00    -0.259 OA
BRANCH  26  28
ATOM     28  O   UNL d   1     -38.906  14.262  21.834  0.00  0.00    -0.271 OA
BRANCH  28  29
ATOM     29  C   UNL d   1     -38.627  14.293  22.600  0.00  0.00     0.126 C 
ATOM     30  C   UNL d   1     -38.393  13.606  22.984  0.00  0.00     0.029 C 
ENDBRANCH  28  29
ENDBRANCH  26  28
ENDBRANCH   1  26
TORSDOF 5
ENDMDL
MODEL 4
REMARK VINA RESULT:      -4.4      1.978      3.858
REMARK  5 active torsions:
REMARK  status: ('A' for Active; 'I' for Inactive)
REMARK    1  A    between atoms: C_11  and  C_1 
REMARK    2  A    between atoms: O_19  and  C_11 
REMARK    3  A    between atoms: C_16  and  N_12 
REMARK    4  A    between atoms: C_18  and  C_16 
REMARK    5  A    between atoms: C_26  and  O_19 
ROOT
ATOM      1  C   UNL d   1     -39.347  15.034  19.138  0.00  0.00     0.088 A 
ATOM      2  C   UNL d   1     -39.420  15.049  19.951  0.00  0.00     0.033 A 
ATOM      3  C   UNL d   1     -40.036  14.778  20.454  0.00  0.00     0.043 A 
ATOM      4  C   UNL d   1     -38.745  15.402  20.267  0.00  0.00     0.100 A 
ATOM      5  C   UNL d   1     -38.609  15.385  18.946  0.00  0.00     0.105 A 
ATOM      6  O   UNL d   1     -38.243  15.610  19.653  0.00  0.00    -0.307 OA
ATOM      7  C   UNL d   1     -39.955  14.869  21.267  0.00  0.00     0.103 A 
ATOM      8  O   UNL d   1     -40.558  14.605  21.775  0.00  0.00    -0.288 OA
ATOM      9  C   UNL d   1     -38.679  15.486  21.093  0.00  0.00     0.025 A 
ATOM     10  C   UNL d   1     -39.285  15.219  21.589  0.00  0.00     0.025 A 
ATOM     11  N   UNL d   1     -41.303  14.166  20.636  0.00  0.00    -0.282 N 
ATOM     12  C   UNL d   1     -40.699  14.432  20.137  0.00  0.00     0.084 A 
ATOM     13  C   UNL d   1     -41.231  14.253  21.457  0.00  0.00     0.209 A 
ATOM     14  C   UNL d   1     -38.306  15.486  18.184  0.00  0.00     0.027 C 
ATOM     15  C   UNL d   1     -38.004  15.839  21.408  0.00  0.00     0.002 A 
ATOM     16  C   UNL d   1     -39.218  15.304  22.402  0.00  0.00     0.002 A 
ATOM     17  C   UNL d   1     -37.940  15.922  22.230  0.00  0.00     0.000 A 
ATOM     18  C   UNL d   1     -38.543  15.656  22.724  0.00  0.00     0.000 A 
ENDROOT
BRANCH  11  19
ATOM     19  C   UNL d   1     -41.975  13.816  20.327  0.00  0.00     0.084 C 
BRANCH  19  20
ATOM     20  C   UNL d   1     -42.497  13.412  20.831  0.00  0.00     0.037 A 
ATOM     21  C   UNL d   1     -42.311  12.650  21.094  0.00  0.00     0.100 A 
ATOM     22  N   UNL d   1     -42.827  12.254  21.591  0.00  0.00    -0.242 NA
ATOM     23  C   UNL d   1     -43.531  12.608  21.830  0.00  0.00     0.099 A 
ATOM     24  C   UNL d   1     -43.712  13.363  21.567  0.00  0.00     0.021 A 
ATOM     25  C   UNL d   1     -43.198  13.770  21.067  0.00  0.00     0.005 A 
ENDBRANCH  19  20
ENDBRANCH  11  19
BRANCH   1  26
ATOM     26  C   UNL d   1     -39.898  14.730  18.612  0.00  0.00     0.302 C 
ATOM     27  O   UNL d   1     -39.943  13.927  18.470  0.00  0.00    -0.259 OA
BRANCH  26  28
ATOM     28  O   UNL d   1     -40.421  15.242  18.216  0.00  0.00    -0.271 OA
BRANCH  28  29
ATOM     29  C   UNL d   1     -40.706  15.027  17.482  0.00  0.00     0.126 C 
ATOM     30  C   UNL d   1     -41.242  15.509  17.089  0.00  0.00     0.029 C 
ENDBRANCH  28  29
ENDBRANCH  26  28
ENDBRANCH   1  26
TORSDOF 5
ENDMDL
MODEL 5
REMARK VINA RESULT:      -3.7      1.433      2.223
REMARK  5 active torsions:
REMARK  status: ('A' for Active; 'I' for Inactive)
REMARK    1  A    between atoms: C_11  and  C_1 
REMARK    2  A    between atoms: O_19  and  C_11 
REMARK    3  A    between atoms: C_16  and  N_12 
REMARK    4  A    between atoms: C_18  and  C_16 
REMARK    5  A    between atoms: C_26  and  O_19 
ROOT
ATOM      1  C   UNL d   1     -39.495  14.398  18.840  0.00  0.00     0.088 A 
ATOM      2  C   UNL d   1     -39.914  14.689  19.478  0.00  0.00     0.033 A 
ATOM      3  C   UNL d   1     -39.711  14.748  20.291  0.00  0.00     0.043 A 
ATOM      4  C   UNL d   1     -40.648  14.952  19.210  0.00  0.00     0.100 A 
ATOM      5  C   UNL d   1     -39.982  14.482  18.161  0.00  0.00     0.105 A 
ATOM      6  O   UNL d   1     -40.695  14.827  18.401  0.00  0.00    -0.307 OA
ATOM      7  C   UNL d   1     -40.255  15.072  20.816  0.00  0.00     0.103 A 
ATOM      8  O   UNL d   1     -40.064  15.135  21.622  0.00  0.00    -0.288 OA
ATOM      9  C   UNL d   1     -41.188  15.277  19.754  0.00  0.00     0.025 A 
ATOM     10  C   UNL d   1     -40.987  15.336  20.555  0.00  0.00     0.025 A 
ATOM     11  N   UNL d   1     -38.789  14.547  21.351  0.00  0.00    -0.282 N 
ATOM     12  C   UNL d   1     -38.986  14.487  20.549  0.00  0.00     0.084 A 
ATOM     13  C   UNL d   1     -39.330  14.872  21.888  0.00  0.00     0.209 A 
ATOM     14  C   UNL d   1     -39.780  14.259  17.392  0.00  0.00     0.027 C 
ATOM     15  C   UNL d   1     -41.922  15.540  19.486  0.00  0.00     0.002 A 
ATOM     16  C   UNL d   1     -41.520  15.657  21.090  0.00  0.00     0.002 A 
ATOM     17  C   UNL d   1     -42.457  15.864  20.029  0.00  0.00     0.000 A 
ATOM     18  C   UNL d   1     -42.258  15.922  20.826  0.00  0.00     0.000 A 
ENDROOT
BRANCH  11  19
ATOM     19  C   UNL d   1     -38.062  14.287  21.622  0.00  0.00     0.084 C 
BRANCH  19  20
ATOM     20  C   UNL d   1     -38.025  13.775  22.275  0.00  0.00     0.037 A 
ATOM     21  C   UNL d   1     -38.036  12.956  22.158  0.00  0.00     0.100 A 
ATOM     22  N   UNL d   1     -38.000  12.453  22.803  0.00  0.00    -0.242 NA
ATOM     23  C   UNL d   1     -37.952  12.757  23.568  0.00  0.00     0.099 A 
ATOM     24  C   UNL d   1     -37.941  13.569  23.678  0.00  0.00     0.021 A 
ATOM     25  C   UNL d   1     -37.977  14.083  23.035  0.00  0.00     0.005 A 
ENDBRANCH  19  20
ENDBRANCH  11  19
BRANCH   1  26
ATOM     26  C   UNL d   1     -38.739  14.082  18.867  0.00  0.00     0.302 C 
ATOM     27  O   UNL d   1     -38.082  14.566  18.854  0.00  0.00    -0.259 OA
BRANCH  26  28
ATOM     28  O   UNL d   1     -38.634  13.258  18.909  0.00  0.00    -0.271 OA
BRANCH  28  29
ATOM     29  C   UNL d   1     -37.945  12.931  18.619  0.00  0.00     0.126 C 
ATOM     30  C   UNL d   1     -37.971  12.249  18.162  0.00  0.00     0.029 C 
ENDBRANCH  28  29
ENDBRANCH  26  28
ENDBRANCH   1  26
TORSDOF 5
ENDMDL
MODEL 6
REMARK VINA RESULT:      -3.4      8.614     10.039
REMARK  5 active torsions:
REMARK  status: ('A' for Active; 'I' for Inactive)
REMARK    1  A    between atoms: C_11  and  C_1 
REMARK    2  A    between atoms: O_19  and  C_11 
REMARK    3  A    between atoms: C_16  and  N_12 
REMARK    4  A    between atoms: C_18  and  C_16 
REMARK    5  A    between atoms: C_26  and  O_19 
ROOT
ATOM      1  C   UNL d   1     -47.911  11.870  22.969  0.00  0.00     0.088 A 
ATOM      2  C   UNL d   1     -47.474  12.523  22.745  0.00  0.00     0.033 A 
ATOM      3  C   UNL d   1     -47.714  13.280  22.473  0.00  0.00     0.043 A 
ATOM      4  C   UNL d   1     -46.674  12.340  22.823  0.00  0.00     0.100 A 
ATOM      5  C   UNL d   1     -47.368  11.270  23.191  0.00  0.00     0.105 A 
ATOM      6  O   UNL d   1     -46.603  11.570  23.097  0.00  0.00    -0.307 OA
ATOM      7  C   UNL d   1     -47.140  13.838  22.285  0.00  0.00     0.103 A 
ATOM      8  O   UNL d   1     -47.366  14.590  22.015  0.00  0.00    -0.288 OA
ATOM      9  C   UNL d   1     -46.104  12.916  22.629  0.00  0.00     0.025 A 
ATOM     10  C   UNL d   1     -46.341  13.662  22.361  0.00  0.00     0.025 A 
ATOM     11  N   UNL d   1     -48.737  14.202  22.130  0.00  0.00    -0.282 N 
ATOM     12  C   UNL d   1     -48.504  13.454  22.398  0.00  0.00     0.084 A 
ATOM     13  C   UNL d   1     -48.166  14.770  21.938  0.00  0.00     0.209 A 
ATOM     14  C   UNL d   1     -47.567  10.513  23.456  0.00  0.00     0.027 C 
ATOM     15  C   UNL d   1     -45.304  12.733  22.707  0.00  0.00     0.002 A 
ATOM     16  C   UNL d   1     -45.778  14.228  22.170  0.00  0.00     0.002 A 
ATOM     17  C   UNL d   1     -44.739  13.307  22.513  0.00  0.00     0.000 A 
ATOM     18  C   UNL d   1     -44.974  14.049  22.246  0.00  0.00     0.000 A 
ENDROOT
BRANCH  11  19
ATOM     19  C   UNL d   1     -49.530  14.388  22.051  0.00  0.00     0.084 C 
BRANCH  19  20
ATOM     20  C   UNL d   1     -49.890  14.900  22.598  0.00  0.00     0.037 A 
ATOM     21  C   UNL d   1     -50.711  14.890  22.695  0.00  0.00     0.100 A 
ATOM     22  N   UNL d   1     -51.062  15.395  23.235  0.00  0.00    -0.242 NA
ATOM     23  C   UNL d   1     -50.603  15.913  23.682  0.00  0.00     0.099 A 
ATOM     24  C   UNL d   1     -49.790  15.919  23.583  0.00  0.00     0.021 A 
ATOM     25  C   UNL d   1     -49.427  15.414  23.041  0.00  0.00     0.005 A 
ENDBRANCH  19  20
ENDBRANCH  11  19
BRANCH   1  26
ATOM     26  C   UNL d   1     -48.729  11.820  22.974  0.00  0.00     0.302 C 
ATOM     27  O   UNL d   1     -49.151  11.787  22.275  0.00  0.00    -0.259 OA
BRANCH  26  28
ATOM     28  O   UNL d   1     -49.140  11.801  23.697  0.00  0.00    -0.271 OA
BRANCH  28  29
ATOM     29  C   UNL d   1     -49.947  11.678  23.691  0.00  0.00     0.126 C 
ATOM     30  C   UNL d   1     -50.257  10.978  23.393  0.00  0.00     0.029 C 
ENDBRANCH  28  29
ENDBRANCH  26  28
ENDBRANCH   1  26
TORSDOF 5
ENDMDL
MODEL 7
REMARK VINA RESULT:      -2.8      8.233      9.576
REMARK  5 active torsions:
REMARK  status: ('A' for Active; 'I' for Inactive)
REMARK    1  A    between atoms: C_11  and  C_1 
REMARK    2  A    between atoms: O_19  and  C_11 
REMARK    3  A    between atoms: C_16  and  N_12 
REMARK    4  A    between atoms: C_18  and  C_16 
REMARK    5  A    between atoms: C_26  and  O_19 
ROOT
ATOM      1  C   UNL d   1     -49.127  12.494  22.587  0.00  0.00     0.088 A 
ATOM      2  C   UNL d   1     -48.508  13.026  22.607  0.00  0.00     0.033 A 
ATOM      3  C   UNL d   1     -47.714  12.938  22.863  0.00  0.00     0.043 A 
ATOM      4  C   UNL d   1     -48.776  13.748  22.312  0.00  0.00     0.100 A 
ATOM      5  C   UNL d   1     -49.794  12.896  22.273  0.00  0.00     0.105 A 
ATOM      6  O   UNL d   1     -49.566  13.673  22.106  0.00  0.00    -0.307 OA
ATOM      7  C   UNL d   1     -47.206  13.583  22.817  0.00  0.00     0.103 A 
ATOM      8  O   UNL d   1     -46.417  13.507  23.068  0.00  0.00    -0.288 OA
ATOM      9  C   UNL d   1     -48.249  14.392  22.272  0.00  0.00     0.025 A 
ATOM     10  C   UNL d   1     -47.466  14.305  22.525  0.00  0.00     0.025 A 
ATOM     11  N   UNL d   1     -46.672  12.141  23.404  0.00  0.00    -0.282 N 
ATOM     12  C   UNL d   1     -47.456  12.224  23.152  0.00  0.00     0.084 A 
ATOM     13  C   UNL d   1     -46.152  12.785  23.362  0.00  0.00     0.209 A 
ATOM     14  C   UNL d   1     -50.543  12.569  22.154  0.00  0.00     0.027 C 
ATOM     15  C   UNL d   1     -48.517  15.114  21.978  0.00  0.00     0.002 A 
ATOM     16  C   UNL d   1     -46.948  14.940  22.485  0.00  0.00     0.002 A 
ATOM     17  C   UNL d   1     -47.991  15.753  21.939  0.00  0.00     0.000 A 
ATOM     18  C   UNL d   1     -47.212  15.667  22.190  0.00  0.00     0.000 A 
ENDROOT
BRANCH  11  19
ATOM     19  C   UNL d   1     -46.401  11.426  23.697  0.00  0.00     0.084 C 
BRANCH  19  20
ATOM     20  C   UNL d   1     -45.643  11.157  23.490  0.00  0.00     0.037 A 
ATOM     21  C   UNL d   1     -45.082  11.688  23.195  0.00  0.00     0.100 A 
ATOM     22  N   UNL d   1     -44.336  11.419  22.992  0.00  0.00    -0.242 NA
ATOM     23  C   UNL d   1     -44.140  10.624  23.078  0.00  0.00     0.099 A 
ATOM     24  C   UNL d   1     -44.699  10.101  23.370  0.00  0.00     0.021 A 
ATOM     25  C   UNL d   1     -45.453  10.362  23.578  0.00  0.00     0.005 A 
ENDBRANCH  19  20
ENDBRANCH  11  19
BRANCH   1  26
ATOM     26  C   UNL d   1     -49.095  11.712  22.831  0.00  0.00     0.302 C 
ATOM     27  O   UNL d   1     -48.737  11.142  22.368  0.00  0.00    -0.259 OA
BRANCH  26  28
ATOM     28  O   UNL d   1     -49.430  11.489  23.559  0.00  0.00    -0.271 OA
BRANCH  28  29
ATOM     29  C   UNL d   1     -49.625  10.707  23.683  0.00  0.00     0.126 C 
ATOM     30  C   UNL d   1     -50.413  10.474  23.698  0.00  0.00     0.029 C 
ENDBRANCH  28  29
ENDBRANCH  26  28
ENDBRANCH   1  26
TORSDOF 5
ENDMDL
MODEL 8
REMARK VINA RESULT:      -2.4      8.446     10.169
REMARK  5 active torsions:
REMARK  status: ('A' for Active; 'I' for Inactive)
REMARK    1  A    between atoms: C_11  and  C_1 
REMARK    2  A    between atoms: O_19  and  C_11 
REMARK    3  A    between atoms: C_16  and  N_12 
REMARK    4  A    between atoms: C_18  and  C_16 
REMARK    5  A    between atoms: C_26  and  O_19 
ROOT
ATOM      1  C   UNL d   1     -46.841  13.772  22.989  0.00  0.00     0.088 A 
ATOM      2  C   UNL d   1     -46.897  12.979  23.176  0.00  0.00     0.033 A 
ATOM      3  C   UNL d   1     -47.564  12.500  23.351  0.00  0.00     0.043 A 
ATOM      4  C   UNL d   1     -46.138  12.656  23.173  0.00  0.00     0.100 A 
ATOM      5  C   UNL d   1     -46.028  13.944  22.869  0.00  0.00     0.105 A 
ATOM      6  O   UNL d   1     -45.600  13.246  22.985  0.00  0.00    -0.307 OA
ATOM      7  C   UNL d   1     -47.450  11.703  23.521  0.00  0.00     0.103 A 
ATOM      8  O   UNL d   1     -48.103  11.220  23.697  0.00  0.00    -0.288 OA
ATOM      9  C   UNL d   1     -46.039  11.848  23.348  0.00  0.00     0.025 A 
ATOM     10  C   UNL d   1     -46.697  11.376  23.521  0.00  0.00     0.025 A 
ATOM     11  N   UNL d   1     -48.964  12.348  23.525  0.00  0.00    -0.282 N 
ATOM     12  C   UNL d   1     -48.309  12.823  23.352  0.00  0.00     0.084 A 
ATOM     13  C   UNL d   1     -48.860  11.545  23.698  0.00  0.00     0.209 A 
ATOM     14  C   UNL d   1     -45.716  14.682  22.670  0.00  0.00     0.027 C 
ATOM     15  C   UNL d   1     -45.281  11.525  23.346  0.00  0.00     0.002 A 
ATOM     16  C   UNL d   1     -46.597  10.579  23.693  0.00  0.00     0.002 A 
ATOM     17  C   UNL d   1     -45.184  10.721  23.520  0.00  0.00     0.000 A 
ATOM     18  C   UNL d   1     -45.838  10.251  23.692  0.00  0.00     0.000 A 
ENDROOT
BRANCH  11  19
ATOM     19  C   UNL d   1     -49.719  12.663  23.529  0.00  0.00     0.084 C 
BRANCH  19  20
ATOM     20  C   UNL d   1     -50.145  12.719  22.817  0.00  0.00     0.037 A 
ATOM     21  C   UNL d   1     -50.066  12.132  22.241  0.00  0.00     0.100 A 
ATOM     22  N   UNL d   1     -50.487  12.190  21.541  0.00  0.00    -0.242 NA
ATOM     23  C   UNL d   1     -50.989  12.829  21.407  0.00  0.00     0.099 A 
ATOM     24  C   UNL d   1     -51.064  13.409  21.981  0.00  0.00     0.021 A 
ATOM     25  C   UNL d   1     -50.644  13.359  22.689  0.00  0.00     0.005 A 
ENDBRANCH  19  20
ENDBRANCH  11  19
BRANCH   1  26
ATOM     26  C   UNL d   1     -47.468  14.296  22.932  0.00  0.00     0.302 C 
ATOM     27  O   UNL d   1     -47.890  14.520  23.595  0.00  0.00    -0.259 OA
BRANCH  26  28
ATOM     28  O   UNL d   1     -47.683  14.609  22.191  0.00  0.00    -0.271 OA
BRANCH  28  29
ATOM     29  C   UNL d   1     -48.065  15.329  22.160  0.00  0.00     0.126 C 
ATOM     30  C   UNL d   1     -48.347  15.618  21.445  0.00  0.00     0.029 C 
ENDBRANCH  28  29
ENDBRANCH  26  28
ENDBRANCH   1  26
TORSDOF 5
ENDMDL
