MODEL 1
REMARK VINA RESULT:      -6.2      0.000      0.000
REMARK  6 active torsions:
REMARK  status: ('A' for Active; 'I' for Inactive)
REMARK       I    between atoms: C_2  and  N_1 
REMARK    1  A    between atoms: C_15  and  C_2 
REMARK    2  A    between atoms: C_3  and  C_4 
REMARK    3  A    between atoms: C_9  and  O_14 
REMARK    4  A    between atoms: O_14  and  C_21 
REMARK    5  A    between atoms: C_22  and  C_15 
REMARK    6  A    between atoms: C_21  and  C_22 
ROOT
ATOM      1  O   UNL d   1     -47.336  14.141  22.767  0.00  0.00    -0.305 OA
ENDROOT
BRANCH   1   2
ATOM      2  C   UNL d   1     -48.139  14.311  22.749  0.00  0.00     0.100 A 
ATOM      3  C   UNL d   1     -48.697  13.714  22.886  0.00  0.00     0.024 A 
ATOM      4  C   UNL d   1     -49.501  13.871  22.870  0.00  0.00    -0.002 A 
ATOM      5  C   UNL d   1     -49.766  14.649  22.713  0.00  0.00    -0.023 A 
ATOM      6  C   UNL d   1     -49.220  15.247  22.577  0.00  0.00    -0.002 A 
ATOM      7  C   UNL d   1     -48.404  15.089  22.592  0.00  0.00     0.024 A 
BRANCH   5   8
ATOM      8  C   UNL d   1     -50.571  14.810  22.697  0.00  0.00     0.019 C 
ATOM      9  C   UNL d   1     -51.039  14.527  22.085  0.00  0.00     0.004 C 
ATOM     10  C   UNL d   1     -50.913  15.262  23.302  0.00  0.00     0.004 C 
ATOM     11  C   UNL d   1     -50.431  14.357  22.020  0.00  0.00     0.004 C 
ENDBRANCH   5   8
ENDBRANCH   1   2
BRANCH   1  12
ATOM     12  C   UNL d   1     -47.076  13.380  22.567  0.00  0.00     0.123 C 
BRANCH  12  13
ATOM     13  C   UNL d   1     -46.269  13.210  22.577  0.00  0.00     0.032 C 
BRANCH  13  14
ATOM     14  C   UNL d   1     -46.017  12.441  22.725  0.00  0.00     0.063 C 
BRANCH  14  15
ATOM     15  C   UNL d   1     -45.211  12.263  22.685  0.00  0.00     0.265 C 
ATOM     16  N   UNL d   1     -44.927  11.556  23.010  0.00  0.00    -0.268 N 
ATOM     17  C   UNL d   1     -44.125  11.368  22.976  0.00  0.00     0.110 A 
ATOM     18  C   UNL d   1     -45.461  11.027  23.377  0.00  0.00     0.110 A 
ATOM     19  C   UNL d   1     -43.851  10.669  23.299  0.00  0.00     0.142 A 
ATOM     20  O   UNL d   1     -44.385  10.140  23.666  0.00  0.00    -0.300 OA
ATOM     21  C   UNL d   1     -45.176  10.328  23.698  0.00  0.00     0.142 A 
ATOM     22  O   UNL d   1     -44.682  12.787  22.321  0.00  0.00    -0.267 OA
ENDBRANCH  14  15
ENDBRANCH  13  14
ENDBRANCH  12  13
ENDBRANCH   1  12
TORSDOF 6
ENDMDL
MODEL 2
REMARK VINA RESULT:      -5.9      0.934      1.595
REMARK  6 active torsions:
REMARK  status: ('A' for Active; 'I' for Inactive)
REMARK       I    between atoms: C_2  and  N_1 
REMARK    1  A    between atoms: C_15  and  C_2 
REMARK    2  A    between atoms: C_3  and  C_4 
REMARK    3  A    between atoms: C_9  and  O_14 
REMARK    4  A    between atoms: O_14  and  C_21 
REMARK    5  A    between atoms: C_22  and  C_15 
REMARK    6  A    between atoms: C_21  and  C_22 
ROOT
ATOM      1  O   UNL d   1     -47.460  14.154  23.076  0.00  0.00    -0.305 OA
ENDROOT
BRANCH   1   2
ATOM      2  C   UNL d   1     -48.253  14.343  22.971  0.00  0.00     0.100 A 
ATOM      3  C   UNL d   1     -48.471  15.080  22.661  0.00  0.00     0.024 A 
ATOM      4  C   UNL d   1     -49.257  15.280  22.552  0.00  0.00    -0.002 A 
ATOM      5  C   UNL d   1     -49.855  14.731  22.757  0.00  0.00    -0.023 A 
ATOM      6  C   UNL d   1     -49.648  13.999  23.065  0.00  0.00    -0.002 A 
ATOM      7  C   UNL d   1     -48.850  13.794  23.176  0.00  0.00     0.024 A 
BRANCH   5   8
ATOM      8  C   UNL d   1     -50.645  14.928  22.649  0.00  0.00     0.019 C 
ATOM      9  C   UNL d   1     -51.021  15.437  23.172  0.00  0.00     0.004 C 
ATOM     10  C   UNL d   1     -51.064  14.611  22.008  0.00  0.00     0.004 C 
ATOM     11  C   UNL d   1     -50.414  15.338  23.329  0.00  0.00     0.004 C 
ENDBRANCH   5   8
ENDBRANCH   1   2
BRANCH   1  12
ATOM     12  C   UNL d   1     -47.145  13.492  22.689  0.00  0.00     0.123 C 
BRANCH  12  13
ATOM     13  C   UNL d   1     -46.468  13.130  22.989  0.00  0.00     0.032 C 
BRANCH  13  14
ATOM     14  C   UNL d   1     -45.847  12.944  22.483  0.00  0.00     0.063 C 
BRANCH  14  15
ATOM     15  C   UNL d   1     -45.273  12.401  22.726  0.00  0.00     0.265 C 
ATOM     16  N   UNL d   1     -44.534  12.385  22.352  0.00  0.00    -0.268 N 
ATOM     17  C   UNL d   1     -43.954  11.848  22.586  0.00  0.00     0.110 A 
ATOM     18  C   UNL d   1     -44.374  12.923  21.731  0.00  0.00     0.110 A 
ATOM     19  C   UNL d   1     -43.227  11.838  22.214  0.00  0.00     0.142 A 
ATOM     20  O   UNL d   1     -43.067  12.375  21.592  0.00  0.00    -0.300 OA
ATOM     21  C   UNL d   1     -43.641  12.904  21.364  0.00  0.00     0.142 A 
ATOM     22  O   UNL d   1     -45.431  11.869  23.341  0.00  0.00    -0.267 OA
ENDBRANCH  14  15
ENDBRANCH  13  14
ENDBRANCH  12  13
ENDBRANCH   1  12
TORSDOF 6
ENDMDL
MODEL 3
REMARK VINA RESULT:      -4.6      4.192      6.916
REMARK  6 active torsions:
REMARK  status: ('A' for Active; 'I' for Inactive)
REMARK       I    between atoms: C_2  and  N_1 
REMARK    1  A    between atoms: C_15  and  C_2 
REMARK    2  A    between atoms: C_3  and  C_4 
REMARK    3  A    between atoms: C_9  and  O_14 
REMARK    4  A    between atoms: O_14  and  C_21 
REMARK    5  A    between atoms: C_22  and  C_15 
REMARK    6  A    between atoms: C_21  and  C_22 
ROOT
ATOM      1  O   UNL d   1     -42.006  13.542  21.329  0.00  0.00    -0.305 OA
ENDROOT
BRANCH   1   2
ATOM      2  C   UNL d   1     -41.534  14.050  20.889  0.00  0.00     0.100 A 
ATOM      3  C   UNL d   1     -41.500  14.857  21.075  0.00  0.00     0.024 A 
ATOM      4  C   UNL d   1     -41.034  15.373  20.643  0.00  0.00    -0.002 A 
ATOM      5  C   UNL d   1     -40.582  15.083  20.001  0.00  0.00    -0.023 A 
ATOM      6  C   UNL d   1     -40.610  14.286  19.810  0.00  0.00    -0.002 A 
ATOM      7  C   UNL d   1     -41.082  13.760  20.247  0.00  0.00     0.024 A 
BRANCH   5   8
ATOM      8  C   UNL d   1     -40.113  15.599  19.566  0.00  0.00     0.019 C 
ATOM      9  C   UNL d   1     -39.361  15.796  19.827  0.00  0.00     0.004 C 
ATOM     10  C   UNL d   1     -40.403  15.922  18.860  0.00  0.00     0.004 C 
ATOM     11  C   UNL d   1     -39.653  15.394  20.221  0.00  0.00     0.004 C 
ENDBRANCH   5   8
ENDBRANCH   1   2
BRANCH   1  12
ATOM     12  C   UNL d   1     -42.772  13.366  21.066  0.00  0.00     0.123 C 
BRANCH  12  13
ATOM     13  C   UNL d   1     -43.229  12.819  21.480  0.00  0.00     0.032 C 
BRANCH  13  14
ATOM     14  C   UNL d   1     -44.012  12.998  21.663  0.00  0.00     0.063 C 
BRANCH  14  15
ATOM     15  C   UNL d   1     -44.433  12.501  22.172  0.00  0.00     0.265 C 
ATOM     16  N   UNL d   1     -45.187  12.722  22.435  0.00  0.00    -0.268 N 
ATOM     17  C   UNL d   1     -45.616  12.236  22.943  0.00  0.00     0.110 A 
ATOM     18  C   UNL d   1     -45.516  13.449  22.180  0.00  0.00     0.110 A 
ATOM     19  C   UNL d   1     -46.360  12.459  23.199  0.00  0.00     0.142 A 
ATOM     20  O   UNL d   1     -46.688  13.186  22.944  0.00  0.00    -0.300 OA
ATOM     21  C   UNL d   1     -46.263  13.663  22.443  0.00  0.00     0.142 A 
ATOM     22  O   UNL d   1     -44.107  11.782  22.424  0.00  0.00    -0.267 OA
ENDBRANCH  14  15
ENDBRANCH  13  14
ENDBRANCH  12  13
ENDBRANCH   1  12
TORSDOF 6
ENDMDL
MODEL 4
REMARK VINA RESULT:      -4.6      2.404      3.325
REMARK  6 active torsions:
REMARK  status: ('A' for Active; 'I' for Inactive)
REMARK       I    between atoms: C_2  and  N_1 
REMARK    1  A    between atoms: C_15  and  C_2 
REMARK    2  A    between atoms: C_3  and  C_4 
REMARK    3  A    between atoms: C_9  and  O_14 
REMARK    4  A    between atoms: O_14  and  C_21 
REMARK    5  A    between atoms: C_22  and  C_15 
REMARK    6  A    between atoms: C_21  and  C_22 
ROOT
ATOM      1  O   UNL d   1     -45.477  13.079  22.531  0.00  0.00    -0.305 OA
ENDROOT
BRANCH   1   2
ATOM      2  C   UNL d   1     -46.234  13.394  22.562  0.00  0.00     0.100 A 
ATOM      3  C   UNL d   1     -46.373  14.115  22.948  0.00  0.00     0.024 A 
ATOM      4  C   UNL d   1     -47.124  14.439  22.985  0.00  0.00    -0.002 A 
ATOM      5  C   UNL d   1     -47.766  14.037  22.628  0.00  0.00    -0.023 A 
ATOM      6  C   UNL d   1     -47.637  13.323  22.244  0.00  0.00    -0.002 A 
ATOM      7  C   UNL d   1     -46.876  12.992  22.205  0.00  0.00     0.024 A 
BRANCH   5   8
ATOM      8  C   UNL d   1     -48.520  14.360  22.664  0.00  0.00     0.019 C 
ATOM      9  C   UNL d   1     -49.109  13.991  23.101  0.00  0.00     0.004 C 
ATOM     10  C   UNL d   1     -48.687  15.063  22.257  0.00  0.00     0.004 C 
ATOM     11  C   UNL d   1     -48.559  13.676  23.127  0.00  0.00     0.004 C 
ENDBRANCH   5   8
ENDBRANCH   1   2
BRANCH   1  12
ATOM     12  C   UNL d   1     -44.999  13.231  21.871  0.00  0.00     0.123 C 
BRANCH  12  13
ATOM     13  C   UNL d   1     -44.245  12.900  21.830  0.00  0.00     0.032 C 
BRANCH  13  14
ATOM     14  C   UNL d   1     -43.647  13.299  21.428  0.00  0.00     0.063 C 
BRANCH  14  15
ATOM     15  C   UNL d   1     -42.877  13.000  21.447  0.00  0.00     0.265 C 
ATOM     16  N   UNL d   1     -42.239  13.487  21.241  0.00  0.00    -0.268 N 
ATOM     17  C   UNL d   1     -41.467  13.201  21.255  0.00  0.00     0.110 A 
ATOM     18  C   UNL d   1     -42.382  14.281  21.016  0.00  0.00     0.110 A 
ATOM     19  C   UNL d   1     -40.842  13.686  21.051  0.00  0.00     0.142 A 
ATOM     20  O   UNL d   1     -40.985  14.479  20.826  0.00  0.00    -0.300 OA
ATOM     21  C   UNL d   1     -41.748  14.760  20.813  0.00  0.00     0.142 A 
ATOM     22  O   UNL d   1     -42.735  12.214  21.670  0.00  0.00    -0.267 OA
ENDBRANCH  14  15
ENDBRANCH  13  14
ENDBRANCH  12  13
ENDBRANCH   1  12
TORSDOF 6
ENDMDL
MODEL 5
REMARK VINA RESULT:      -4.5      1.592      5.755
REMARK  6 active torsions:
REMARK  status: ('A' for Active; 'I' for Inactive)
REMARK       I    between atoms: C_2  and  N_1 
REMARK    1  A    between atoms: C_15  and  C_2 
REMARK    2  A    between atoms: C_3  and  C_4 
REMARK    3  A    between atoms: C_9  and  O_14 
REMARK    4  A    between atoms: O_14  and  C_21 
REMARK    5  A    between atoms: C_22  and  C_15 
REMARK    6  A    between atoms: C_21  and  C_22 
ROOT
ATOM      1  O   UNL d   1     -46.208  12.981  22.854  0.00  0.00    -0.305 OA
ENDROOT
BRANCH   1   2
ATOM      2  C   UNL d   1     -45.767  12.308  23.018  0.00  0.00     0.100 A 
ATOM      3  C   UNL d   1     -45.018  12.204  22.678  0.00  0.00     0.024 A 
ATOM      4  C   UNL d   1     -44.570  11.538  22.835  0.00  0.00    -0.002 A 
ATOM      5  C   UNL d   1     -44.870  10.948  23.347  0.00  0.00    -0.023 A 
ATOM      6  C   UNL d   1     -45.611  11.043  23.688  0.00  0.00    -0.002 A 
ATOM      7  C   UNL d   1     -46.068  11.719  23.530  0.00  0.00     0.024 A 
BRANCH   5   8
ATOM      8  C   UNL d   1     -44.422  10.278  23.506  0.00  0.00     0.019 C 
ATOM      9  C   UNL d   1     -43.603  10.310  23.477  0.00  0.00     0.004 C 
ATOM     10  C   UNL d   1     -44.801   9.566  23.697  0.00  0.00     0.004 C 
ATOM     11  C   UNL d   1     -43.869  10.870  23.342  0.00  0.00     0.004 C 
ENDBRANCH   5   8
ENDBRANCH   1   2
BRANCH   1  12
ATOM     12  C   UNL d   1     -47.023  12.911  22.715  0.00  0.00     0.123 C 
BRANCH  12  13
ATOM     13  C   UNL d   1     -47.503  13.579  22.764  0.00  0.00     0.032 C 
BRANCH  13  14
ATOM     14  C   UNL d   1     -48.235  13.583  22.389  0.00  0.00     0.063 C 
BRANCH  14  15
ATOM     15  C   UNL d   1     -48.735  14.234  22.481  0.00  0.00     0.265 C 
ATOM     16  N   UNL d   1     -49.515  14.200  22.202  0.00  0.00    -0.268 N 
ATOM     17  C   UNL d   1     -50.022  14.844  22.288  0.00  0.00     0.110 A 
ATOM     18  C   UNL d   1     -49.789  13.503  21.829  0.00  0.00     0.110 A 
ATOM     19  C   UNL d   1     -50.790  14.804  22.011  0.00  0.00     0.142 A 
ATOM     20  O   UNL d   1     -51.064  14.107  21.638  0.00  0.00    -0.300 OA
ATOM     21  C   UNL d   1     -50.561  13.473  21.555  0.00  0.00     0.142 A 
ATOM     22  O   UNL d   1     -48.464  14.925  22.850  0.00  0.00    -0.267 OA
ENDBRANCH  14  15
ENDBRANCH  13  14
ENDBRANCH  12  13
ENDBRANCH   1  12
TORSDOF 6
ENDMDL
MODEL 6
REMARK VINA RESULT:      -4.4      8.561     10.012
REMARK  6 active torsions:
REMARK  status: ('A' for Active; 'I' for Inactive)
REMARK       I    between atoms: C_2  and  N_1 
REMARK    1  A    between atoms: C_15  and  C_2 
REMARK    2  A    between atoms: C_3  and  C_4 
REMARK    3  A    between atoms: C_9  and  O_14 
REMARK    4  A    between atoms: O_14  and  C_21 
REMARK    5  A    between atoms: C_22  and  C_15 
REMARK    6  A    between atoms: C_21  and  C_22 
ROOT
ATOM      1  O   UNL d   1     -39.556  13.915  18.830  0.00  0.00    -0.305 OA
ENDROOT
BRANCH   1   2
ATOM      2  C   UNL d   1     -39.244  14.007  18.075  0.00  0.00     0.100 A 
ATOM      3  C   UNL d   1     -39.679  14.398  17.487  0.00  0.00     0.024 A 
ATOM      4  C   UNL d   1     -39.379  14.495  16.732  0.00  0.00    -0.002 A 
ATOM      5  C   UNL d   1     -38.619  14.196  16.547  0.00  0.00    -0.023 A 
ATOM      6  C   UNL d   1     -38.183  13.808  17.123  0.00  0.00    -0.002 A 
ATOM      7  C   UNL d   1     -38.485  13.707  17.890  0.00  0.00     0.024 A 
BRANCH   5   8
ATOM      8  C   UNL d   1     -38.316  14.292  15.789  0.00  0.00     0.019 C 
ATOM      9  C   UNL d   1     -37.940  14.990  15.579  0.00  0.00     0.004 C 
ATOM     10  C   UNL d   1     -38.391  13.681  15.235  0.00  0.00     0.004 C 
ATOM     11  C   UNL d   1     -38.143  15.000  16.180  0.00  0.00     0.004 C 
ENDBRANCH   5   8
ENDBRANCH   1   2
BRANCH   1  12
ATOM     12  C   UNL d   1     -39.293  14.408  19.442  0.00  0.00     0.123 C 
BRANCH  12  13
ATOM     13  C   UNL d   1     -39.626  14.338  20.193  0.00  0.00     0.032 C 
BRANCH  13  14
ATOM     14  C   UNL d   1     -39.187  14.004  20.803  0.00  0.00     0.063 C 
BRANCH  14  15
ATOM     15  C   UNL d   1     -39.369  14.195  21.586  0.00  0.00     0.265 C 
ATOM     16  N   UNL d   1     -38.953  13.838  22.207  0.00  0.00    -0.268 N 
ATOM     17  C   UNL d   1     -39.126  14.022  22.992  0.00  0.00     0.110 A 
ATOM     18  C   UNL d   1     -38.349  13.285  22.034  0.00  0.00     0.110 A 
ATOM     19  C   UNL d   1     -38.712  13.666  23.600  0.00  0.00     0.142 A 
ATOM     20  O   UNL d   1     -38.108  13.113  23.427  0.00  0.00    -0.300 OA
ATOM     21  C   UNL d   1     -37.940  12.934  22.652  0.00  0.00     0.142 A 
ATOM     22  O   UNL d   1     -39.967  14.744  21.757  0.00  0.00    -0.267 OA
ENDBRANCH  14  15
ENDBRANCH  13  14
ENDBRANCH  12  13
ENDBRANCH   1  12
TORSDOF 6
ENDMDL
MODEL 7
REMARK VINA RESULT:      -4.3      3.584      5.074
REMARK  6 active torsions:
REMARK  status: ('A' for Active; 'I' for Inactive)
REMARK       I    between atoms: C_2  and  N_1 
REMARK    1  A    between atoms: C_15  and  C_2 
REMARK    2  A    between atoms: C_3  and  C_4 
REMARK    3  A    between atoms: C_9  and  O_14 
REMARK    4  A    between atoms: O_14  and  C_21 
REMARK    5  A    between atoms: C_22  and  C_15 
REMARK    6  A    between atoms: C_21  and  C_22 
ROOT
ATOM      1  O   UNL d   1     -43.743  12.630  21.621  0.00  0.00    -0.305 OA
ENDROOT
BRANCH   1   2
ATOM      2  C   UNL d   1     -44.474  12.693  21.989  0.00  0.00     0.100 A 
ATOM      3  C   UNL d   1     -44.703  12.141  22.564  0.00  0.00     0.024 A 
ATOM      4  C   UNL d   1     -45.430  12.194  22.938  0.00  0.00    -0.002 A 
ATOM      5  C   UNL d   1     -45.953  12.816  22.738  0.00  0.00    -0.023 A 
ATOM      6  C   UNL d   1     -45.735  13.366  22.169  0.00  0.00    -0.002 A 
ATOM      7  C   UNL d   1     -44.998  13.314  21.789  0.00  0.00     0.024 A 
BRANCH   5   8
ATOM      8  C   UNL d   1     -46.683  12.871  23.111  0.00  0.00     0.019 C 
ATOM      9  C   UNL d   1     -46.993  13.604  23.310  0.00  0.00     0.004 C 
ATOM     10  C   UNL d   1     -47.108  12.182  23.288  0.00  0.00     0.004 C 
ATOM     11  C   UNL d   1     -46.428  13.653  23.025  0.00  0.00     0.004 C 
ENDBRANCH   5   8
ENDBRANCH   1   2
BRANCH   1  12
ATOM     12  C   UNL d   1     -43.303  13.316  21.469  0.00  0.00     0.123 C 
BRANCH  12  13
ATOM     13  C   UNL d   1     -42.567  13.254  21.101  0.00  0.00     0.032 C 
BRANCH  13  14
ATOM     14  C   UNL d   1     -42.047  13.891  21.123  0.00  0.00     0.063 C 
BRANCH  14  15
ATOM     15  C   UNL d   1     -41.468  13.962  20.537  0.00  0.00     0.265 C 
ATOM     16  N   UNL d   1     -40.942  14.602  20.550  0.00  0.00    -0.268 N 
ATOM     17  C   UNL d   1     -40.361  14.684  19.972  0.00  0.00     0.110 A 
ATOM     18  C   UNL d   1     -41.004  15.174  21.159  0.00  0.00     0.110 A 
ATOM     19  C   UNL d   1     -39.846  15.318  19.990  0.00  0.00     0.142 A 
ATOM     20  O   UNL d   1     -39.907  15.889  20.599  0.00  0.00    -0.300 OA
ATOM     21  C   UNL d   1     -40.482  15.806  21.169  0.00  0.00     0.142 A 
ATOM     22  O   UNL d   1     -41.407  13.396  19.934  0.00  0.00    -0.267 OA
ENDBRANCH  14  15
ENDBRANCH  13  14
ENDBRANCH  12  13
ENDBRANCH   1  12
TORSDOF 6
ENDMDL
