MODEL 1
REMARK VINA RESULT:      -5.0      0.000      0.000
REMARK  6 active torsions:
REMARK  status: ('A' for Active; 'I' for Inactive)
REMARK       I    between atoms: N_3  and  C_1 
REMARK    1  A    between atoms: O_10  and  C_1 
REMARK    2  A    between atoms: N_2  and  C_4 
REMARK    3  A    between atoms: C_9  and  N_3 
REMARK    4  A    between atoms: C_17  and  O_10 
REMARK    5  A    between atoms: C_18  and  C_17 
REMARK    6  A    between atoms: C_19  and  C_18 
ROOT
ATOM      1  C   UNL d   1     -41.732-123.251 -49.436  0.00  0.00     0.064 A 
ATOM      2  C   UNL d   1     -42.214-122.743 -49.882  0.00  0.00     0.020 A 
ATOM      3  C   UNL d   1     -41.187-123.741 -49.814  0.00  0.00     0.020 A 
ATOM      4  C   UNL d   1     -41.606-123.214 -51.085  0.00  0.00     0.137 A 
ATOM      5  C   UNL d   1     -41.123-123.724 -50.636  0.00  0.00     0.034 A 
ATOM      6  C   UNL d   1     -42.150-122.725 -50.703  0.00  0.00     0.034 A 
ENDROOT
BRANCH   4   7
ATOM      7  N   UNL d   1     -41.547-123.193 -51.902  0.00  0.00    -0.344 NA
ATOM      8  C   UNL d   1     -41.485-123.177 -52.723  0.00  0.00     0.445 C 
ATOM      9  O   UNL d   1     -41.154-123.817 -53.124  0.00  0.00    -0.220 OA
BRANCH   8  10
ATOM     10  O   UNL d   1     -41.755-122.520 -53.145  0.00  0.00    -0.246 OA
BRANCH  10  11
ATOM     11  C   UNL d   1     -41.654-122.485 -53.962  0.00  0.00     0.129 C 
BRANCH  11  12
ATOM     12  C   UNL d   1     -42.188-122.055 -54.431  0.00  0.00     0.027 C 
BRANCH  12  13
ATOM     13  C   UNL d   1     -41.979-121.829 -55.193  0.00  0.00     0.002 C 
ATOM     14  C   UNL d   1     -42.509-121.939 -55.814  0.00  0.00     0.000 C 
ENDBRANCH  12  13
ENDBRANCH  11  12
ENDBRANCH  10  11
ENDBRANCH   8  10
ENDBRANCH   4   7
BRANCH   1  15
ATOM     15  N   UNL d   1     -41.801-123.263 -48.612  0.00  0.00    -0.300 N 
ATOM     16  C   UNL d   1     -42.533-123.413 -48.262  0.00  0.00     0.107 A 
ATOM     17  C   UNL d   1     -42.598-123.425 -47.445  0.00  0.00     0.142 A 
ATOM     18  O   UNL d   1     -41.934-123.286 -46.975  0.00  0.00    -0.300 OA
ATOM     19  C   UNL d   1     -41.202-123.136 -47.325  0.00  0.00     0.142 A 
ATOM     20  C   UNL d   1     -41.136-123.124 -48.149  0.00  0.00     0.107 A 
ENDBRANCH   1  15
TORSDOF 6
ENDMDL
MODEL 2
REMARK VINA RESULT:      -3.3      1.458      5.550
REMARK  6 active torsions:
REMARK  status: ('A' for Active; 'I' for Inactive)
REMARK       I    between atoms: N_3  and  C_1 
REMARK    1  A    between atoms: O_10  and  C_1 
REMARK    2  A    between atoms: N_2  and  C_4 
REMARK    3  A    between atoms: C_9  and  N_3 
REMARK    4  A    between atoms: C_17  and  O_10 
REMARK    5  A    between atoms: C_18  and  C_17 
REMARK    6  A    between atoms: C_19  and  C_18 
ROOT
ATOM      1  C   UNL d   1     -41.767-122.491 -53.568  0.00  0.00     0.064 A 
ATOM      2  C   UNL d   1     -41.810-121.895 -52.991  0.00  0.00     0.020 A 
ATOM      3  C   UNL d   1     -41.701-123.282 -53.340  0.00  0.00     0.020 A 
ATOM      4  C   UNL d   1     -41.722-122.879 -51.960  0.00  0.00     0.137 A 
ATOM      5  C   UNL d   1     -41.679-123.477 -52.540  0.00  0.00     0.034 A 
ATOM      6  C   UNL d   1     -41.787-122.090 -52.191  0.00  0.00     0.034 A 
ENDROOT
BRANCH   4   7
ATOM      7  N   UNL d   1     -41.700-123.067 -51.163  0.00  0.00    -0.344 NA
ATOM      8  C   UNL d   1     -41.674-123.260 -50.363  0.00  0.00     0.445 C 
ATOM      9  O   UNL d   1     -41.130-123.817 -50.090  0.00  0.00    -0.220 OA
BRANCH   8  10
ATOM     10  O   UNL d   1     -42.191-122.895 -49.832  0.00  0.00    -0.246 OA
BRANCH  10  11
ATOM     11  C   UNL d   1     -42.338-123.238 -49.098  0.00  0.00     0.129 C 
BRANCH  11  12
ATOM     12  C   UNL d   1     -42.470-122.759 -48.432  0.00  0.00     0.027 C 
BRANCH  12  13
ATOM     13  C   UNL d   1     -42.698-123.097 -47.718  0.00  0.00     0.002 C 
ATOM     14  C   UNL d   1     -42.276-122.931 -47.031  0.00  0.00     0.000 C 
ENDBRANCH  12  13
ENDBRANCH  11  12
ENDBRANCH  10  11
ENDBRANCH   8  10
ENDBRANCH   4   7
BRANCH   1  15
ATOM     15  N   UNL d   1     -41.790-122.289 -54.369  0.00  0.00    -0.300 N 
ATOM     16  C   UNL d   1     -42.428-121.860 -54.667  0.00  0.00     0.107 A 
ATOM     17  C   UNL d   1     -42.448-121.661 -55.462  0.00  0.00     0.142 A 
ATOM     18  O   UNL d   1     -41.832-121.889 -55.961  0.00  0.00    -0.300 OA
ATOM     19  C   UNL d   1     -41.193-122.319 -55.662  0.00  0.00     0.142 A 
ATOM     20  C   UNL d   1     -41.173-122.519 -54.862  0.00  0.00     0.107 A 
ENDBRANCH   1  15
TORSDOF 6
ENDMDL
