MODEL 1
REMARK VINA RESULT:      15.9      0.000      0.000
REMARK  2 active torsions:
REMARK  status: ('A' for Active; 'I' for Inactive)
REMARK    1  A    between atoms: C_5  and  C_1 
REMARK    2  A    between atoms: N_2  and  C_6 
ROOT
ATOM      1  C   UNL d   1     -52.092  24.928  33.367  0.00  0.00     0.077 A 
ATOM      2  C   UNL d   1     -51.508  23.687  33.336  0.00  0.00     0.160 A 
ATOM      3  C   UNL d   1     -51.383  24.561  33.346  0.00  0.00     0.024 A 
ATOM      4  C   UNL d   1     -52.673  24.447  33.374  0.00  0.00    -0.014 A 
ATOM      5  C   UNL d   1     -52.957  24.744  33.385  0.00  0.00    -0.014 A 
ATOM      6  C   UNL d   1     -53.077  24.025  33.377  0.00  0.00    -0.000 A 
ATOM      7  C   UNL d   1     -52.806  23.546  33.364  0.00  0.00    -0.000 A 
ATOM      8  C   UNL d   1     -52.185  23.529  33.349  0.00  0.00     0.038 A 
ATOM      9  C   UNL d   1     -52.116  23.189  33.343  0.00  0.00     0.038 A 
ATOM     10  C   UNL d   1     -53.683  23.340  33.381  0.00  0.00    -0.000 A 
ATOM     11  O   UNL d   1     -50.848  23.373  33.316  0.00  0.00    -0.290 OA
ENDROOT
BRANCH   1  12
ATOM     12  C   UNL d   1     -51.619  25.594  33.366  0.00  0.00    -0.011 A 
ATOM     13  C   UNL d   1     -50.800  25.533  33.370  0.00  0.00    -0.002 A 
ATOM     14  C   UNL d   1     -50.324  26.217  33.369  0.00  0.00     0.023 A 
ATOM     15  C   UNL d   1     -50.686  26.959  33.363  0.00  0.00     0.127 A 
ATOM     16  C   UNL d   1     -51.509  27.016  33.358  0.00  0.00     0.023 A 
ATOM     17  C   UNL d   1     -51.973  26.321  33.360  0.00  0.00    -0.002 A 
BRANCH  15  18
ATOM     18  N   UNL d   1     -50.229  27.647  33.361  0.00  0.00    -0.114 N 
ATOM     19  O   UNL d   1     -50.625  28.363  33.308  0.00  0.00    -0.532 OA
ATOM     20  O   UNL d   1     -49.375  27.610  33.413  0.00  0.00    -0.532 OA
ENDBRANCH  15  18
ENDBRANCH   1  12
TORSDOF 2
ENDMDL
