MODEL 1
REMARK VINA RESULT:      -5.1      0.000      0.000
REMARK  5 active torsions:
REMARK  status: ('A' for Active; 'I' for Inactive)
REMARK    1  A    between atoms: N_5  and  C_1 
REMARK    2  A    between atoms: N_6  and  C_1 
REMARK       I    between atoms: C_2  and  N_3 
REMARK    3  A    between atoms: C_4  and  C_2 
REMARK    4  A    between atoms: N_3  and  N_5 
REMARK    5  A    between atoms: C_11  and  N_6 
ROOT
ATOM      1  N   UNL d   1      57.532  -0.739  30.904  0.00  0.00    -0.273 N 
ATOM      2  H   UNL d   1      56.992  -1.354  30.861  0.00  0.00     0.189 HD
ENDROOT
BRANCH   1   3
ATOM      3  N   UNL d   1      58.215  -0.764  30.428  0.00  0.00    -0.264 N 
ATOM      4  C   UNL d   1      58.340  -1.379  29.897  0.00  0.00     0.272 C 
ATOM      5  O   UNL d   1      57.786  -1.979  29.832  0.00  0.00    -0.266 OA
ATOM      6  H   UNL d   1      58.781  -0.152  30.494  0.00  0.00     0.190 HD
BRANCH   4   7
ATOM      7  C   UNL d   1      59.017  -1.399  29.429  0.00  0.00     0.058 A 
ATOM      8  C   UNL d   1      59.530  -2.054  29.462  0.00  0.00     0.011 A 
ATOM      9  C   UNL d   1      60.203  -2.063  28.989  0.00  0.00     0.035 A 
ATOM     10 BR   UNL d   1      60.713  -2.707  29.017  0.00  0.00    -0.049 Br
ATOM     11  C   UNL d   1      60.370  -1.434  28.491  0.00  0.00     0.007 A 
ATOM     12  C   UNL d   1      59.867  -0.784  28.455  0.00  0.00     0.001 A 
ATOM     13  C   UNL d   1      59.184  -0.771  28.931  0.00  0.00     0.005 A 
ENDBRANCH   4   7
ENDBRANCH   1   3
BRANCH   1  14
ATOM     14  C   UNL d   1      57.407  -0.106  31.406  0.00  0.00     0.191 C 
ATOM     15  S   UNL d   1      57.303   0.656  31.108  0.00  0.00    -0.039 SA
BRANCH  14  16
ATOM     16  N   UNL d   1      57.386  -0.242  32.223  0.00  0.00    -0.331 N 
ATOM     17  H   UNL d   1      58.077  -0.396  32.635  0.00  0.00     0.168 HD
BRANCH  16  18
ATOM     18  C   UNL d   1      56.668  -0.220  32.603  0.00  0.00     0.058 A 
ATOM     19  C   UNL d   1      56.284  -0.942  32.790  0.00  0.00     0.017 A 
ATOM     20  C   UNL d   1      55.552  -0.928  33.177  0.00  0.00     0.002 A 
ATOM     21  C   UNL d   1      55.200  -0.210  33.378  0.00  0.00     0.000 A 
ATOM     22  C   UNL d   1      55.583   0.511  33.191  0.00  0.00     0.002 A 
ATOM     23  C   UNL d   1      56.315   0.498  32.804  0.00  0.00     0.017 A 
ENDBRANCH  16  18
ENDBRANCH  14  16
ENDBRANCH   1  14
TORSDOF 5
ENDMDL
MODEL 2
REMARK VINA RESULT:      -4.9      0.922      1.216
REMARK  5 active torsions:
REMARK  status: ('A' for Active; 'I' for Inactive)
REMARK    1  A    between atoms: N_5  and  C_1 
REMARK    2  A    between atoms: N_6  and  C_1 
REMARK       I    between atoms: C_2  and  N_3 
REMARK    3  A    between atoms: C_4  and  C_2 
REMARK    4  A    between atoms: N_3  and  N_5 
REMARK    5  A    between atoms: C_11  and  N_6 
ROOT
ATOM      1  N   UNL d   1      57.731  -0.189  31.000  0.00  0.00    -0.273 N 
ATOM      2  H   UNL d   1      57.326  -0.888  30.862  0.00  0.00     0.189 HD
ENDROOT
BRANCH   1   3
ATOM      3  N   UNL d   1      58.393  -0.003  30.531  0.00  0.00    -0.264 N 
ATOM      4  C   UNL d   1      58.552  -0.417  29.838  0.00  0.00     0.272 C 
ATOM      5  O   UNL d   1      58.053  -1.022  29.603  0.00  0.00    -0.266 OA
ATOM      6  H   UNL d   1      58.903   0.615  30.771  0.00  0.00     0.190 HD
BRANCH   4   7
ATOM      7  C   UNL d   1      59.208  -0.230  29.378  0.00  0.00     0.058 A 
ATOM      8  C   UNL d   1      59.846  -0.762  29.321  0.00  0.00     0.011 A 
ATOM      9  C   UNL d   1      60.496  -0.564  28.858  0.00  0.00     0.035 A 
ATOM     10 BR   UNL d   1      61.129  -1.086  28.797  0.00  0.00    -0.049 Br
ATOM     11  C   UNL d   1      60.520   0.150  28.457  0.00  0.00     0.007 A 
ATOM     12  C   UNL d   1      59.892   0.680  28.510  0.00  0.00     0.001 A 
ATOM     13  C   UNL d   1      59.231   0.484  28.977  0.00  0.00     0.005 A 
ENDBRANCH   4   7
ENDBRANCH   1   3
BRANCH   1  14
ATOM     14  C   UNL d   1      57.491   0.325  31.590  0.00  0.00     0.191 C 
ATOM     15  S   UNL d   1      58.041   0.666  32.102  0.00  0.00    -0.039 SA
BRANCH  14  16
ATOM     16  N   UNL d   1      56.685   0.497  31.665  0.00  0.00    -0.331 N 
ATOM     17  H   UNL d   1      56.313   0.987  31.124  0.00  0.00     0.168 HD
BRANCH  16  18
ATOM     18  C   UNL d   1      56.273   0.171  32.286  0.00  0.00     0.058 A 
ATOM     19  C   UNL d   1      55.883   0.678  32.828  0.00  0.00     0.017 A 
ATOM     20  C   UNL d   1      55.462   0.354  33.463  0.00  0.00     0.002 A 
ATOM     21  C   UNL d   1      55.424  -0.464  33.564  0.00  0.00     0.000 A 
ATOM     22  C   UNL d   1      55.814  -0.971  33.023  0.00  0.00     0.002 A 
ATOM     23  C   UNL d   1      56.236  -0.647  32.387  0.00  0.00     0.017 A 
ENDBRANCH  16  18
ENDBRANCH  14  16
ENDBRANCH   1  14
TORSDOF 5
ENDMDL
MODEL 3
REMARK VINA RESULT:      -4.8      2.162      5.031
REMARK  5 active torsions:
REMARK  status: ('A' for Active; 'I' for Inactive)
REMARK    1  A    between atoms: N_5  and  C_1 
REMARK    2  A    between atoms: N_6  and  C_1 
REMARK       I    between atoms: C_2  and  N_3 
REMARK    3  A    between atoms: C_4  and  C_2 
REMARK    4  A    between atoms: N_3  and  N_5 
REMARK    5  A    between atoms: C_11  and  N_6 
ROOT
ATOM      1  N   UNL d   1      57.397  -0.410  31.145  0.00  0.00    -0.273 N 
ATOM      2  H   UNL d   1      57.156  -1.175  30.978  0.00  0.00     0.189 HD
ENDROOT
BRANCH   1   3
ATOM      3  N   UNL d   1      57.121  -0.039  31.837  0.00  0.00    -0.264 N 
ATOM      4  C   UNL d   1      56.627  -0.434  32.363  0.00  0.00     0.272 C 
ATOM      5  O   UNL d   1      56.403  -1.206  32.206  0.00  0.00    -0.266 OA
ATOM      6  H   UNL d   1      57.350   0.750  31.997  0.00  0.00     0.190 HD
BRANCH   4   7
ATOM      7  C   UNL d   1      56.357  -0.063  33.046  0.00  0.00     0.058 A 
ATOM      8  C   UNL d   1      55.541   0.057  33.162  0.00  0.00     0.011 A 
ATOM      9  C   UNL d   1      55.283   0.430  33.849  0.00  0.00     0.035 A 
ATOM     10 BR   UNL d   1      54.479   0.552  33.970  0.00  0.00    -0.049 Br
ATOM     11  C   UNL d   1      55.820   0.682  34.413  0.00  0.00     0.007 A 
ATOM     12  C   UNL d   1      56.628   0.566  34.303  0.00  0.00     0.001 A 
ATOM     13  C   UNL d   1      56.895   0.189  33.610  0.00  0.00     0.005 A 
ENDBRANCH   4   7
ENDBRANCH   1   3
BRANCH   1  14
ATOM     14  C   UNL d   1      57.903  -0.011  30.642  0.00  0.00     0.191 C 
ATOM     15  S   UNL d   1      57.644   0.647  30.216  0.00  0.00    -0.039 SA
BRANCH  14  16
ATOM     16  N   UNL d   1      58.683  -0.279  30.566  0.00  0.00    -0.331 N 
ATOM     17  H   UNL d   1      59.222  -0.162  31.171  0.00  0.00     0.168 HD
BRANCH  16  18
ATOM     18  C   UNL d   1      58.899  -0.658  29.880  0.00  0.00     0.058 A 
ATOM     19  C   UNL d   1      58.665  -1.455  29.764  0.00  0.00     0.017 A 
ATOM     20  C   UNL d   1      58.881  -1.848  29.068  0.00  0.00     0.002 A 
ATOM     21  C   UNL d   1      59.324  -1.461  28.490  0.00  0.00     0.000 A 
ATOM     22  C   UNL d   1      59.558  -0.665  28.606  0.00  0.00     0.002 A 
ATOM     23  C   UNL d   1      59.343  -0.271  29.302  0.00  0.00     0.017 A 
ENDBRANCH  16  18
ENDBRANCH  14  16
ENDBRANCH   1  14
TORSDOF 5
ENDMDL
