MODEL 1
REMARK VINA RESULT:      -7.8      0.000      0.000
REMARK  4 active torsions:
REMARK  status: ('A' for Active; 'I' for Inactive)
REMARK    1  A    between atoms: N_4  and  C_1 
REMARK    2  A    between atoms: C_11  and  C_3 
REMARK       I    between atoms: C_6  and  N_4 
REMARK    3  A    between atoms: C_8  and  C_6 
REMARK    4  A    between atoms: C_9  and  C_8 
ROOT
ATOM      1  C   UNL d   1      53.228  32.582  53.157  0.00  0.00     0.197 A 
ATOM      2  N   UNL d   1      52.884  31.839  53.144  0.00  0.00    -0.221 NA
ATOM      3  C   UNL d   1      53.378  31.321  53.561  0.00  0.00     0.092 A 
ATOM      4  S   UNL d   1      53.933  32.534  53.578  0.00  0.00    -0.046 SA
ATOM      5  C   UNL d   1      54.032  31.757  53.831  0.00  0.00     0.058 A 
ENDROOT
BRANCH   1   6
ATOM      6  N   UNL d   1      52.926  33.270  52.809  0.00  0.00    -0.183 NA
ATOM      7  C   UNL d   1      52.357  33.713  53.213  0.00  0.00     0.281 C 
ATOM      8  O   UNL d   1      52.100  33.469  53.953  0.00  0.00    -0.265 OA
BRANCH   7   9
ATOM      9  C   UNL d   1      52.051  34.399  52.874  0.00  0.00     0.069 C 
BRANCH   9  10
ATOM     10  C   UNL d   1      51.255  34.389  52.669  0.00  0.00     0.034 A 
ATOM     11  S   UNL d   1      50.618  34.505  53.179  0.00  0.00    -0.086 SA
ATOM     12  C   UNL d   1      49.920  34.448  52.739  0.00  0.00     0.035 A 
ATOM     13  C   UNL d   1      50.131  34.296  51.953  0.00  0.00     0.007 A 
ATOM     14  C   UNL d   1      50.955  34.259  51.910  0.00  0.00     0.007 A 
ENDBRANCH   9  10
ENDBRANCH   7   9
ENDBRANCH   1   6
BRANCH   3  15
ATOM     15  C   UNL d   1      53.251  30.519  53.689  0.00  0.00     0.037 A 
ATOM     16  C   UNL d   1      52.839  30.088  53.123  0.00  0.00     0.100 A 
ATOM     17  N   UNL d   1      52.709  29.285  53.244  0.00  0.00    -0.242 NA
ATOM     18  C   UNL d   1      52.990  28.915  53.928  0.00  0.00     0.099 A 
ATOM     19  C   UNL d   1      53.398  29.355  54.482  0.00  0.00     0.021 A 
ATOM     20  C   UNL d   1      53.534  30.165  54.369  0.00  0.00     0.005 A 
ENDBRANCH   3  15
TORSDOF 4
ENDMDL
MODEL 2
REMARK VINA RESULT:      -7.6      1.337      4.478
REMARK  4 active torsions:
REMARK  status: ('A' for Active; 'I' for Inactive)
REMARK    1  A    between atoms: N_4  and  C_1 
REMARK    2  A    between atoms: C_11  and  C_3 
REMARK       I    between atoms: C_6  and  N_4 
REMARK    3  A    between atoms: C_8  and  C_6 
REMARK    4  A    between atoms: C_9  and  C_8 
ROOT
ATOM      1  C   UNL d   1      52.521  33.397  53.533  0.00  0.00     0.197 A 
ATOM      2  N   UNL d   1      51.728  33.359  53.330  0.00  0.00    -0.221 NA
ATOM      3  C   UNL d   1      51.505  34.095  53.025  0.00  0.00     0.092 A 
ATOM      4  S   UNL d   1      52.797  34.152  53.358  0.00  0.00    -0.046 SA
ATOM      5  C   UNL d   1      52.174  34.590  53.044  0.00  0.00     0.058 A 
ENDROOT
BRANCH   1   6
ATOM      6  N   UNL d   1      52.975  32.786  53.859  0.00  0.00    -0.183 NA
ATOM      7  C   UNL d   1      53.267  32.190  53.366  0.00  0.00     0.281 C 
ATOM      8  O   UNL d   1      53.105  32.210  52.561  0.00  0.00    -0.265 OA
BRANCH   7   9
ATOM      9  C   UNL d   1      53.720  31.578  53.682  0.00  0.00     0.069 C 
BRANCH   9  10
ATOM     10  C   UNL d   1      53.429  30.815  53.590  0.00  0.00     0.034 A 
ATOM     11  S   UNL d   1      53.304  30.264  54.190  0.00  0.00    -0.086 SA
ATOM     12  C   UNL d   1      53.008  29.572  53.850  0.00  0.00     0.035 A 
ATOM     13  C   UNL d   1      52.950  29.699  53.033  0.00  0.00     0.007 A 
ATOM     14  C   UNL d   1      53.210  30.466  52.873  0.00  0.00     0.007 A 
ENDBRANCH   9  10
ENDBRANCH   7   9
ENDBRANCH   1   6
BRANCH   3  15
ATOM     15  C   UNL d   1      50.760  34.309  52.752  0.00  0.00     0.037 A 
ATOM     16  C   UNL d   1      50.225  34.643  53.280  0.00  0.00     0.100 A 
ATOM     17  N   UNL d   1      49.478  34.860  53.013  0.00  0.00    -0.242 NA
ATOM     18  C   UNL d   1      49.267  34.742  52.223  0.00  0.00     0.099 A 
ATOM     19  C   UNL d   1      49.808  34.409  51.709  0.00  0.00     0.021 A 
ATOM     20  C   UNL d   1      50.563  34.188  51.968  0.00  0.00     0.005 A 
ENDBRANCH   3  15
TORSDOF 4
ENDMDL
MODEL 3
REMARK VINA RESULT:      -7.1      1.640      4.528
REMARK  4 active torsions:
REMARK  status: ('A' for Active; 'I' for Inactive)
REMARK    1  A    between atoms: N_4  and  C_1 
REMARK    2  A    between atoms: C_11  and  C_3 
REMARK       I    between atoms: C_6  and  N_4 
REMARK    3  A    between atoms: C_8  and  C_6 
REMARK    4  A    between atoms: C_9  and  C_8 
ROOT
ATOM      1  C   UNL d   1      52.796  32.604  52.950  0.00  0.00     0.197 A 
ATOM      2  N   UNL d   1      53.174  33.082  53.498  0.00  0.00    -0.221 NA
ATOM      3  C   UNL d   1      52.745  33.787  53.562  0.00  0.00     0.092 A 
ATOM      4  S   UNL d   1      52.134  33.003  52.671  0.00  0.00    -0.046 SA
ATOM      5  C   UNL d   1      52.095  33.735  53.045  0.00  0.00     0.058 A 
ENDROOT
BRANCH   1   6
ATOM      6  N   UNL d   1      53.034  31.847  52.712  0.00  0.00    -0.183 NA
ATOM      7  C   UNL d   1      52.621  31.186  52.990  0.00  0.00     0.281 C 
ATOM      8  O   UNL d   1      51.984  31.287  53.497  0.00  0.00    -0.265 OA
BRANCH   7   9
ATOM      9  C   UNL d   1      52.851  30.429  52.759  0.00  0.00     0.069 C 
BRANCH   9  10
ATOM     10  C   UNL d   1      53.030  29.895  53.358  0.00  0.00     0.034 A 
ATOM     11  S   UNL d   1      52.524  29.327  53.673  0.00  0.00    -0.086 SA
ATOM     12  C   UNL d   1      52.932  28.914  54.261  0.00  0.00     0.035 A 
ATOM     13  C   UNL d   1      53.695  29.231  54.307  0.00  0.00     0.007 A 
ATOM     14  C   UNL d   1      53.756  29.837  53.750  0.00  0.00     0.007 A 
ENDBRANCH   9  10
ENDBRANCH   7   9
ENDBRANCH   1   6
BRANCH   3  15
ATOM     15  C   UNL d   1      52.921  34.427  54.046  0.00  0.00     0.037 A 
ATOM     16  C   UNL d   1      53.264  34.285  54.780  0.00  0.00     0.100 A 
ATOM     17  N   UNL d   1      53.443  34.920  55.270  0.00  0.00    -0.242 NA
ATOM     18  C   UNL d   1      53.280  35.694  55.028  0.00  0.00     0.099 A 
ATOM     19  C   UNL d   1      52.939  35.821  54.296  0.00  0.00     0.021 A 
ATOM     20  C   UNL d   1      52.755  35.187  53.795  0.00  0.00     0.005 A 
ENDBRANCH   3  15
TORSDOF 4
ENDMDL
MODEL 4
REMARK VINA RESULT:      -6.7      1.989      4.838
REMARK  4 active torsions:
REMARK  status: ('A' for Active; 'I' for Inactive)
REMARK    1  A    between atoms: N_4  and  C_1 
REMARK    2  A    between atoms: C_11  and  C_3 
REMARK       I    between atoms: C_6  and  N_4 
REMARK    3  A    between atoms: C_8  and  C_6 
REMARK    4  A    between atoms: C_9  and  C_8 
ROOT
ATOM      1  C   UNL d   1      51.565  33.511  52.971  0.00  0.00     0.197 A 
ATOM      2  N   UNL d   1      50.824  33.767  53.210  0.00  0.00    -0.221 NA
ATOM      3  C   UNL d   1      50.538  34.293  52.638  0.00  0.00     0.092 A 
ATOM      4  S   UNL d   1      51.745  33.873  52.254  0.00  0.00    -0.046 SA
ATOM      5  C   UNL d   1      51.114  34.357  52.042  0.00  0.00     0.058 A 
ENDROOT
BRANCH   1   6
ATOM      6  N   UNL d   1      52.055  32.980  53.375  0.00  0.00    -0.183 NA
ATOM      7  C   UNL d   1      52.710  33.268  53.789  0.00  0.00     0.281 C 
ATOM      8  O   UNL d   1      52.867  34.073  53.796  0.00  0.00    -0.265 OA
BRANCH   7   9
ATOM      9  C   UNL d   1      53.204  32.746  54.194  0.00  0.00     0.069 C 
BRANCH   9  10
ATOM     10  C   UNL d   1      53.932  33.038  54.440  0.00  0.00     0.034 A 
ATOM     11  S   UNL d   1      54.101  33.375  55.172  0.00  0.00    -0.086 SA
ATOM     12  C   UNL d   1      54.899  33.591  55.181  0.00  0.00     0.035 A 
ATOM     13  C   UNL d   1      55.222  33.384  54.447  0.00  0.00     0.007 A 
ATOM     14  C   UNL d   1      54.625  33.043  53.989  0.00  0.00     0.007 A 
ENDBRANCH   9  10
ENDBRANCH   7   9
ENDBRANCH   1   6
BRANCH   3  15
ATOM     15  C   UNL d   1      49.815  34.685  52.650  0.00  0.00     0.037 A 
ATOM     16  C   UNL d   1      49.633  35.161  53.295  0.00  0.00     0.100 A 
ATOM     17  N   UNL d   1      48.913  35.556  53.313  0.00  0.00    -0.242 NA
ATOM     18  C   UNL d   1      48.376  35.476  52.690  0.00  0.00     0.099 A 
ATOM     19  C   UNL d   1      48.570  34.999  52.054  0.00  0.00     0.021 A 
ATOM     20  C   UNL d   1      49.293  34.597  52.027  0.00  0.00     0.005 A 
ENDBRANCH   3  15
TORSDOF 4
ENDMDL
MODEL 5
REMARK VINA RESULT:      -6.4      2.169      2.888
REMARK  4 active torsions:
REMARK  status: ('A' for Active; 'I' for Inactive)
REMARK    1  A    between atoms: N_4  and  C_1 
REMARK    2  A    between atoms: C_11  and  C_3 
REMARK       I    between atoms: C_6  and  N_4 
REMARK    3  A    between atoms: C_8  and  C_6 
REMARK    4  A    between atoms: C_9  and  C_8 
ROOT
ATOM      1  C   UNL d   1      51.975  33.649  52.804  0.00  0.00     0.197 A 
ATOM      2  N   UNL d   1      52.502  34.002  53.323  0.00  0.00    -0.221 NA
ATOM      3  C   UNL d   1      52.921  33.401  53.709  0.00  0.00     0.092 A 
ATOM      4  S   UNL d   1      52.060  32.833  52.862  0.00  0.00    -0.046 SA
ATOM      5  C   UNL d   1      52.643  32.673  53.420  0.00  0.00     0.058 A 
ENDROOT
BRANCH   1   6
ATOM      6  N   UNL d   1      51.444  34.040  52.303  0.00  0.00    -0.183 NA
ATOM      7  C   UNL d   1      50.641  34.057  52.497  0.00  0.00     0.281 C 
ATOM      8  O   UNL d   1      50.378  33.689  53.182  0.00  0.00    -0.265 OA
BRANCH   7   9
ATOM      9  C   UNL d   1      50.105  34.444  52.004  0.00  0.00     0.069 C 
BRANCH   9  10
ATOM     10  C   UNL d   1      49.478  34.832  52.367  0.00  0.00     0.034 A 
ATOM     11  S   UNL d   1      48.713  34.906  52.073  0.00  0.00    -0.086 SA
ATOM     12  C   UNL d   1      48.265  35.339  52.618  0.00  0.00     0.035 A 
ATOM     13  C   UNL d   1      48.761  35.532  53.252  0.00  0.00     0.007 A 
ATOM     14  C   UNL d   1      49.510  35.219  53.097  0.00  0.00     0.007 A 
ENDBRANCH   9  10
ENDBRANCH   7   9
ENDBRANCH   1   6
BRANCH   3  15
ATOM     15  C   UNL d   1      53.507  33.499  54.278  0.00  0.00     0.037 A 
ATOM     16  C   UNL d   1      53.655  34.254  54.568  0.00  0.00     0.100 A 
ATOM     17  N   UNL d   1      54.240  34.359  55.136  0.00  0.00    -0.242 NA
ATOM     18  C   UNL d   1      54.674  33.713  55.413  0.00  0.00     0.099 A 
ATOM     19  C   UNL d   1      54.517  32.968  55.116  0.00  0.00     0.021 A 
ATOM     20  C   UNL d   1      53.930  32.852  54.543  0.00  0.00     0.005 A 
ENDBRANCH   3  15
TORSDOF 4
ENDMDL
