MODEL 1
REMARK VINA RESULT:      -2.9      0.000      0.000
REMARK  5 active torsions:
REMARK  status: ('A' for Active; 'I' for Inactive)
REMARK    1  A    between atoms: O_8  and  C_1 
REMARK    2  A    between atoms: C_12  and  C_5 
REMARK    3  A    between atoms: C_10  and  O_8 
REMARK    4  A    between atoms: N_16  and  C_12 
REMARK    5  A    between atoms: O_19  and  C_15 
ROOT
ATOM      1  C   UNL d   1      58.107  -0.592  30.240  0.00  0.00     0.161 A 
ATOM      2  C   UNL d   1      57.344  -0.248  31.675  0.00  0.00     0.108 A 
ATOM      3  C   UNL d   1      57.205  -0.979  31.291  0.00  0.00     0.064 A 
ATOM      4  C   UNL d   1      57.582  -1.150  30.581  0.00  0.00     0.222 A 
ATOM      5  C   UNL d   1      56.963  -0.076  32.393  0.00  0.00     0.079 A 
ATOM      6  O   UNL d   1      57.862   0.309  31.346  0.00  0.00    -0.305 OA
ATOM      7  C   UNL d   1      58.245   0.131  30.621  0.00  0.00     0.126 A 
ATOM      8  C   UNL d   1      56.682  -1.526  31.637  0.00  0.00     0.009 A 
ATOM      9  C   UNL d   1      56.446  -0.630  32.724  0.00  0.00     0.199 A 
ATOM     10  O   UNL d   1      57.447  -1.869  30.199  0.00  0.00    -0.284 OA
ATOM     11  C   UNL d   1      56.306  -1.351  32.348  0.00  0.00     0.042 A 
ATOM     12  O   UNL d   1      56.071  -0.449  33.440  0.00  0.00    -0.286 OA
ATOM     13  C   UNL d   1      58.761   0.678  30.286  0.00  0.00     0.029 C 
ENDROOT
BRANCH   1  14
ATOM     14  O   UNL d   1      58.483  -0.766  29.529  0.00  0.00    -0.300 OA
BRANCH  14  15
ATOM     15  C   UNL d   1      59.286  -0.949  29.524  0.00  0.00     0.122 A 
ATOM     16  C   UNL d   1      59.555  -1.602  29.101  0.00  0.00     0.117 A 
ATOM     17  C   UNL d   1      60.358  -1.785  29.095  0.00  0.00     0.026 A 
ATOM     18  C   UNL d   1      60.892  -1.314  29.512  0.00  0.00     0.002 A 
ATOM     19  C   UNL d   1      60.614  -0.653  29.939  0.00  0.00     0.002 A 
ATOM     20  C   UNL d   1      59.816  -0.475  29.942  0.00  0.00     0.027 A 
BRANCH  16  21
ATOM     21  O   UNL d   1      59.021  -2.073  28.685  0.00  0.00    -0.326 OA
ATOM     22  C   UNL d   1      59.237  -2.833  28.458  0.00  0.00     0.181 C 
ENDBRANCH  16  21
ENDBRANCH  14  15
ENDBRANCH   1  14
BRANCH   5  23
ATOM     23  C   UNL d   1      57.103   0.645  32.769  0.00  0.00     0.086 C 
BRANCH  23  24
ATOM     24  N   UNL d   1      57.195   0.666  33.582  0.00  0.00    -0.300 N 
ATOM     25  C   UNL d   1      57.952   0.679  33.910  0.00  0.00     0.100 C 
ATOM     26  C   UNL d   1      56.534   0.673  34.079  0.00  0.00     0.100 C 
ENDBRANCH  23  24
ENDBRANCH   5  23
TORSDOF 5
ENDMDL
MODEL 2
REMARK VINA RESULT:      -0.5      8.459      9.853
REMARK  5 active torsions:
REMARK  status: ('A' for Active; 'I' for Inactive)
REMARK    1  A    between atoms: O_8  and  C_1 
REMARK    2  A    between atoms: C_12  and  C_5 
REMARK    3  A    between atoms: C_10  and  O_8 
REMARK    4  A    between atoms: N_16  and  C_12 
REMARK    5  A    between atoms: O_19  and  C_15 
ROOT
ATOM      1  C   UNL d   1      59.711  -9.816  33.070  0.00  0.00     0.161 A 
ATOM      2  C   UNL d   1      59.473  -9.817  31.426  0.00  0.00     0.108 A 
ATOM      3  C   UNL d   1      58.816  -9.816  31.945  0.00  0.00     0.064 A 
ATOM      4  C   UNL d   1      58.933  -9.815  32.758  0.00  0.00     0.222 A 
ATOM      5  C   UNL d   1      59.353  -9.817  30.603  0.00  0.00     0.079 A 
ATOM      6  O   UNL d   1      60.246  -9.817  31.724  0.00  0.00    -0.305 OA
ATOM      7  C   UNL d   1      60.362  -9.817  32.556  0.00  0.00     0.126 A 
ATOM      8  C   UNL d   1      58.047  -9.815  31.626  0.00  0.00     0.009 A 
ATOM      9  C   UNL d   1      58.583  -9.816  30.302  0.00  0.00     0.199 A 
ATOM     10  O   UNL d   1      58.288  -9.814  33.273  0.00  0.00    -0.284 OA
ATOM     11  C   UNL d   1      57.933  -9.815  30.810  0.00  0.00     0.042 A 
ATOM     12  O   UNL d   1      58.475  -9.817  29.481  0.00  0.00    -0.286 OA
ATOM     13  C   UNL d   1      61.126  -9.818  32.862  0.00  0.00     0.029 C 
ENDROOT
BRANCH   1  14
ATOM     14  O   UNL d   1      59.826  -9.816  33.884  0.00  0.00    -0.300 OA
BRANCH  14  15
ATOM     15  C   UNL d   1      60.047  -9.121  34.268  0.00  0.00     0.122 A 
ATOM     16  C   UNL d   1      59.916  -9.039  35.076  0.00  0.00     0.117 A 
ATOM     17  C   UNL d   1      60.137  -8.345  35.459  0.00  0.00     0.026 A 
ATOM     18  C   UNL d   1      60.490  -7.733  35.033  0.00  0.00     0.002 A 
ATOM     19  C   UNL d   1      60.621  -7.821  34.214  0.00  0.00     0.002 A 
ATOM     20  C   UNL d   1      60.400  -8.512  33.838  0.00  0.00     0.027 A 
BRANCH  16  21
ATOM     21  O   UNL d   1      59.563  -9.651  35.501  0.00  0.00    -0.326 OA
ATOM     22  C   UNL d   1      59.531  -9.613  36.322  0.00  0.00     0.181 C 
ENDBRANCH  16  21
ENDBRANCH  14  15
ENDBRANCH   1  14
BRANCH   5  23
ATOM     23  C   UNL d   1      60.003  -9.818  30.095  0.00  0.00     0.086 C 
BRANCH  23  24
ATOM     24  N   UNL d   1      60.030  -9.287  29.472  0.00  0.00    -0.300 N 
ATOM     25  C   UNL d   1      59.807  -9.530  28.715  0.00  0.00     0.100 C 
ATOM     26  C   UNL d   1      60.278  -8.508  29.595  0.00  0.00     0.100 C 
ENDBRANCH  23  24
ENDBRANCH   5  23
TORSDOF 5
ENDMDL
MODEL 3
REMARK VINA RESULT:      -0.2      8.070      9.063
REMARK  5 active torsions:
REMARK  status: ('A' for Active; 'I' for Inactive)
REMARK    1  A    between atoms: O_8  and  C_1 
REMARK    2  A    between atoms: C_12  and  C_5 
REMARK    3  A    between atoms: C_10  and  O_8 
REMARK    4  A    between atoms: N_16  and  C_12 
REMARK    5  A    between atoms: O_19  and  C_15 
ROOT
ATOM      1  C   UNL d   1      58.734  -9.727  30.951  0.00  0.00     0.161 A 
ATOM      2  C   UNL d   1      59.444  -9.546  32.443  0.00  0.00     0.108 A 
ATOM      3  C   UNL d   1      59.920  -9.637  31.761  0.00  0.00     0.064 A 
ATOM      4  C   UNL d   1      59.570  -9.727  31.022  0.00  0.00     0.222 A 
ATOM      5  C   UNL d   1      59.798  -9.455  33.189  0.00  0.00     0.079 A 
ATOM      6  O   UNL d   1      58.617  -9.544  32.383  0.00  0.00    -0.305 OA
ATOM      7  C   UNL d   1      58.263  -9.636  31.627  0.00  0.00     0.126 A 
ATOM      8  C   UNL d   1      60.748  -9.636  31.841  0.00  0.00     0.009 A 
ATOM      9  C   UNL d   1      60.623  -9.456  33.252  0.00  0.00     0.199 A 
ATOM     10  O   UNL d   1      60.036  -9.818  30.348  0.00  0.00    -0.284 OA
ATOM     11  C   UNL d   1      61.095  -9.546  32.582  0.00  0.00     0.042 A 
ATOM     12  O   UNL d   1      60.966  -9.365  34.000  0.00  0.00    -0.286 OA
ATOM     13  C   UNL d   1      57.443  -9.636  31.557  0.00  0.00     0.029 C 
ENDROOT
BRANCH   1  14
ATOM     14  O   UNL d   1      58.387  -9.817  30.211  0.00  0.00    -0.300 OA
BRANCH  14  15
ATOM     15  C   UNL d   1      58.316  -9.169  29.709  0.00  0.00     0.122 A 
ATOM     16  C   UNL d   1      57.685  -9.124  29.184  0.00  0.00     0.117 A 
ATOM     17  C   UNL d   1      57.613  -8.475  28.682  0.00  0.00     0.026 A 
ATOM     18  C   UNL d   1      58.175  -7.871  28.706  0.00  0.00     0.002 A 
ATOM     19  C   UNL d   1      58.813  -7.921  29.240  0.00  0.00     0.002 A 
ATOM     20  C   UNL d   1      58.880  -8.567  29.737  0.00  0.00     0.027 A 
BRANCH  16  21
ATOM     21  O   UNL d   1      57.123  -9.728  29.160  0.00  0.00    -0.326 OA
ATOM     22  C   UNL d   1      56.610  -9.784  28.520  0.00  0.00     0.181 C 
ENDBRANCH  16  21
ENDBRANCH  14  15
ENDBRANCH   1  14
BRANCH   5  23
ATOM     23  C   UNL d   1      59.325  -9.365  33.859  0.00  0.00     0.086 C 
BRANCH  23  24
ATOM     24  N   UNL d   1      59.625  -8.978  34.515  0.00  0.00    -0.300 N 
ATOM     25  C   UNL d   1      59.940  -9.413  35.142  0.00  0.00     0.100 C 
ATOM     26  C   UNL d   1      59.614  -8.151  34.556  0.00  0.00     0.100 C 
ENDBRANCH  23  24
ENDBRANCH   5  23
TORSDOF 5
ENDMDL
