MODEL 1
REMARK VINA RESULT:      -5.0      0.000      0.000
REMARK  6 active torsions:
REMARK  status: ('A' for Active; 'I' for Inactive)
REMARK    1  A    between atoms: C_6  and  S_1 
REMARK    2  A    between atoms: N_7  and  S_1 
REMARK    3  A    between atoms: N_2  and  C_3 
REMARK       I    between atoms: C_4  and  N_2 
REMARK    4  A    between atoms: C_3  and  N_11 
REMARK    5  A    between atoms: C_5  and  C_4 
REMARK    6  A    between atoms: N_11  and  C_19 
ROOT
ATOM      1  C   UNL d   1     -41.650-122.610 -53.871  0.00  0.00     0.104 A 
ATOM      2  C   UNL d   1     -41.509-123.401 -53.670  0.00  0.00     0.014 A 
ATOM      3  C   UNL d   1     -41.618-122.017 -53.304  0.00  0.00     0.014 A 
ATOM      4  C   UNL d   1     -41.300-122.991 -52.303  0.00  0.00     0.084 A 
ATOM      5  C   UNL d   1     -41.442-122.203 -52.513  0.00  0.00     0.020 A 
ATOM      6  C   UNL d   1     -41.332-123.591 -52.876  0.00  0.00     0.020 A 
ENDROOT
BRANCH   4   7
ATOM      7  N   UNL d   1     -41.123-123.174 -51.503  0.00  0.00    -0.217 NA
BRANCH   7   8
ATOM      8  C   UNL d   1     -41.473-122.788 -50.938  0.00  0.00     0.224 C 
ATOM      9  S   UNL d   1     -41.143-122.155 -50.623  0.00  0.00    -0.037 SA
BRANCH   8  10
ATOM     10  N   UNL d   1     -42.702-123.309 -50.546  0.00  0.00    -0.178 NA
ATOM     11  C   UNL d   1     -42.813-123.516 -49.796  0.00  0.00     0.287 C 
ATOM     12  O   UNL d   1     -43.519-123.814 -49.575  0.00  0.00    -0.265 OA
BRANCH  11  13
ATOM     13  C   UNL d   1     -42.235-123.427 -49.281  0.00  0.00     0.087 A 
ATOM     14  S   UNL d   1     -42.213-122.950 -48.657  0.00  0.00    -0.082 SA
ATOM     15  C   UNL d   1     -41.524-123.051 -48.305  0.00  0.00     0.036 A 
ATOM     16  C   UNL d   1     -41.123-123.572 -48.692  0.00  0.00     0.008 A 
ATOM     17  C   UNL d   1     -41.545-123.815 -49.296  0.00  0.00     0.012 A 
ENDBRANCH  11  13
ENDBRANCH   8  10
ENDBRANCH   7   8
ENDBRANCH   4   7
BRANCH   1  18
ATOM     18  S   UNL d   1     -41.827-122.409 -54.658  0.00  0.00     0.271 S 
ATOM     19  O   UNL d   1     -41.158-122.804 -54.929  0.00  0.00    -0.200 OA
ATOM     20  O   UNL d   1     -42.514-122.001 -54.397  0.00  0.00    -0.200 OA
BRANCH  18  21
ATOM     21  N   UNL d   1     -42.034-122.187 -55.462  0.00  0.00    -0.226 N 
ATOM     22  C   UNL d   1     -41.520-121.720 -55.931  0.00  0.00     0.111 C 
ATOM     23  C   UNL d   1     -42.766-122.454 -55.762  0.00  0.00     0.111 C 
ENDBRANCH  18  21
ENDBRANCH   1  18
TORSDOF 6
ENDMDL
MODEL 2
REMARK VINA RESULT:      -4.9      1.195      5.059
REMARK  6 active torsions:
REMARK  status: ('A' for Active; 'I' for Inactive)
REMARK    1  A    between atoms: C_6  and  S_1 
REMARK    2  A    between atoms: N_7  and  S_1 
REMARK    3  A    between atoms: N_2  and  C_3 
REMARK       I    between atoms: C_4  and  N_2 
REMARK    4  A    between atoms: C_3  and  N_11 
REMARK    5  A    between atoms: C_5  and  C_4 
REMARK    6  A    between atoms: N_11  and  C_19 
ROOT
ATOM      1  C   UNL d   1     -41.720-122.968 -50.304  0.00  0.00     0.104 A 
ATOM      2  C   UNL d   1     -41.387-123.541 -50.801  0.00  0.00     0.014 A 
ATOM      3  C   UNL d   1     -41.854-122.204 -50.572  0.00  0.00     0.014 A 
ATOM      4  C   UNL d   1     -41.321-122.557 -51.854  0.00  0.00     0.084 A 
ATOM      5  C   UNL d   1     -41.655-121.991 -51.350  0.00  0.00     0.020 A 
ATOM      6  C   UNL d   1     -41.186-123.331 -51.584  0.00  0.00     0.020 A 
ENDROOT
BRANCH   4   7
ATOM      7  N   UNL d   1     -41.123-122.338 -52.639  0.00  0.00    -0.217 NA
BRANCH   7   8
ATOM      8  C   UNL d   1     -41.456-122.696 -53.231  0.00  0.00     0.224 C 
ATOM      9  S   UNL d   1     -41.131-123.331 -53.547  0.00  0.00    -0.037 SA
BRANCH   8  10
ATOM     10  N   UNL d   1     -42.648-122.125 -53.668  0.00  0.00    -0.178 NA
ATOM     11  C   UNL d   1     -42.732-121.938 -54.426  0.00  0.00     0.287 C 
ATOM     12  O   UNL d   1     -43.416-121.611 -54.673  0.00  0.00    -0.265 OA
BRANCH  11  13
ATOM     13  C   UNL d   1     -42.149-122.074 -54.925  0.00  0.00     0.087 A 
ATOM     14  S   UNL d   1     -41.880-122.768 -55.177  0.00  0.00    -0.082 SA
ATOM     15  C   UNL d   1     -41.291-122.630 -55.671  0.00  0.00     0.036 A 
ATOM     16  C   UNL d   1     -41.190-121.876 -55.730  0.00  0.00     0.008 A 
ATOM     17  C   UNL d   1     -41.709-121.517 -55.277  0.00  0.00     0.012 A 
ENDBRANCH  11  13
ENDBRANCH   8  10
ENDBRANCH   7   8
ENDBRANCH   4   7
BRANCH   1  18
ATOM     18  S   UNL d   1     -41.924-123.166 -49.523  0.00  0.00     0.271 S 
ATOM     19  O   UNL d   1     -41.154-123.413 -49.366  0.00  0.00    -0.200 OA
ATOM     20  O   UNL d   1     -42.713-122.918 -49.669  0.00  0.00    -0.200 OA
BRANCH  18  21
ATOM     21  N   UNL d   1     -42.161-123.362 -48.722  0.00  0.00    -0.226 N 
ATOM     22  C   UNL d   1     -42.953-123.574 -48.541  0.00  0.00     0.111 C 
ATOM     23  C   UNL d   1     -41.577-123.336 -48.125  0.00  0.00     0.111 C 
ENDBRANCH  18  21
ENDBRANCH   1  18
TORSDOF 6
ENDMDL
