MODEL 1
REMARK VINA RESULT:      -5.7      0.000      0.000
REMARK  7 active torsions:
REMARK  status: ('A' for Active; 'I' for Inactive)
REMARK    1  A    between atoms: S_2  and  C_1 
REMARK    2  A    between atoms: N_7  and  S_2 
REMARK    3  A    between atoms: C_8  and  C_3 
REMARK    4  A    between atoms: C_10  and  C_6 
REMARK    5  A    between atoms: O_21  and  C_8 
REMARK    6  A    between atoms: C_17  and  N_9 
REMARK    7  A    between atoms: O_22  and  C_10 
ROOT
ATOM      1  S   UNL d   1     -47.711  13.261  23.102  0.00  0.00     0.277 S 
ATOM      2  O   UNL d   1     -47.407  12.672  23.593  0.00  0.00    -0.199 OA
ATOM      3  O   UNL d   1     -48.276  13.064  23.636  0.00  0.00    -0.199 OA
ENDROOT
BRANCH   1   4
ATOM      4  C   UNL d   1     -48.385  13.729  22.953  0.00  0.00     0.139 A 
ATOM      5  C   UNL d   1     -48.987  13.431  22.506  0.00  0.00     0.082 A 
ATOM      6  C   UNL d   1     -49.565  14.007  22.454  0.00  0.00     0.018 A 
ATOM      7  C   UNL d   1     -50.314  13.963  22.041  0.00  0.00     0.001 C 
ATOM      8  C   UNL d   1     -49.314  14.663  22.874  0.00  0.00     0.093 A 
ATOM      9  S   UNL d   1     -48.572  14.503  23.194  0.00  0.00    -0.069 SA
BRANCH   5  10
ATOM     10  C   UNL d   1     -49.059  12.652  22.126  0.00  0.00     0.297 C 
ATOM     11  O   UNL d   1     -49.302  11.992  22.568  0.00  0.00    -0.259 OA
BRANCH  10  12
ATOM     12  O   UNL d   1     -48.879  12.591  21.316  0.00  0.00    -0.296 OA
ATOM     13  C   UNL d   1     -49.147  11.926  20.881  0.00  0.00     0.185 C 
ENDBRANCH  10  12
ENDBRANCH   5  10
BRANCH   8  14
ATOM     14  C   UNL d   1     -49.748  15.374  22.957  0.00  0.00     0.302 C 
ATOM     15  O   UNL d   1     -49.760  15.922  22.347  0.00  0.00    -0.259 OA
BRANCH  14  16
ATOM     16  O   UNL d   1     -50.164  15.504  23.675  0.00  0.00    -0.295 OA
ATOM     17  C   UNL d   1     -50.872  15.922  23.696  0.00  0.00     0.185 C 
ENDBRANCH  14  16
ENDBRANCH   8  14
ENDBRANCH   1   4
BRANCH   1  18
ATOM     18  N   UNL d   1     -46.924  13.098  22.847  0.00  0.00    -0.226 N 
ATOM     19  C   UNL d   1     -46.553  12.344  22.977  0.00  0.00     0.111 A 
ATOM     20  C   UNL d   1     -45.782  12.202  22.721  0.00  0.00     0.100 A 
ATOM     21  N   UNL d   1     -45.350  12.781  22.333  0.00  0.00    -0.301 N 
ATOM     22  C   UNL d   1     -45.709  13.511  22.208  0.00  0.00     0.100 A 
ATOM     23  C   UNL d   1     -46.492  13.677  22.460  0.00  0.00     0.111 A 
BRANCH  21  24
ATOM     24  C   UNL d   1     -44.603  12.662  22.078  0.00  0.00     0.064 A 
ATOM     25  C   UNL d   1     -44.119  12.075  22.386  0.00  0.00     0.018 A 
ATOM     26  C   UNL d   1     -43.349  11.959  22.116  0.00  0.00     0.002 A 
ATOM     27  C   UNL d   1     -43.059  12.440  21.527  0.00  0.00     0.000 A 
ATOM     28  C   UNL d   1     -43.535  13.033  21.210  0.00  0.00     0.002 A 
ATOM     29  C   UNL d   1     -44.293  13.150  21.473  0.00  0.00     0.018 A 
ENDBRANCH  21  24
ENDBRANCH   1  18
TORSDOF 7
ENDMDL
MODEL 2
REMARK VINA RESULT:      -3.7      1.074      2.080
REMARK  7 active torsions:
REMARK  status: ('A' for Active; 'I' for Inactive)
REMARK    1  A    between atoms: S_2  and  C_1 
REMARK    2  A    between atoms: N_7  and  S_2 
REMARK    3  A    between atoms: C_8  and  C_3 
REMARK    4  A    between atoms: C_10  and  C_6 
REMARK    5  A    between atoms: O_21  and  C_8 
REMARK    6  A    between atoms: C_17  and  N_9 
REMARK    7  A    between atoms: O_22  and  C_10 
ROOT
ATOM      1  S   UNL d   1     -47.551  13.517  23.134  0.00  0.00     0.277 S 
ATOM      2  O   UNL d   1     -47.030  14.046  23.495  0.00  0.00    -0.199 OA
ATOM      3  O   UNL d   1     -47.976  13.998  23.615  0.00  0.00    -0.199 OA
ENDROOT
BRANCH   1   4
ATOM      4  C   UNL d   1     -48.352  13.294  23.081  0.00  0.00     0.139 A 
ATOM      5  C   UNL d   1     -48.839  13.674  22.561  0.00  0.00     0.082 A 
ATOM      6  C   UNL d   1     -49.582  13.342  22.631  0.00  0.00     0.018 A 
ATOM      7  C   UNL d   1     -50.293  13.550  22.200  0.00  0.00     0.001 C 
ATOM      8  C   UNL d   1     -49.551  12.754  23.199  0.00  0.00     0.093 A 
ATOM      9  S   UNL d   1     -48.781  12.712  23.491  0.00  0.00    -0.069 SA
BRANCH   5  10
ATOM     10  C   UNL d   1     -48.659  14.321  22.008  0.00  0.00     0.297 C 
ATOM     11  O   UNL d   1     -48.457  14.154  21.220  0.00  0.00    -0.259 OA
BRANCH  10  12
ATOM     12  O   UNL d   1     -48.694  15.102  22.292  0.00  0.00    -0.296 OA
ATOM     13  C   UNL d   1     -49.060  15.696  21.826  0.00  0.00     0.185 C 
ENDBRANCH  10  12
ENDBRANCH   5  10
BRANCH   8  14
ATOM     14  C   UNL d   1     -50.199  12.279  23.434  0.00  0.00     0.302 C 
ATOM     15  O   UNL d   1     -50.917  12.628  23.621  0.00  0.00    -0.259 OA
BRANCH  14  16
ATOM     16  O   UNL d   1     -50.089  11.447  23.473  0.00  0.00    -0.295 OA
ATOM     17  C   UNL d   1     -50.697  10.941  23.697  0.00  0.00     0.185 C 
ENDBRANCH  14  16
ENDBRANCH   8  14
ENDBRANCH   1   4
BRANCH   1  18
ATOM     18  N   UNL d   1     -46.775  13.343  22.854  0.00  0.00    -0.226 N 
ATOM     19  C   UNL d   1     -46.243  13.950  22.586  0.00  0.00     0.111 A 
ATOM     20  C   UNL d   1     -45.487  13.762  22.315  0.00  0.00     0.100 A 
ATOM     21  N   UNL d   1     -45.224  12.985  22.296  0.00  0.00    -0.301 N 
ATOM     22  C   UNL d   1     -45.739  12.397  22.556  0.00  0.00     0.100 A 
ATOM     23  C   UNL d   1     -46.512  12.566  22.835  0.00  0.00     0.111 A 
BRANCH  21  24
ATOM     24  C   UNL d   1     -44.496  12.784  22.037  0.00  0.00     0.064 A 
ATOM     25  C   UNL d   1     -44.077  13.240  21.500  0.00  0.00     0.018 A 
ATOM     26  C   UNL d   1     -43.325  13.023  21.239  0.00  0.00     0.002 A 
ATOM     27  C   UNL d   1     -42.989  12.338  21.522  0.00  0.00     0.000 A 
ATOM     28  C   UNL d   1     -43.401  11.872  22.062  0.00  0.00     0.002 A 
ATOM     29  C   UNL d   1     -44.140  12.081  22.321  0.00  0.00     0.018 A 
ENDBRANCH  21  24
ENDBRANCH   1  18
TORSDOF 7
ENDMDL
