MODEL 1
REMARK VINA RESULT:       3.7      0.000      0.000
REMARK  8 active torsions:
REMARK  status: ('A' for Active; 'I' for Inactive)
REMARK    1  A    between atoms: S_10  and  C_2 
REMARK    2  A    between atoms: C_7  and  C_4 
REMARK    3  A    between atoms: C_17  and  S_10 
REMARK    4  A    between atoms: C_14  and  C_17 
REMARK    5  A    between atoms: O_18  and  C_14 
REMARK    6  A    between atoms: O_19  and  C_15 
REMARK    7  A    between atoms: C_22  and  O_18 
REMARK    8  A    between atoms: C_23  and  O_19 
ROOT
ATOM      1  C   UNL d   1      32.813  18.857 -22.630  0.00  0.00     0.093 A 
ATOM      2  C   UNL d   1      32.968  19.640 -22.868  0.00  0.00     0.124 A 
ATOM      3  N   UNL d   1      33.109  19.808 -23.664  0.00  0.00    -0.200 NA
ATOM      4  C   UNL d   1      32.799  18.252 -23.192  0.00  0.00     0.028 A 
ATOM      5  C   UNL d   1      32.939  18.421 -23.984  0.00  0.00     0.127 A 
ATOM      6  C   UNL d   1      33.095  19.204 -24.221  0.00  0.00     0.289 A 
ATOM      7  C   UNL d   1      32.673  18.687 -21.841  0.00  0.00     0.103 C 
ATOM      8  C   UNL d   1      32.926  17.816 -24.544  0.00  0.00     0.106 C 
ATOM      9  N   UNL d   1      32.535  18.523 -21.059  0.00  0.00    -0.191 NA
ATOM     10  N   UNL d   1      32.913  17.223 -25.097  0.00  0.00    -0.191 NA
ATOM     11  O   UNL d   1      33.241  19.335 -25.097  0.00  0.00    -0.264 OA
ENDROOT
BRANCH   2  12
ATOM     12  S   UNL d   1      32.970  20.234 -22.235  0.00  0.00    -0.061 SA
BRANCH  12  13
ATOM     13  C   UNL d   1      33.212  21.070 -22.277  0.00  0.00     0.105 C 
BRANCH  13  14
ATOM     14  C   UNL d   1      32.832  21.649 -21.752  0.00  0.00     0.307 C 
ATOM     15  O   UNL d   1      32.520  22.037 -21.928  0.00  0.00    -0.258 OA
BRANCH  14  16
ATOM     16  O   UNL d   1      33.012  21.537 -20.891  0.00  0.00    -0.271 OA
BRANCH  16  17
ATOM     17  C   UNL d   1      32.897  22.268 -20.373  0.00  0.00     0.126 C 
ATOM     18  C   UNL d   1      32.603  21.974 -19.533  0.00  0.00     0.029 C 
ENDBRANCH  16  17
ENDBRANCH  14  16
ENDBRANCH  13  14
ENDBRANCH  12  13
ENDBRANCH   2  12
BRANCH   4  19
ATOM     19  C   UNL d   1      32.646  17.480 -22.957  0.00  0.00     0.024 A 
ATOM     20  C   UNL d   1      31.907  17.148 -23.098  0.00  0.00     0.100 A 
ATOM     21  C   UNL d   1      31.753  16.371 -22.862  0.00  0.00     0.025 A 
ATOM     22  C   UNL d   1      32.337  15.928 -22.486  0.00  0.00     0.002 A 
ATOM     23  C   UNL d   1      33.080  16.264 -22.346  0.00  0.00     0.000 A 
ATOM     24  C   UNL d   1      33.234  17.040 -22.581  0.00  0.00     0.002 A 
BRANCH  20  25
ATOM     25  O   UNL d   1      31.363  17.454 -23.408  0.00  0.00    -0.305 OA
BRANCH  25  26
ATOM     26  C   UNL d   1      30.764  16.949 -23.593  0.00  0.00     0.123 C 
ATOM     27  C   UNL d   1      29.911  17.314 -23.640  0.00  0.00     0.029 C 
ENDBRANCH  25  26
ENDBRANCH  20  25
ENDBRANCH   4  19
TORSDOF 8
ENDMDL
MODEL 2
REMARK VINA RESULT:       4.0      2.561      4.918
REMARK  8 active torsions:
REMARK  status: ('A' for Active; 'I' for Inactive)
REMARK    1  A    between atoms: S_10  and  C_2 
REMARK    2  A    between atoms: C_7  and  C_4 
REMARK    3  A    between atoms: C_17  and  S_10 
REMARK    4  A    between atoms: C_14  and  C_17 
REMARK    5  A    between atoms: O_18  and  C_14 
REMARK    6  A    between atoms: O_19  and  C_15 
REMARK    7  A    between atoms: C_22  and  O_18 
REMARK    8  A    between atoms: C_23  and  O_19 
ROOT
ATOM      1  C   UNL d   1      30.451  17.486 -24.203  0.00  0.00     0.093 A 
ATOM      2  C   UNL d   1      30.095  16.734 -24.188  0.00  0.00     0.124 A 
ATOM      3  N   UNL d   1      30.533  16.067 -24.401  0.00  0.00    -0.200 NA
ATOM      4  C   UNL d   1      31.241  17.563 -24.432  0.00  0.00     0.028 A 
ATOM      5  C   UNL d   1      31.675  16.898 -24.644  0.00  0.00     0.127 A 
ATOM      6  C   UNL d   1      31.319  16.145 -24.628  0.00  0.00     0.289 A 
ATOM      7  C   UNL d   1      30.020  18.150 -23.992  0.00  0.00     0.103 C 
ATOM      8  C   UNL d   1      32.464  16.975 -24.872  0.00  0.00     0.106 C 
ATOM      9  N   UNL d   1      29.588  18.804 -23.783  0.00  0.00    -0.191 NA
ATOM     10  N   UNL d   1      33.240  17.049 -25.097  0.00  0.00    -0.191 NA
ATOM     11  O   UNL d   1      31.836  15.453 -24.868  0.00  0.00    -0.264 OA
ENDROOT
BRANCH   2  12
ATOM     12  S   UNL d   1      29.264  16.714 -23.939  0.00  0.00    -0.061 SA
BRANCH  12  13
ATOM     13  C   UNL d   1      28.709  16.042 -23.957  0.00  0.00     0.105 C 
BRANCH  13  14
ATOM     14  C   UNL d   1      28.103  15.975 -23.337  0.00  0.00     0.307 C 
ATOM     15  O   UNL d   1      28.204  15.782 -22.856  0.00  0.00    -0.258 OA
BRANCH  14  16
ATOM     16  O   UNL d   1      27.299  16.257 -23.578  0.00  0.00    -0.271 OA
BRANCH  16  17
ATOM     17  C   UNL d   1      26.630  16.053 -23.007  0.00  0.00     0.126 C 
ATOM     18  C   UNL d   1      25.930  15.687 -23.512  0.00  0.00     0.029 C 
ENDBRANCH  16  17
ENDBRANCH  14  16
ENDBRANCH  13  14
ENDBRANCH  12  13
ENDBRANCH   2  12
BRANCH   4  19
ATOM     19  C   UNL d   1      31.592  18.305 -24.447  0.00  0.00     0.024 A 
ATOM     20  C   UNL d   1      32.084  18.539 -23.832  0.00  0.00     0.100 A 
ATOM     21  C   UNL d   1      32.437  19.286 -23.848  0.00  0.00     0.025 A 
ATOM     22  C   UNL d   1      32.298  19.797 -24.478  0.00  0.00     0.002 A 
ATOM     23  C   UNL d   1      31.802  19.560 -25.097  0.00  0.00     0.000 A 
ATOM     24  C   UNL d   1      31.449  18.814 -25.081  0.00  0.00     0.002 A 
BRANCH  20  25
ATOM     25  O   UNL d   1      32.251  18.168 -23.266  0.00  0.00    -0.305 OA
BRANCH  25  26
ATOM     26  C   UNL d   1      32.433  18.616 -22.622  0.00  0.00     0.123 C 
ATOM     27  C   UNL d   1      33.203  18.383 -22.157  0.00  0.00     0.029 C 
ENDBRANCH  25  26
ENDBRANCH  20  25
ENDBRANCH   4  19
TORSDOF 8
ENDMDL
MODEL 3
REMARK VINA RESULT:       5.8      2.709      4.447
REMARK  8 active torsions:
REMARK  status: ('A' for Active; 'I' for Inactive)
REMARK    1  A    between atoms: S_10  and  C_2 
REMARK    2  A    between atoms: C_7  and  C_4 
REMARK    3  A    between atoms: C_17  and  S_10 
REMARK    4  A    between atoms: C_14  and  C_17 
REMARK    5  A    between atoms: O_18  and  C_14 
REMARK    6  A    between atoms: O_19  and  C_15 
REMARK    7  A    between atoms: C_22  and  O_18 
REMARK    8  A    between atoms: C_23  and  O_19 
ROOT
ATOM      1  C   UNL d   1      30.689  16.992 -24.590  0.00  0.00     0.093 A 
ATOM      2  C   UNL d   1      30.096  17.576 -24.569  0.00  0.00     0.124 A 
ATOM      3  N   UNL d   1      30.288  18.349 -24.353  0.00  0.00    -0.200 NA
ATOM      4  C   UNL d   1      31.467  17.189 -24.395  0.00  0.00     0.028 A 
ATOM      5  C   UNL d   1      31.656  17.959 -24.180  0.00  0.00     0.127 A 
ATOM      6  C   UNL d   1      31.063  18.543 -24.159  0.00  0.00     0.289 A 
ATOM      7  C   UNL d   1      30.503  16.224 -24.804  0.00  0.00     0.103 C 
ATOM      8  C   UNL d   1      32.433  18.155 -23.985  0.00  0.00     0.106 C 
ATOM      9  N   UNL d   1      30.313  15.464 -25.017  0.00  0.00    -0.191 NA
ATOM     10  N   UNL d   1      33.197  18.350 -23.793  0.00  0.00    -0.191 NA
ATOM     11  O   UNL d   1      31.321  19.368 -23.918  0.00  0.00    -0.264 OA
ENDROOT
BRANCH   2  12
ATOM     12  S   UNL d   1      29.298  17.312 -24.784  0.00  0.00    -0.061 SA
BRANCH  12  13
ATOM     13  C   UNL d   1      28.540  17.724 -24.665  0.00  0.00     0.105 C 
BRANCH  13  14
ATOM     14  C   UNL d   1      28.037  17.503 -23.991  0.00  0.00     0.307 C 
ATOM     15  O   UNL d   1      28.082  17.723 -23.513  0.00  0.00    -0.258 OA
BRANCH  14  16
ATOM     16  O   UNL d   1      27.439  16.873 -24.172  0.00  0.00    -0.271 OA
BRANCH  16  17
ATOM     17  C   UNL d   1      27.004  16.537 -23.456  0.00  0.00     0.126 C 
ATOM     18  C   UNL d   1      26.936  15.610 -23.578  0.00  0.00     0.029 C 
ENDBRANCH  16  17
ENDBRANCH  14  16
ENDBRANCH  13  14
ENDBRANCH  12  13
ENDBRANCH   2  12
BRANCH   4  19
ATOM     19  C   UNL d   1      32.052  16.613 -24.416  0.00  0.00     0.024 A 
ATOM     20  C   UNL d   1      32.146  16.099 -23.780  0.00  0.00     0.100 A 
ATOM     21  C   UNL d   1      32.734  15.520 -23.801  0.00  0.00     0.025 A 
ATOM     22  C   UNL d   1      33.228  15.455 -24.457  0.00  0.00     0.002 A 
ATOM     23  C   UNL d   1      33.133  15.972 -25.096  0.00  0.00     0.000 A 
ATOM     24  C   UNL d   1      32.544  16.551 -25.075  0.00  0.00     0.002 A 
BRANCH  20  25
ATOM     25  O   UNL d   1      31.771  16.090 -23.192  0.00  0.00    -0.305 OA
BRANCH  25  26
ATOM     26  C   UNL d   1      31.936  15.467 -22.709  0.00  0.00     0.123 C 
ATOM     27  C   UNL d   1      32.106  15.667 -21.817  0.00  0.00     0.029 C 
ENDBRANCH  25  26
ENDBRANCH  20  25
ENDBRANCH   4  19
TORSDOF 8
ENDMDL
