MODEL 1
REMARK VINA RESULT:      51.1      0.000      0.000
REMARK  6 active torsions:
REMARK  status: ('A' for Active; 'I' for Inactive)
REMARK    1  A    between atoms: S_6  and  C_2 
REMARK    2  A    between atoms: C_9  and  S_6 
REMARK    3  A    between atoms: C_7  and  C_9 
REMARK    4  A    between atoms: C_8  and  C_7 
REMARK    5  A    between atoms: O_12  and  C_15 
REMARK    6  A    between atoms: C_18  and  O_12 
ROOT
ATOM      1  C   UNL d   1     -49.649  27.157  34.525  0.00  0.00     0.040 A 
ATOM      2  C   UNL d   1     -50.287  26.868  34.952  0.00  0.00     0.005 A 
ATOM      3  C   UNL d   1     -49.661  27.115  33.686  0.00  0.00     0.005 A 
ATOM      4  C   UNL d   1     -50.951  26.495  33.742  0.00  0.00     0.100 A 
ATOM      5  C   UNL d   1     -50.935  26.539  34.568  0.00  0.00     0.025 A 
ATOM      6  C   UNL d   1     -50.310  26.785  33.306  0.00  0.00     0.025 A 
ENDROOT
BRANCH   1   7
ATOM      7  C   UNL d   1     -49.005  27.485  34.906  0.00  0.00     0.202 C 
ATOM      8  O   UNL d   1     -48.330  27.021  35.039  0.00  0.00    -0.286 OA
BRANCH   7   9
ATOM      9  C   UNL d   1     -49.026  28.271  35.156  0.00  0.00     0.080 C 
BRANCH   9  10
ATOM     10  S   UNL d   1     -48.474  28.539  35.717  0.00  0.00    -0.043 SA
BRANCH  10  11
ATOM     11  C   UNL d   1     -48.067  29.249  35.591  0.00  0.00     0.233 A 
ATOM     12  N   UNL d   1     -47.840  29.789  36.167  0.00  0.00    -0.029 NA
ATOM     13  C   UNL d   1     -47.450  30.414  35.800  0.00  0.00     0.788 A 
ATOM     14  N   UNL d   1     -47.437  30.259  34.996  0.00  0.00     0.050 NA
ATOM     15  N   UNL d   1     -47.133  31.073  36.182  0.00  0.00     0.064 N 
ATOM     16  N   UNL d   1     -47.815  29.545  34.858  0.00  0.00    -0.105 NA
ENDBRANCH  10  11
ENDBRANCH   9  10
ENDBRANCH   7   9
ENDBRANCH   1   7
BRANCH   4  17
ATOM     17  O   UNL d   1     -51.596  26.166  33.350  0.00  0.00    -0.307 OA
BRANCH  17  18
ATOM     18  C   UNL d   1     -51.716  25.348  33.368  0.00  0.00     0.100 A 
ATOM     19  C   UNL d   1     -52.470  25.042  33.445  0.00  0.00     0.025 A 
ATOM     20  C   UNL d   1     -52.586  24.234  33.463  0.00  0.00     0.002 A 
ATOM     21  C   UNL d   1     -51.940  23.719  33.403  0.00  0.00     0.000 A 
ATOM     22  C   UNL d   1     -51.176  24.025  33.326  0.00  0.00     0.002 A 
ATOM     23  C   UNL d   1     -51.061  24.842  33.308  0.00  0.00     0.025 A 
ENDBRANCH  17  18
ENDBRANCH   4  17
TORSDOF 6
ENDMDL
MODEL 2
REMARK VINA RESULT:      52.4      1.396      2.258
REMARK  6 active torsions:
REMARK  status: ('A' for Active; 'I' for Inactive)
REMARK    1  A    between atoms: S_6  and  C_2 
REMARK    2  A    between atoms: C_9  and  S_6 
REMARK    3  A    between atoms: C_7  and  C_9 
REMARK    4  A    between atoms: C_8  and  C_7 
REMARK    5  A    between atoms: O_12  and  C_15 
REMARK    6  A    between atoms: C_18  and  O_12 
ROOT
ATOM      1  C   UNL d   1     -48.685  28.612  34.798  0.00  0.00     0.040 A 
ATOM      2  C   UNL d   1     -48.856  28.745  34.007  0.00  0.00     0.005 A 
ATOM      3  C   UNL d   1     -48.801  27.845  35.122  0.00  0.00     0.005 A 
ATOM      4  C   UNL d   1     -49.253  27.381  33.844  0.00  0.00     0.100 A 
ATOM      5  C   UNL d   1     -49.138  28.138  33.529  0.00  0.00     0.025 A 
ATOM      6  C   UNL d   1     -49.083  27.241  34.641  0.00  0.00     0.025 A 
ENDROOT
BRANCH   1   7
ATOM      7  C   UNL d   1     -48.405  29.215  35.273  0.00  0.00     0.202 C 
ATOM      8  O   UNL d   1     -48.412  29.121  36.097  0.00  0.00    -0.286 OA
BRANCH   7   9
ATOM      9  C   UNL d   1     -48.119  29.911  34.935  0.00  0.00     0.080 C 
BRANCH   9  10
ATOM     10  S   UNL d   1     -47.641  30.421  35.385  0.00  0.00    -0.043 SA
BRANCH  10  11
ATOM     11  C   UNL d   1     -47.548  31.211  35.155  0.00  0.00     0.233 A 
ATOM     12  N   UNL d   1     -47.918  31.580  34.521  0.00  0.00    -0.029 NA
ATOM     13  C   UNL d   1     -47.667  32.364  34.493  0.00  0.00     0.788 A 
ATOM     14  N   UNL d   1     -47.141  32.477  35.111  0.00  0.00     0.050 NA
ATOM     15  N   UNL d   1     -47.908  32.926  33.939  0.00  0.00     0.064 N 
ATOM     16  N   UNL d   1     -47.061  31.773  35.523  0.00  0.00    -0.105 NA
ENDBRANCH  10  11
ENDBRANCH   9  10
ENDBRANCH   7   9
ENDBRANCH   1   7
BRANCH   4  17
ATOM     17  O   UNL d   1     -49.535  26.768  33.372  0.00  0.00    -0.307 OA
BRANCH  17  18
ATOM     18  C   UNL d   1     -50.345  26.604  33.351  0.00  0.00     0.100 A 
ATOM     19  C   UNL d   1     -50.610  25.831  33.352  0.00  0.00     0.025 A 
ATOM     20  C   UNL d   1     -51.411  25.671  33.331  0.00  0.00     0.002 A 
ATOM     21  C   UNL d   1     -51.960  26.292  33.308  0.00  0.00     0.000 A 
ATOM     22  C   UNL d   1     -51.694  27.074  33.306  0.00  0.00     0.002 A 
ATOM     23  C   UNL d   1     -50.885  27.234  33.328  0.00  0.00     0.025 A 
ENDBRANCH  17  18
ENDBRANCH   4  17
TORSDOF 6
ENDMDL
MODEL 3
REMARK VINA RESULT:      53.1      2.598      6.028
REMARK  6 active torsions:
REMARK  status: ('A' for Active; 'I' for Inactive)
REMARK    1  A    between atoms: S_6  and  C_2 
REMARK    2  A    between atoms: C_9  and  S_6 
REMARK    3  A    between atoms: C_7  and  C_9 
REMARK    4  A    between atoms: C_8  and  C_7 
REMARK    5  A    between atoms: O_12  and  C_15 
REMARK    6  A    between atoms: C_18  and  O_12 
ROOT
ATOM      1  C   UNL d   1     -48.010  29.291  35.158  0.00  0.00     0.040 A 
ATOM      2  C   UNL d   1     -48.200  29.804  34.546  0.00  0.00     0.005 A 
ATOM      3  C   UNL d   1     -47.551  29.572  35.803  0.00  0.00     0.005 A 
ATOM      4  C   UNL d   1     -47.494  30.866  35.192  0.00  0.00     0.100 A 
ATOM      5  C   UNL d   1     -47.947  30.586  34.558  0.00  0.00     0.025 A 
ATOM      6  C   UNL d   1     -47.299  30.354  35.812  0.00  0.00     0.025 A 
ENDROOT
BRANCH   1   7
ATOM      7  C   UNL d   1     -48.261  28.514  35.146  0.00  0.00     0.202 C 
ATOM      8  O   UNL d   1     -47.924  27.968  35.671  0.00  0.00    -0.286 OA
BRANCH   7   9
ATOM      9  C   UNL d   1     -48.846  28.275  34.616  0.00  0.00     0.080 C 
BRANCH   9  10
ATOM     10  S   UNL d   1     -49.140  27.498  34.650  0.00  0.00    -0.043 SA
BRANCH  10  11
ATOM     11  C   UNL d   1     -49.775  27.274  34.167  0.00  0.00     0.233 A 
ATOM     12  N   UNL d   1     -50.080  26.515  34.086  0.00  0.00    -0.029 NA
ATOM     13  C   UNL d   1     -50.707  26.542  33.553  0.00  0.00     0.788 A 
ATOM     14  N   UNL d   1     -50.787  27.319  33.306  0.00  0.00     0.050 NA
ATOM     15  N   UNL d   1     -51.165  25.898  33.316  0.00  0.00     0.064 N 
ATOM     16  N   UNL d   1     -50.219  27.776  33.678  0.00  0.00    -0.105 NA
ENDBRANCH  10  11
ENDBRANCH   9  10
ENDBRANCH   7   9
ENDBRANCH   1   7
BRANCH   4  17
ATOM     17  O   UNL d   1     -47.237  31.648  35.211  0.00  0.00    -0.307 OA
BRANCH  17  18
ATOM     18  C   UNL d   1     -47.471  32.173  34.617  0.00  0.00     0.100 A 
ATOM     19  C   UNL d   1     -48.206  32.529  34.646  0.00  0.00     0.025 A 
ATOM     20  C   UNL d   1     -48.435  33.048  34.058  0.00  0.00     0.002 A 
ATOM     21  C   UNL d   1     -47.924  33.216  33.428  0.00  0.00     0.000 A 
ATOM     22  C   UNL d   1     -47.181  32.857  33.396  0.00  0.00     0.002 A 
ATOM     23  C   UNL d   1     -46.950  32.333  33.991  0.00  0.00     0.025 A 
ENDBRANCH  17  18
ENDBRANCH   4  17
TORSDOF 6
ENDMDL
