MODEL 1
REMARK VINA RESULT:      31.3      0.000      0.000
REMARK  3 active torsions:
REMARK  status: ('A' for Active; 'I' for Inactive)
REMARK       I    between atoms: C_3  and  N_1 
REMARK    1  A    between atoms: C_6  and  C_3 
REMARK    2  A    between atoms: O_9  and  C_6 
REMARK    3  A    between atoms: C_10  and  O_9 
ROOT
ATOM      1  N   UNL d   1      59.577  49.630  51.616  0.00  0.00    -0.272 N 
ATOM      2  C   UNL d   1      60.020  49.657  50.918  0.00  0.00     0.067 A 
ATOM      3  C   UNL d   1      58.747  49.621  51.676  0.00  0.00     0.290 C 
ATOM      4  C   UNL d   1      60.083  49.616  52.237  0.00  0.00     0.083 A 
ATOM      5  C   UNL d   1      60.809  49.658  51.118  0.00  0.00     0.018 A 
ATOM      6  O   UNL d   1      58.397  49.594  52.419  0.00  0.00    -0.264 OA
ATOM      7  C   UNL d   1      60.864  49.633  51.939  0.00  0.00     0.021 A 
ATOM      8  C   UNL d   1      59.807  49.680  50.127  0.00  0.00     0.018 A 
ATOM      9  C   UNL d   1      61.392  49.682  50.532  0.00  0.00     0.002 A 
ATOM     10  C   UNL d   1      60.372  49.704  49.542  0.00  0.00     0.002 A 
ATOM     11  C   UNL d   1      61.180  49.705  49.752  0.00  0.00     0.000 A 
ENDROOT
BRANCH   3  12
ATOM     12  C   UNL d   1      58.292  49.638  50.989  0.00  0.00     0.184 C 
BRANCH  12  13
ATOM     13  O   UNL d   1      57.492  49.414  51.027  0.00  0.00    -0.300 OA
BRANCH  13  14
ATOM     14  C   UNL d   1      57.089  49.217  50.340  0.00  0.00     0.100 A 
ATOM     15  C   UNL d   1      56.459  49.692  50.078  0.00  0.00     0.025 A 
ATOM     16  C   UNL d   1      56.054  49.499  49.392  0.00  0.00     0.002 A 
ATOM     17  C   UNL d   1      56.273  48.831  48.960  0.00  0.00     0.000 A 
ATOM     18  C   UNL d   1      56.900  48.347  49.207  0.00  0.00     0.002 A 
ATOM     19  C   UNL d   1      57.307  48.552  49.908  0.00  0.00     0.025 A 
ENDBRANCH  13  14
ENDBRANCH  12  13
ENDBRANCH   3  12
TORSDOF 3
ENDMDL
