MODEL 1
REMARK VINA RESULT:      -6.5      0.000      0.000
REMARK  5 active torsions:
REMARK  status: ('A' for Active; 'I' for Inactive)
REMARK    1  A    between atoms: S_9  and  C_2 
REMARK    2  A    between atoms: C_7  and  C_18 
REMARK       I    between atoms: N_13  and  C_7 
REMARK    3  A    between atoms: C_18  and  S_9 
REMARK    4  A    between atoms: C_20  and  N_13 
REMARK    5  A    between atoms: C_19  and  C_20 
ROOT
ATOM      1  C   UNL d   1     -41.373-122.425 -51.103  0.00  0.00     0.286 C 
ATOM      2  N   UNL d   1     -41.318-122.332 -51.924  0.00  0.00    -0.206 NA
ATOM      3  O   UNL d   1     -41.173-121.800 -50.601  0.00  0.00    -0.265 OA
ENDROOT
BRANCH   2   4
ATOM      4  C   UNL d   1     -41.521-122.966 -52.439  0.00  0.00     0.102 C 
BRANCH   4   5
ATOM      5  C   UNL d   1     -41.546-122.838 -53.269  0.00  0.00     0.021 A 
ATOM      6  C   UNL d   1     -41.996-122.215 -53.587  0.00  0.00     0.028 A 
ATOM      7  C   UNL d   1     -42.011-122.100 -54.410  0.00  0.00     0.119 A 
ATOM      8  O   UNL d   1     -42.389-121.552 -54.879  0.00  0.00    -0.300 OA
ATOM      9  C   UNL d   1     -41.581-122.603 -54.902  0.00  0.00     0.119 A 
ATOM     10  C   UNL d   1     -42.210-121.696 -55.658  0.00  0.00     0.304 A 
ATOM     11  O   UNL d   1     -41.697-122.364 -55.671  0.00  0.00    -0.300 OA
ATOM     12  C   UNL d   1     -41.140-123.216 -54.576  0.00  0.00     0.026 A 
ATOM     13  C   UNL d   1     -41.128-123.328 -53.751  0.00  0.00     0.004 A 
ENDBRANCH   4   5
ENDBRANCH   2   4
BRANCH   1  14
ATOM     14  C   UNL d   1     -41.629-123.149 -50.799  0.00  0.00     0.101 C 
BRANCH  14  15
ATOM     15  S   UNL d   1     -41.123-123.796 -50.729  0.00  0.00    -0.041 SA
BRANCH  15  16
ATOM     16  C   UNL d   1     -41.801-123.579 -50.324  0.00  0.00     0.233 A 
ATOM     17  N   UNL d   1     -41.854-123.322 -49.529  0.00  0.00    -0.029 NA
ATOM     18  C   UNL d   1     -42.642-123.167 -49.367  0.00  0.00     0.788 A 
ATOM     19  N   UNL d   1     -43.082-123.320 -50.037  0.00  0.00     0.050 NA
ATOM     20  N   UNL d   1     -42.945-122.899 -48.639  0.00  0.00     0.064 N 
ATOM     21  N   UNL d   1     -42.581-123.574 -50.635  0.00  0.00    -0.105 NA
ENDBRANCH  15  16
ENDBRANCH  14  15
ENDBRANCH   1  14
TORSDOF 5
ENDMDL
MODEL 2
REMARK VINA RESULT:      -5.4      1.888      4.510
REMARK  5 active torsions:
REMARK  status: ('A' for Active; 'I' for Inactive)
REMARK    1  A    between atoms: S_9  and  C_2 
REMARK    2  A    between atoms: C_7  and  C_18 
REMARK       I    between atoms: N_13  and  C_7 
REMARK    3  A    between atoms: C_18  and  S_9 
REMARK    4  A    between atoms: C_20  and  N_13 
REMARK    5  A    between atoms: C_19  and  C_20 
ROOT
ATOM      1  C   UNL d   1     -41.418-121.938 -53.187  0.00  0.00     0.286 C 
ATOM      2  N   UNL d   1     -41.399-122.130 -52.381  0.00  0.00    -0.206 NA
ATOM      3  O   UNL d   1     -41.247-121.167 -53.433  0.00  0.00    -0.265 OA
ENDROOT
BRANCH   2   4
ATOM      4  C   UNL d   1     -41.571-122.913 -52.126  0.00  0.00     0.102 C 
BRANCH   4   5
ATOM      5  C   UNL d   1     -41.621-123.083 -51.305  0.00  0.00     0.021 A 
ATOM      6  C   UNL d   1     -42.178-122.692 -50.826  0.00  0.00     0.028 A 
ATOM      7  C   UNL d   1     -42.216-122.870 -50.015  0.00  0.00     0.119 A 
ATOM      8  O   UNL d   1     -42.690-122.589 -49.415  0.00  0.00    -0.300 OA
ATOM      9  C   UNL d   1     -41.704-123.431 -49.694  0.00  0.00     0.119 A 
ATOM     10  C   UNL d   1     -42.489-122.959 -48.719  0.00  0.00     0.304 A 
ATOM     11  O   UNL d   1     -41.864-123.493 -48.898  0.00  0.00    -0.300 OA
ATOM     12  C   UNL d   1     -41.158-123.811 -50.177  0.00  0.00     0.026 A 
ATOM     13  C   UNL d   1     -41.123-123.629 -50.990  0.00  0.00     0.004 A 
ENDBRANCH   4   5
ENDBRANCH   2   4
BRANCH   1  14
ATOM     14  C   UNL d   1     -41.608-122.526 -53.734  0.00  0.00     0.101 C 
BRANCH  14  15
ATOM     15  S   UNL d   1     -41.123-123.182 -53.854  0.00  0.00    -0.041 SA
BRANCH  15  16
ATOM     16  C   UNL d   1     -41.651-122.789 -54.341  0.00  0.00     0.233 A 
ATOM     17  N   UNL d   1     -41.470-122.338 -55.022  0.00  0.00    -0.029 NA
ATOM     18  C   UNL d   1     -42.174-122.050 -55.329  0.00  0.00     0.788 A 
ATOM     19  N   UNL d   1     -42.788-122.309 -54.859  0.00  0.00     0.050 NA
ATOM     20  N   UNL d   1     -42.250-121.574 -56.007  0.00  0.00     0.064 N 
ATOM     21  N   UNL d   1     -42.486-122.764 -54.247  0.00  0.00    -0.105 NA
ENDBRANCH  15  16
ENDBRANCH  14  15
ENDBRANCH   1  14
TORSDOF 5
ENDMDL
MODEL 3
REMARK VINA RESULT:      -5.1      1.695      4.731
REMARK  5 active torsions:
REMARK  status: ('A' for Active; 'I' for Inactive)
REMARK    1  A    between atoms: S_9  and  C_2 
REMARK    2  A    between atoms: C_7  and  C_18 
REMARK       I    between atoms: N_13  and  C_7 
REMARK    3  A    between atoms: C_18  and  S_9 
REMARK    4  A    between atoms: C_20  and  N_13 
REMARK    5  A    between atoms: C_19  and  C_20 
ROOT
ATOM      1  C   UNL d   1     -41.396-121.878 -52.040  0.00  0.00     0.286 C 
ATOM      2  N   UNL d   1     -41.530-122.049 -51.241  0.00  0.00    -0.206 NA
ATOM      3  O   UNL d   1     -41.123-121.130 -52.264  0.00  0.00    -0.265 OA
ENDROOT
BRANCH   2   4
ATOM      4  C   UNL d   1     -41.807-122.809 -51.009  0.00  0.00     0.102 C 
BRANCH   4   5
ATOM      5  C   UNL d   1     -41.998-122.956 -50.205  0.00  0.00     0.021 A 
ATOM      6  C   UNL d   1     -41.396-123.041 -49.637  0.00  0.00     0.028 A 
ATOM      7  C   UNL d   1     -41.599-123.187 -48.845  0.00  0.00     0.119 A 
ATOM      8  O   UNL d   1     -41.148-123.294 -48.175  0.00  0.00    -0.300 OA
ATOM      9  C   UNL d   1     -42.393-123.245 -48.629  0.00  0.00     0.119 A 
ATOM     10  C   UNL d   1     -41.638-123.419 -47.538  0.00  0.00     0.304 A 
ATOM     11  O   UNL d   1     -42.427-123.388 -47.828  0.00  0.00    -0.300 OA
ATOM     12  C   UNL d   1     -42.980-123.159 -49.199  0.00  0.00     0.026 A 
ATOM     13  C   UNL d   1     -42.772-123.013 -49.992  0.00  0.00     0.004 A 
ENDBRANCH   4   5
ENDBRANCH   2   4
BRANCH   1  14
ATOM     14  C   UNL d   1     -41.538-122.464 -52.604  0.00  0.00     0.101 C 
BRANCH  14  15
ATOM     15  S   UNL d   1     -41.123-123.177 -52.605  0.00  0.00    -0.041 SA
BRANCH  15  16
ATOM     16  C   UNL d   1     -41.521-122.768 -53.193  0.00  0.00     0.233 A 
ATOM     17  N   UNL d   1     -41.344-122.761 -54.011  0.00  0.00    -0.029 NA
ATOM     18  C   UNL d   1     -41.891-122.277 -54.383  0.00  0.00     0.788 A 
ATOM     19  N   UNL d   1     -42.404-121.982 -53.821  0.00  0.00     0.050 NA
ATOM     20  N   UNL d   1     -41.919-122.112 -55.199  0.00  0.00     0.064 N 
ATOM     21  N   UNL d   1     -42.191-122.274 -53.084  0.00  0.00    -0.105 NA
ENDBRANCH  15  16
ENDBRANCH  14  15
ENDBRANCH   1  14
TORSDOF 5
ENDMDL
