MODEL 1
REMARK VINA RESULT:      -1.5      0.000      0.000
REMARK  7 active torsions:
REMARK  status: ('A' for Active; 'I' for Inactive)
REMARK    1  A    between atoms: N_2  and  C_1 
REMARK    2  A    between atoms: N_4  and  C_3 
REMARK       I    between atoms: C_6  and  N_4 
REMARK    3  A    between atoms: C_7  and  C_6 
REMARK    4  A    between atoms: C_10  and  C_7 
REMARK    5  A    between atoms: C_14  and  C_10 
REMARK    6  A    between atoms: O_16  and  C_13 
REMARK    7  A    between atoms: C_17  and  O_16 
ROOT
ATOM      1  C   UNL d   1      56.525   0.298  33.427  0.00  0.00     0.146 A 
ATOM      2  C   UNL d   1      56.592   0.380  32.641  0.00  0.00     0.107 A 
ATOM      3  C   UNL d   1      55.796   0.397  33.796  0.00  0.00     0.050 A 
ATOM      4  C   UNL d   1      55.916   0.570  32.186  0.00  0.00     0.023 A 
ATOM      5  C   UNL d   1      55.125   0.582  33.375  0.00  0.00     0.102 A 
ATOM      6  C   UNL d   1      55.194   0.669  32.548  0.00  0.00     0.026 A 
ENDROOT
BRANCH   2   7
ATOM      7  N   UNL d   1      57.327   0.285  32.229  0.00  0.00    -0.206 NA
ATOM      8  C   UNL d   1      57.305   0.360  31.449  0.00  0.00     0.279 C 
ATOM      9  O   UNL d   1      56.824   0.481  31.076  0.00  0.00    -0.265 OA
BRANCH   8  10
ATOM     10  C   UNL d   1      58.034   0.265  31.044  0.00  0.00     0.062 C 
BRANCH  10  11
ATOM     11  C   UNL d   1      58.064   0.234  30.218  0.00  0.00     0.005 C 
BRANCH  11  12
ATOM     12  C   UNL d   1      58.787   0.057  29.845  0.00  0.00     0.000 A 
ATOM     13  C   UNL d   1      59.440   0.416  30.052  0.00  0.00     0.000 A 
ATOM     14  C   UNL d   1      60.141   0.207  29.651  0.00  0.00     0.000 A 
ATOM     15  C   UNL d   1      60.120  -0.356  29.067  0.00  0.00     0.000 A 
ATOM     16  C   UNL d   1      59.461  -0.716  28.861  0.00  0.00     0.000 A 
ATOM     17  C   UNL d   1      58.764  -0.518  29.250  0.00  0.00     0.000 A 
ENDBRANCH  11  12
ENDBRANCH  10  11
ENDBRANCH   8  10
ENDBRANCH   2   7
BRANCH   1  18
ATOM     18  N   UNL d   1      57.222   0.108  33.856  0.00  0.00    -0.112 N 
ATOM     19  O   UNL d   1      57.752   0.682  34.091  0.00  0.00    -0.532 OA
ATOM     20  O   UNL d   1      57.384  -0.711  34.054  0.00  0.00    -0.532 OA
ENDBRANCH   1  18
BRANCH   5  21
ATOM     21  O   UNL d   1      54.391   0.680  33.765  0.00  0.00    -0.305 OA
BRANCH  21  22
ATOM     22  C   UNL d   1      54.326   0.647  34.557  0.00  0.00     0.123 C 
ATOM     23  C   UNL d   1      53.557   0.583  34.923  0.00  0.00     0.029 C 
ENDBRANCH  21  22
ENDBRANCH   5  21
TORSDOF 7
ENDMDL
MODEL 2
REMARK VINA RESULT:      -0.5      9.884     10.843
REMARK  7 active torsions:
REMARK  status: ('A' for Active; 'I' for Inactive)
REMARK    1  A    between atoms: N_2  and  C_1 
REMARK    2  A    between atoms: N_4  and  C_3 
REMARK       I    between atoms: C_6  and  N_4 
REMARK    3  A    between atoms: C_7  and  C_6 
REMARK    4  A    between atoms: C_10  and  C_7 
REMARK    5  A    between atoms: C_14  and  C_10 
REMARK    6  A    between atoms: O_16  and  C_13 
REMARK    7  A    between atoms: C_17  and  O_16 
ROOT
ATOM      1  C   UNL d   1      59.529  -9.605  30.826  0.00  0.00     0.146 A 
ATOM      2  C   UNL d   1      59.211  -9.697  31.548  0.00  0.00     0.107 A 
ATOM      3  C   UNL d   1      59.052  -9.617  30.156  0.00  0.00     0.050 A 
ATOM      4  C   UNL d   1      58.385  -9.806  31.625  0.00  0.00     0.023 A 
ATOM      5  C   UNL d   1      58.246  -9.722  30.206  0.00  0.00     0.102 A 
ATOM      6  C   UNL d   1      57.911  -9.818  30.963  0.00  0.00     0.026 A 
ENDROOT
BRANCH   2   7
ATOM      7  N   UNL d   1      59.673  -9.690  32.259  0.00  0.00    -0.206 NA
ATOM      8  C   UNL d   1      59.289  -9.545  32.926  0.00  0.00     0.279 C 
ATOM      9  O   UNL d   1      58.686  -9.432  33.019  0.00  0.00    -0.265 OA
BRANCH   8  10
ATOM     10  C   UNL d   1      59.748  -9.539  33.628  0.00  0.00     0.062 C 
BRANCH  10  11
ATOM     11  C   UNL d   1      59.392  -9.537  34.374  0.00  0.00     0.005 C 
BRANCH  11  12
ATOM     12  C   UNL d   1      59.828  -9.273  35.032  0.00  0.00     0.000 A 
ATOM     13  C   UNL d   1      60.447  -9.663  35.281  0.00  0.00     0.000 A 
ATOM     14  C   UNL d   1      60.854  -9.361  35.944  0.00  0.00     0.000 A 
ATOM     15  C   UNL d   1      60.594  -8.681  36.303  0.00  0.00     0.000 A 
ATOM     16  C   UNL d   1      59.970  -8.291  36.049  0.00  0.00     0.000 A 
ATOM     17  C   UNL d   1      59.561  -8.579  35.396  0.00  0.00     0.000 A 
ENDBRANCH  11  12
ENDBRANCH  10  11
ENDBRANCH   8  10
ENDBRANCH   2   7
BRANCH   1  18
ATOM     18  N   UNL d   1      60.361  -9.498  30.782  0.00  0.00    -0.112 N 
ATOM     19  O   UNL d   1      60.807  -9.325  31.443  0.00  0.00    -0.532 OA
ATOM     20  O   UNL d   1      60.755  -9.570  30.024  0.00  0.00    -0.532 OA
ENDBRANCH   1  18
BRANCH   5  21
ATOM     21  O   UNL d   1      57.775  -9.731  29.514  0.00  0.00    -0.305 OA
BRANCH  21  22
ATOM     22  C   UNL d   1      57.344  -9.103  29.288  0.00  0.00     0.123 C 
ATOM     23  C   UNL d   1      57.018  -9.067  28.498  0.00  0.00     0.029 C 
ENDBRANCH  21  22
ENDBRANCH   5  21
TORSDOF 7
ENDMDL
MODEL 3
REMARK VINA RESULT:      -0.4      9.464     10.923
REMARK  7 active torsions:
REMARK  status: ('A' for Active; 'I' for Inactive)
REMARK    1  A    between atoms: N_2  and  C_1 
REMARK    2  A    between atoms: N_4  and  C_3 
REMARK       I    between atoms: C_6  and  N_4 
REMARK    3  A    between atoms: C_7  and  C_6 
REMARK    4  A    between atoms: C_10  and  C_7 
REMARK    5  A    between atoms: C_14  and  C_10 
REMARK    6  A    between atoms: O_16  and  C_13 
REMARK    7  A    between atoms: C_17  and  O_16 
ROOT
ATOM      1  C   UNL d   1      59.526  -9.744  31.783  0.00  0.00     0.146 A 
ATOM      2  C   UNL d   1      60.116  -9.748  32.313  0.00  0.00     0.107 A 
ATOM      3  C   UNL d   1      59.688  -9.767  30.977  0.00  0.00     0.050 A 
ATOM      4  C   UNL d   1      60.909  -9.776  32.049  0.00  0.00     0.023 A 
ATOM      5  C   UNL d   1      60.452  -9.795  30.695  0.00  0.00     0.102 A 
ATOM      6  C   UNL d   1      61.073  -9.799  31.252  0.00  0.00     0.026 A 
ENDROOT
BRANCH   2   7
ATOM      7  N   UNL d   1      59.983  -9.724  33.150  0.00  0.00    -0.206 NA
ATOM      8  C   UNL d   1      60.494  -9.309  33.576  0.00  0.00     0.279 C 
ATOM      9  O   UNL d   1      60.991  -8.987  33.393  0.00  0.00    -0.265 OA
BRANCH   8  10
ATOM     10  C   UNL d   1      60.360  -9.288  34.404  0.00  0.00     0.062 C 
BRANCH  10  11
ATOM     11  C   UNL d   1      60.748  -8.740  34.887  0.00  0.00     0.005 C 
BRANCH  11  12
ATOM     12  C   UNL d   1      60.299  -8.255  35.393  0.00  0.00     0.000 A 
ATOM     13  C   UNL d   1      59.739  -8.553  35.835  0.00  0.00     0.000 A 
ATOM     14  C   UNL d   1      59.315  -8.030  36.327  0.00  0.00     0.000 A 
ATOM     15  C   UNL d   1      59.497  -7.239  36.330  0.00  0.00     0.000 A 
ATOM     16  C   UNL d   1      60.062  -6.943  35.883  0.00  0.00     0.000 A 
ATOM     17  C   UNL d   1      60.487  -7.449  35.394  0.00  0.00     0.000 A 
ENDBRANCH  11  12
ENDBRANCH  10  11
ENDBRANCH   8  10
ENDBRANCH   2   7
BRANCH   1  18
ATOM     18  N   UNL d   1      58.740  -9.715  32.080  0.00  0.00    -0.112 N 
ATOM     19  O   UNL d   1      58.580  -9.782  32.877  0.00  0.00    -0.532 OA
ATOM     20  O   UNL d   1      58.087  -9.612  31.534  0.00  0.00    -0.532 OA
ENDBRANCH   1  18
BRANCH   5  21
ATOM     21  O   UNL d   1      60.601  -9.818  29.872  0.00  0.00    -0.305 OA
BRANCH  21  22
ATOM     22  C   UNL d   1      60.739  -9.160  29.449  0.00  0.00     0.123 C 
ATOM     23  C   UNL d   1      60.861  -9.210  28.604  0.00  0.00     0.029 C 
ENDBRANCH  21  22
ENDBRANCH   5  21
TORSDOF 7
ENDMDL
