MODEL 1
REMARK VINA RESULT:      80.8      0.000      0.000
REMARK  4 active torsions:
REMARK  status: ('A' for Active; 'I' for Inactive)
REMARK    1  A    between atoms: C_7  and  C_2 
REMARK    2  A    between atoms: C_9  and  C_4 
REMARK    3  A    between atoms: C_15  and  C_7 
REMARK    4  A    between atoms: N_8  and  C_9 
ROOT
ATOM      1  C   UNL d   1     -48.035  29.109  34.949  0.00  0.00     0.108 A 
ATOM      2  C   UNL d   1     -48.573  28.020  34.385  0.00  0.00     0.139 A 
ATOM      3  O   UNL d   1     -48.171  28.730  34.223  0.00  0.00    -0.304 OA
ATOM      4  C   UNL d   1     -47.666  29.820  35.138  0.00  0.00     0.079 A 
ATOM      5  C   UNL d   1     -48.351  28.637  35.550  0.00  0.00     0.064 A 
ATOM      6  C   UNL d   1     -48.681  27.967  35.201  0.00  0.00     0.220 A 
ATOM      7  C   UNL d   1     -48.296  28.879  36.336  0.00  0.00     0.009 A 
ATOM      8  C   UNL d   1     -47.615  30.056  35.920  0.00  0.00     0.199 A 
ATOM      9  O   UNL d   1     -49.058  27.346  35.600  0.00  0.00    -0.284 OA
ATOM     10  C   UNL d   1     -47.926  29.592  36.523  0.00  0.00     0.042 A 
ATOM     11  O   UNL d   1     -47.244  30.770  36.106  0.00  0.00    -0.286 OA
ENDROOT
BRANCH   2  12
ATOM     12  C   UNL d   1     -48.819  27.467  33.821  0.00  0.00     0.028 C 
BRANCH  12  13
ATOM     13  C   UNL d   1     -49.625  27.332  33.693  0.00  0.00     0.002 A 
ATOM     14  C   UNL d   1     -50.108  27.954  33.447  0.00  0.00     0.000 A 
ATOM     15  C   UNL d   1     -50.911  27.827  33.318  0.00  0.00     0.000 A 
ATOM     16  C   UNL d   1     -51.234  27.070  33.435  0.00  0.00     0.000 A 
ATOM     17  C   UNL d   1     -50.750  26.448  33.681  0.00  0.00     0.000 A 
ATOM     18  C   UNL d   1     -52.038  26.939  33.306  0.00  0.00     0.000 C 
ATOM     19  C   UNL d   1     -49.944  26.583  33.809  0.00  0.00     0.000 A 
ENDBRANCH  12  13
ENDBRANCH   2  12
BRANCH   4  20
ATOM     20  C   UNL d   1     -47.354  30.287  34.543  0.00  0.00     0.086 C 
BRANCH  20  21
ATOM     21  N   UNL d   1     -47.590  31.066  34.364  0.00  0.00    -0.300 N 
ATOM     22  C   UNL d   1     -47.013  31.644  34.292  0.00  0.00     0.100 A 
ATOM     23  C   UNL d   1     -47.236  32.417  34.114  0.00  0.00     0.100 A 
ATOM     24  N   UNL d   1     -48.028  32.590  34.014  0.00  0.00    -0.299 N 
ATOM     25  C   UNL d   1     -48.591  32.002  34.089  0.00  0.00     0.100 A 
ATOM     26  C   UNL d   1     -48.252  33.354  33.838  0.00  0.00     0.100 C 
ATOM     27  C   UNL d   1     -48.364  31.241  34.264  0.00  0.00     0.100 A 
ENDBRANCH  20  21
ENDBRANCH   4  20
TORSDOF 4
ENDMDL
MODEL 2
REMARK VINA RESULT:      82.3      2.882      4.935
REMARK  4 active torsions:
REMARK  status: ('A' for Active; 'I' for Inactive)
REMARK    1  A    between atoms: C_7  and  C_2 
REMARK    2  A    between atoms: C_9  and  C_4 
REMARK    3  A    between atoms: C_15  and  C_7 
REMARK    4  A    between atoms: N_8  and  C_9 
ROOT
ATOM      1  C   UNL d   1     -50.328  25.176  33.373  0.00  0.00     0.108 A 
ATOM      2  C   UNL d   1     -51.538  24.602  33.333  0.00  0.00     0.139 A 
ATOM      3  O   UNL d   1     -51.143  25.334  33.360  0.00  0.00    -0.304 OA
ATOM      4  C   UNL d   1     -49.672  25.672  33.400  0.00  0.00     0.079 A 
ATOM      5  C   UNL d   1     -50.224  24.356  33.354  0.00  0.00     0.064 A 
ATOM      6  C   UNL d   1     -50.969  24.005  33.330  0.00  0.00     0.220 A 
ATOM      7  C   UNL d   1     -49.463  24.036  33.362  0.00  0.00     0.009 A 
ATOM      8  C   UNL d   1     -48.919  25.350  33.407  0.00  0.00     0.199 A 
ATOM      9  O   UNL d   1     -51.122  23.190  33.306  0.00  0.00    -0.284 OA
ATOM     10  C   UNL d   1     -48.807  24.536  33.389  0.00  0.00     0.042 A 
ATOM     11  O   UNL d   1     -48.263  25.850  33.434  0.00  0.00    -0.286 OA
ENDROOT
BRANCH   2  12
ATOM     12  C   UNL d   1     -52.358  24.498  33.313  0.00  0.00     0.028 C 
BRANCH  12  13
ATOM     13  C   UNL d   1     -52.763  24.248  33.989  0.00  0.00     0.002 A 
ATOM     14  C   UNL d   1     -52.916  23.445  34.100  0.00  0.00     0.000 A 
ATOM     15  C   UNL d   1     -53.319  23.190  34.770  0.00  0.00     0.000 A 
ATOM     16  C   UNL d   1     -53.572  23.743  35.336  0.00  0.00     0.000 A 
ATOM     17  C   UNL d   1     -53.419  24.546  35.225  0.00  0.00     0.000 A 
ATOM     18  C   UNL d   1     -53.976  23.491  36.009  0.00  0.00     0.000 C 
ATOM     19  C   UNL d   1     -53.014  24.796  34.549  0.00  0.00     0.000 A 
ENDBRANCH  12  13
ENDBRANCH   2  12
BRANCH   4  20
ATOM     20  C   UNL d   1     -49.775  26.483  33.418  0.00  0.00     0.086 C 
BRANCH  20  21
ATOM     21  N   UNL d   1     -49.638  26.974  34.076  0.00  0.00    -0.300 N 
ATOM     22  C   UNL d   1     -49.250  27.687  33.961  0.00  0.00     0.100 A 
ATOM     23  C   UNL d   1     -49.110  28.180  34.605  0.00  0.00     0.100 A 
ATOM     24  N   UNL d   1     -49.362  27.948  35.347  0.00  0.00    -0.299 N 
ATOM     25  C   UNL d   1     -49.748  27.233  35.446  0.00  0.00     0.100 A 
ATOM     26  C   UNL d   1     -49.225  28.433  35.988  0.00  0.00     0.100 C 
ATOM     27  C   UNL d   1     -49.883  26.751  34.805  0.00  0.00     0.100 A 
ENDBRANCH  20  21
ENDBRANCH   4  20
TORSDOF 4
ENDMDL
