MODEL 1
REMARK VINA RESULT:     133.3      0.000      0.000
REMARK  5 active torsions:
REMARK  status: ('A' for Active; 'I' for Inactive)
REMARK    1  A    between atoms: C_10  and  N_3 
REMARK    2  A    between atoms: C_14  and  N_6 
REMARK    3  A    between atoms: C_9  and  C_7 
REMARK    4  A    between atoms: O_23  and  C_20 
REMARK    5  A    between atoms: C_26  and  O_23 
ROOT
ATOM      1  C   UNL d   1      60.434  47.118  50.764  0.00  0.00     0.105 A 
ATOM      2  C   UNL d   1      59.823  46.555  50.889  0.00  0.00     0.186 A 
ATOM      3  N   UNL d   1      60.955  45.889  50.693  0.00  0.00    -0.240 N 
ATOM      4  C   UNL d   1      60.158  45.827  50.842  0.00  0.00     0.292 A 
ATOM      5  C   UNL d   1      61.130  46.708  50.643  0.00  0.00     0.271 A 
ATOM      6  N   UNL d   1      59.286  47.797  50.962  0.00  0.00    -0.212 N 
ATOM      7  C   UNL d   1      60.078  47.855  50.814  0.00  0.00     0.100 A 
ATOM      8  O   UNL d   1      59.112  46.963  51.012  0.00  0.00    -0.223 OA
ATOM      9  O   UNL d   1      61.864  47.064  50.499  0.00  0.00    -0.266 OA
ATOM     10  O   UNL d   1      59.751  45.114  50.933  0.00  0.00    -0.264 OA
ENDROOT
BRANCH   3  11
ATOM     11  C   UNL d   1      61.479  45.256  50.609  0.00  0.00     0.070 A 
ATOM     12  C   UNL d   1      61.575  44.729  51.231  0.00  0.00     0.020 A 
ATOM     13  C   UNL d   1      62.098  44.088  51.162  0.00  0.00     0.026 A 
ATOM     14  C   UNL d   1      62.524  43.989  50.452  0.00  0.00     0.100 A 
ATOM     15  C   UNL d   1      62.427  44.512  49.838  0.00  0.00     0.026 A 
ATOM     16  C   UNL d   1      61.906  45.138  49.927  0.00  0.00     0.020 A 
BRANCH  14  17
ATOM     17  O   UNL d   1      63.048  43.360  50.362  0.00  0.00    -0.305 OA
BRANCH  17  18
ATOM     18  C   UNL d   1      62.747  42.601  50.242  0.00  0.00     0.123 C 
ATOM     19  C   UNL d   1      63.158  41.943  50.499  0.00  0.00     0.029 C 
ENDBRANCH  17  18
ENDBRANCH  14  17
ENDBRANCH   3  11
BRANCH   7  20
ATOM     20  C   UNL d   1      60.486  48.568  50.723  0.00  0.00     0.048 A 
ATOM     21  S   UNL d   1      60.791  49.076  51.337  0.00  0.00    -0.085 SA
ATOM     22  C   UNL d   1      61.145  49.706  50.963  0.00  0.00     0.035 A 
ATOM     23  C   UNL d   1      61.089  49.640  50.164  0.00  0.00     0.007 A 
ATOM     24  C   UNL d   1      60.670  48.916  49.998  0.00  0.00     0.009 A 
ENDBRANCH   7  20
BRANCH   6  25
ATOM     25  C   UNL d   1      58.762  48.436  51.045  0.00  0.00     0.088 A 
ATOM     26  C   UNL d   1      58.893  49.014  51.614  0.00  0.00     0.020 A 
ATOM     27  C   UNL d   1      58.367  49.659  51.702  0.00  0.00     0.002 A 
ATOM     28  C   UNL d   1      57.707  49.708  51.203  0.00  0.00     0.000 A 
ATOM     29  C   UNL d   1      57.578  49.122  50.628  0.00  0.00     0.002 A 
ATOM     30  C   UNL d   1      58.111  48.490  50.558  0.00  0.00     0.020 A 
ENDBRANCH   6  25
TORSDOF 5
ENDMDL
