MODEL 1
REMARK VINA RESULT:      72.6      0.000      0.000
REMARK  4 active torsions:
REMARK  status: ('A' for Active; 'I' for Inactive)
REMARK    1  A    between atoms: C_12  and  N_3 
REMARK    2  A    between atoms: C_13  and  N_10 
REMARK    3  A    between atoms: C_21  and  C_12 
REMARK    4  A    between atoms: C_16  and  C_13 
ROOT
ATOM      1  C   UNL d   1      15.163  16.357  -2.088  0.00  0.00     0.191 A 
ATOM      2  C   UNL d   1      14.703  15.778  -2.451  0.00  0.00     0.173 A 
ATOM      3  N   UNL d   1      14.533  15.118  -1.199  0.00  0.00    -0.224 N 
ATOM      4  N   UNL d   1      15.397  16.898  -2.668  0.00  0.00    -0.042 NA
ATOM      5  C   UNL d   1      15.077  16.645  -3.392  0.00  0.00     0.722 A 
ATOM      6  N   UNL d   1      14.650  15.955  -3.256  0.00  0.00    -0.131 N 
ATOM      7  N   UNL d   1      15.308  16.315  -1.272  0.00  0.00    -0.240 N 
ATOM      8  C   UNL d   1      14.994  15.699  -0.830  0.00  0.00     0.343 A 
ATOM      9  C   UNL d   1      14.385  15.154  -2.009  0.00  0.00     0.288 A 
ATOM     10  N   UNL d   1      15.025  16.823  -4.191  0.00  0.00    -0.135 N 
ATOM     11  C   UNL d   1      14.336  15.709  -3.971  0.00  0.00     0.118 A 
ATOM     12  O   UNL d   1      15.139  15.656  -0.014  0.00  0.00    -0.245 OA
ATOM     13  O   UNL d   1      13.923  14.573  -2.378  0.00  0.00    -0.265 OA
ATOM     14  C   UNL d   1      14.564  16.240  -4.555  0.00  0.00     0.118 A 
ATOM     15  C   UNL d   1      15.769  16.896  -0.904  0.00  0.00     0.105 C 
ENDROOT
BRANCH   3  16
ATOM     16  C   UNL d   1      14.217  14.497  -0.755  0.00  0.00     0.087 C 
BRANCH  16  17
ATOM     17  C   UNL d   1      14.637  13.777  -0.676  0.00  0.00     0.018 A 
ATOM     18  C   UNL d   1      14.464  13.146  -1.157  0.00  0.00     0.002 A 
ATOM     19  C   UNL d   1      14.875  12.443  -1.080  0.00  0.00     0.000 A 
ATOM     20  C   UNL d   1      14.704  11.801  -1.564  0.00  0.00     0.000 C 
ATOM     21  C   UNL d   1      15.470  12.376  -0.508  0.00  0.00     0.000 A 
ATOM     22  C   UNL d   1      15.654  13.010  -0.015  0.00  0.00     0.000 A 
ATOM     23  C   UNL d   1      15.238  13.710  -0.099  0.00  0.00     0.002 A 
ENDBRANCH  16  17
ENDBRANCH   3  16
BRANCH  10  24
ATOM     24  C   UNL d   1      15.372  17.469  -4.570  0.00  0.00     0.123 C 
BRANCH  24  25
ATOM     25  C   UNL d   1      14.906  17.960  -5.052  0.00  0.00     0.118 A 
ATOM     26  O   UNL d   1      14.877  18.778  -5.031  0.00  0.00    -0.304 OA
ATOM     27  C   UNL d   1      14.351  19.033  -5.597  0.00  0.00     0.123 A 
ATOM     28  C   UNL d   1      14.043  18.363  -5.981  0.00  0.00     0.029 A 
ATOM     29  C   UNL d   1      14.391  17.697  -5.640  0.00  0.00     0.028 A 
ENDBRANCH  24  25
ENDBRANCH  10  24
TORSDOF 4
ENDMDL
MODEL 2
REMARK VINA RESULT:      74.8      2.046      2.835
REMARK  4 active torsions:
REMARK  status: ('A' for Active; 'I' for Inactive)
REMARK    1  A    between atoms: C_12  and  N_3 
REMARK    2  A    between atoms: C_13  and  N_10 
REMARK    3  A    between atoms: C_21  and  C_12 
REMARK    4  A    between atoms: C_16  and  C_13 
ROOT
ATOM      1  C   UNL d   1      14.381  16.229  -4.184  0.00  0.00     0.191 A 
ATOM      2  C   UNL d   1      13.824  16.020  -4.754  0.00  0.00     0.173 A 
ATOM      3  N   UNL d   1      13.406  14.918  -3.950  0.00  0.00    -0.224 N 
ATOM      4  N   UNL d   1      14.781  16.900  -4.454  0.00  0.00    -0.042 NA
ATOM      5  C   UNL d   1      14.465  17.101  -5.196  0.00  0.00     0.722 A 
ATOM      6  N   UNL d   1      13.876  16.557  -5.378  0.00  0.00    -0.131 N 
ATOM      7  N   UNL d   1      14.450  15.778  -3.491  0.00  0.00    -0.240 N 
ATOM      8  C   UNL d   1      13.965  15.126  -3.375  0.00  0.00     0.343 A 
ATOM      9  C   UNL d   1      13.333  15.363  -4.641  0.00  0.00     0.288 A 
ATOM     10  N   UNL d   1      14.518  17.637  -5.814  0.00  0.00    -0.135 N 
ATOM     11  C   UNL d   1      13.567  16.759  -6.109  0.00  0.00     0.118 A 
ATOM     12  O   UNL d   1      14.033  14.675  -2.682  0.00  0.00    -0.245 OA
ATOM     13  O   UNL d   1      12.774  15.155  -5.217  0.00  0.00    -0.265 OA
ATOM     14  C   UNL d   1      13.958  17.425  -6.386  0.00  0.00     0.118 A 
ATOM     15  C   UNL d   1      15.008  15.986  -2.917  0.00  0.00     0.105 C 
ENDROOT
BRANCH   3  16
ATOM     16  C   UNL d   1      12.917  14.262  -3.834  0.00  0.00     0.087 C 
BRANCH  16  17
ATOM     17  C   UNL d   1      13.191  13.493  -4.020  0.00  0.00     0.018 A 
ATOM     18  C   UNL d   1      13.253  13.256  -4.794  0.00  0.00     0.002 A 
ATOM     19  C   UNL d   1      13.521  12.503  -4.975  0.00  0.00     0.000 A 
ATOM     20  C   UNL d   1      13.586  12.257  -5.757  0.00  0.00     0.000 C 
ATOM     21  C   UNL d   1      13.730  11.984  -4.364  0.00  0.00     0.000 A 
ATOM     22  C   UNL d   1      13.671  12.215  -3.576  0.00  0.00     0.000 A 
ATOM     23  C   UNL d   1      13.402  12.969  -3.404  0.00  0.00     0.002 A 
ENDBRANCH  16  17
ENDBRANCH   3  16
BRANCH  10  24
ATOM     24  C   UNL d   1      15.037  18.276  -5.862  0.00  0.00     0.123 C 
BRANCH  24  25
ATOM     25  C   UNL d   1      14.740  19.051  -5.820  0.00  0.00     0.118 A 
ATOM     26  O   UNL d   1      14.874  19.593  -5.220  0.00  0.00    -0.304 OA
ATOM     27  C   UNL d   1      14.479  20.281  -5.400  0.00  0.00     0.123 A 
ATOM     28  C   UNL d   1      14.089  20.171  -6.126  0.00  0.00     0.029 A 
ATOM     29  C   UNL d   1      14.254  19.404  -6.385  0.00  0.00     0.028 A 
ENDBRANCH  24  25
ENDBRANCH  10  24
TORSDOF 4
ENDMDL
