MODEL 1
REMARK VINA RESULT:      -9.0      0.000      0.000
REMARK  2 active torsions:
REMARK  status: ('A' for Active; 'I' for Inactive)
REMARK    1  A    between atoms: C_12  and  C_4 
REMARK    2  A    between atoms: O_14  and  C_10 
ROOT
ATOM      1  C   UNL d   1     -47.112  13.548  22.991  0.00  0.00     0.101 A 
ATOM      2  C   UNL d   1     -47.206  14.336  22.758  0.00  0.00     0.203 A 
ATOM      3  C   UNL d   1     -47.966  14.655  22.701  0.00  0.00     0.067 A 
ATOM      4  C   UNL d   1     -48.620  14.195  22.873  0.00  0.00     0.103 A 
ATOM      5  C   UNL d   1     -47.765  13.089  23.164  0.00  0.00     0.108 A 
ATOM      6  O   UNL d   1     -48.526  13.409  23.106  0.00  0.00    -0.307 OA
ATOM      7  C   UNL d   1     -46.354  13.233  23.047  0.00  0.00     0.203 A 
ATOM      8  C   UNL d   1     -47.674  12.305  23.396  0.00  0.00     0.049 A 
ATOM      9  C   UNL d   1     -46.250  12.432  23.284  0.00  0.00     0.066 A 
ATOM     10  C   UNL d   1     -46.904  11.973  23.456  0.00  0.00     0.099 A 
ATOM     11  O   UNL d   1     -46.534  14.809  22.580  0.00  0.00    -0.286 OA
ATOM     12  O   UNL d   1     -45.682  13.705  22.870  0.00  0.00    -0.286 OA
ENDROOT
BRANCH   4  13
ATOM     13  C   UNL d   1     -49.374  14.507  22.818  0.00  0.00     0.023 A 
ATOM     14  C   UNL d   1     -49.622  15.062  23.376  0.00  0.00     0.002 A 
ATOM     15  C   UNL d   1     -50.379  15.377  23.323  0.00  0.00     0.000 A 
ATOM     16  C   UNL d   1     -50.888  15.141  22.715  0.00  0.00     0.000 A 
ATOM     17  C   UNL d   1     -50.645  14.588  22.156  0.00  0.00     0.000 A 
ATOM     18  C   UNL d   1     -49.883  14.271  22.210  0.00  0.00     0.002 A 
ENDBRANCH   4  13
BRANCH  10  19
ATOM     19  O   UNL d   1     -46.820  11.163  23.697  0.00  0.00    -0.328 OA
ATOM     20  C   UNL d   1     -46.084  10.807  23.698  0.00  0.00     0.181 C 
ENDBRANCH  10  19
TORSDOF 2
ENDMDL
MODEL 2
REMARK VINA RESULT:      -8.7      1.315      4.172
REMARK  2 active torsions:
REMARK  status: ('A' for Active; 'I' for Inactive)
REMARK    1  A    between atoms: C_12  and  C_4 
REMARK    2  A    between atoms: O_14  and  C_10 
ROOT
ATOM      1  C   UNL d   1     -49.664  13.765  22.138  0.00  0.00     0.101 A 
ATOM      2  C   UNL d   1     -49.363  13.054  21.838  0.00  0.00     0.203 A 
ATOM      3  C   UNL d   1     -48.582  12.843  22.001  0.00  0.00     0.067 A 
ATOM      4  C   UNL d   1     -48.108  13.331  22.454  0.00  0.00     0.103 A 
ATOM      5  C   UNL d   1     -49.190  14.253  22.590  0.00  0.00     0.108 A 
ATOM      6  O   UNL d   1     -48.407  14.040  22.753  0.00  0.00    -0.307 OA
ATOM      7  C   UNL d   1     -50.442  13.973  21.975  0.00  0.00     0.203 A 
ATOM      8  C   UNL d   1     -49.486  14.959  22.889  0.00  0.00     0.049 A 
ATOM      9  C   UNL d   1     -50.755  14.694  22.276  0.00  0.00     0.066 A 
ATOM     10  C   UNL d   1     -50.281  15.183  22.728  0.00  0.00     0.099 A 
ATOM     11  O   UNL d   1     -49.850  12.552  21.373  0.00  0.00    -0.286 OA
ATOM     12  O   UNL d   1     -50.929  13.471  21.509  0.00  0.00    -0.286 OA
ENDROOT
BRANCH   4  13
ATOM     13  C   UNL d   1     -47.334  13.125  22.617  0.00  0.00     0.023 A 
ATOM     14  C   UNL d   1     -46.724  13.488  22.195  0.00  0.00     0.002 A 
ATOM     15  C   UNL d   1     -45.945  13.282  22.357  0.00  0.00     0.000 A 
ATOM     16  C   UNL d   1     -45.773  12.718  22.937  0.00  0.00     0.000 A 
ATOM     17  C   UNL d   1     -46.378  12.354  23.360  0.00  0.00     0.000 A 
ATOM     18  C   UNL d   1     -47.162  12.561  23.197  0.00  0.00     0.002 A 
ENDBRANCH   4  13
BRANCH  10  19
ATOM     19  O   UNL d   1     -50.578  15.914  23.041  0.00  0.00    -0.328 OA
ATOM     20  C   UNL d   1     -51.064  15.915  23.698  0.00  0.00     0.181 C 
ENDBRANCH  10  19
TORSDOF 2
ENDMDL
MODEL 3
REMARK VINA RESULT:      -8.5      1.492      3.863
REMARK  2 active torsions:
REMARK  status: ('A' for Active; 'I' for Inactive)
REMARK    1  A    between atoms: C_12  and  C_4 
REMARK    2  A    between atoms: O_14  and  C_10 
ROOT
ATOM      1  C   UNL d   1     -49.042  12.185  22.910  0.00  0.00     0.101 A 
ATOM      2  C   UNL d   1     -48.375  11.842  23.259  0.00  0.00     0.203 A 
ATOM      3  C   UNL d   1     -47.639  12.207  23.174  0.00  0.00     0.067 A 
ATOM      4  C   UNL d   1     -47.569  12.900  22.747  0.00  0.00     0.103 A 
ATOM      5  C   UNL d   1     -48.972  12.879  22.483  0.00  0.00     0.108 A 
ATOM      6  O   UNL d   1     -48.234  13.242  22.398  0.00  0.00    -0.307 OA
ATOM      7  C   UNL d   1     -49.774  11.820  22.996  0.00  0.00     0.203 A 
ATOM      8  C   UNL d   1     -49.634  13.221  22.135  0.00  0.00     0.049 A 
ATOM      9  C   UNL d   1     -50.457  12.163  22.643  0.00  0.00     0.066 A 
ATOM     10  C   UNL d   1     -50.387  12.857  22.217  0.00  0.00     0.099 A 
ATOM     11  O   UNL d   1     -48.446  11.129  23.698  0.00  0.00    -0.286 OA
ATOM     12  O   UNL d   1     -49.846  11.107  23.435  0.00  0.00    -0.286 OA
ENDROOT
BRANCH   4  13
ATOM     13  C   UNL d   1     -46.842  13.264  22.660  0.00  0.00     0.023 A 
ATOM     14  C   UNL d   1     -46.728  14.016  22.980  0.00  0.00     0.002 A 
ATOM     15  C   UNL d   1     -45.998  14.384  22.894  0.00  0.00     0.000 A 
ATOM     16  C   UNL d   1     -45.383  14.005  22.491  0.00  0.00     0.000 A 
ATOM     17  C   UNL d   1     -45.492  13.254  22.171  0.00  0.00     0.000 A 
ATOM     18  C   UNL d   1     -46.227  12.884  22.258  0.00  0.00     0.002 A 
ENDBRANCH   4  13
BRANCH  10  19
ATOM     19  O   UNL d   1     -51.064  13.218  21.854  0.00  0.00    -0.328 OA
ATOM     20  C   UNL d   1     -51.031  13.995  21.600  0.00  0.00     0.181 C 
ENDBRANCH  10  19
TORSDOF 2
ENDMDL
MODEL 4
REMARK VINA RESULT:      -8.5      1.414      2.044
REMARK  2 active torsions:
REMARK  status: ('A' for Active; 'I' for Inactive)
REMARK    1  A    between atoms: C_12  and  C_4 
REMARK    2  A    between atoms: O_14  and  C_10 
ROOT
ATOM      1  C   UNL d   1     -47.620  14.220  22.738  0.00  0.00     0.101 A 
ATOM      2  C   UNL d   1     -48.354  14.601  22.777  0.00  0.00     0.203 A 
ATOM      3  C   UNL d   1     -49.037  14.153  22.896  0.00  0.00     0.067 A 
ATOM      4  C   UNL d   1     -48.990  13.342  22.975  0.00  0.00     0.103 A 
ATOM      5  C   UNL d   1     -47.573  13.409  22.817  0.00  0.00     0.108 A 
ATOM      6  O   UNL d   1     -48.258  12.962  22.936  0.00  0.00    -0.307 OA
ATOM      7  C   UNL d   1     -46.940  14.668  22.619  0.00  0.00     0.203 A 
ATOM      8  C   UNL d   1     -46.845  13.028  22.778  0.00  0.00     0.049 A 
ATOM      9  C   UNL d   1     -46.190  14.288  22.578  0.00  0.00     0.066 A 
ATOM     10  C   UNL d   1     -46.143  13.476  22.657  0.00  0.00     0.099 A 
ATOM     11  O   UNL d   1     -48.402  15.436  22.696  0.00  0.00    -0.286 OA
ATOM     12  O   UNL d   1     -46.988  15.503  22.538  0.00  0.00    -0.286 OA
ENDROOT
BRANCH   4  13
ATOM     13  C   UNL d   1     -49.665  12.895  23.093  0.00  0.00     0.023 A 
ATOM     14  C   UNL d   1     -50.367  13.120  22.721  0.00  0.00     0.002 A 
ATOM     15  C   UNL d   1     -51.046  12.673  22.838  0.00  0.00     0.000 A 
ATOM     16  C   UNL d   1     -51.028  12.004  23.324  0.00  0.00     0.000 A 
ATOM     17  C   UNL d   1     -50.331  11.776  23.698  0.00  0.00     0.000 A 
ATOM     18  C   UNL d   1     -49.647  12.226  23.579  0.00  0.00     0.002 A 
ENDBRANCH   4  13
BRANCH  10  19
ATOM     19  O   UNL d   1     -45.396  13.074  22.619  0.00  0.00    -0.328 OA
ATOM     20  C   UNL d   1     -45.033  12.945  21.897  0.00  0.00     0.181 C 
ENDBRANCH  10  19
TORSDOF 2
ENDMDL
MODEL 5
REMARK VINA RESULT:      -7.7      1.357      3.656
REMARK  2 active torsions:
REMARK  status: ('A' for Active; 'I' for Inactive)
REMARK    1  A    between atoms: C_12  and  C_4 
REMARK    2  A    between atoms: O_14  and  C_10 
ROOT
ATOM      1  C   UNL d   1     -49.110  14.396  22.843  0.00  0.00     0.101 A 
ATOM      2  C   UNL d   1     -48.465  14.847  22.586  0.00  0.00     0.203 A 
ATOM      3  C   UNL d   1     -47.714  14.504  22.561  0.00  0.00     0.067 A 
ATOM      4  C   UNL d   1     -47.608  13.726  22.788  0.00  0.00     0.103 A 
ATOM      5  C   UNL d   1     -49.004  13.619  23.070  0.00  0.00     0.108 A 
ATOM      6  O   UNL d   1     -48.251  13.277  23.044  0.00  0.00    -0.307 OA
ATOM      7  C   UNL d   1     -49.857  14.740  22.867  0.00  0.00     0.203 A 
ATOM      8  C   UNL d   1     -49.642  13.169  23.326  0.00  0.00     0.049 A 
ATOM      9  C   UNL d   1     -50.517  14.287  23.128  0.00  0.00     0.066 A 
ATOM     10  C   UNL d   1     -50.411  13.510  23.355  0.00  0.00     0.099 A 
ATOM     11  O   UNL d   1     -48.574  15.647  22.352  0.00  0.00    -0.286 OA
ATOM     12  O   UNL d   1     -49.966  15.539  22.634  0.00  0.00    -0.286 OA
ENDROOT
BRANCH   4  13
ATOM     13  C   UNL d   1     -46.866  13.384  22.764  0.00  0.00     0.023 A 
ATOM     14  C   UNL d   1     -46.687  12.774  23.292  0.00  0.00     0.002 A 
ATOM     15  C   UNL d   1     -45.942  12.428  23.270  0.00  0.00     0.000 A 
ATOM     16  C   UNL d   1     -45.376  12.687  22.725  0.00  0.00     0.000 A 
ATOM     17  C   UNL d   1     -45.550  13.295  22.197  0.00  0.00     0.000 A 
ATOM     18  C   UNL d   1     -46.300  13.643  22.219  0.00  0.00     0.002 A 
ENDBRANCH   4  13
BRANCH  10  19
ATOM     19  O   UNL d   1     -51.064  13.037  23.620  0.00  0.00    -0.328 OA
ATOM     20  C   UNL d   1     -51.049  12.225  23.530  0.00  0.00     0.181 C 
ENDBRANCH  10  19
TORSDOF 2
ENDMDL
MODEL 6
REMARK VINA RESULT:      -6.9      1.522      2.117
REMARK  2 active torsions:
REMARK  status: ('A' for Active; 'I' for Inactive)
REMARK    1  A    between atoms: C_12  and  C_4 
REMARK    2  A    between atoms: O_14  and  C_10 
ROOT
ATOM      1  C   UNL d   1     -46.461  12.617  22.918  0.00  0.00     0.101 A 
ATOM      2  C   UNL d   1     -47.028  13.176  22.691  0.00  0.00     0.203 A 
ATOM      3  C   UNL d   1     -47.826  13.030  22.846  0.00  0.00     0.067 A 
ATOM      4  C   UNL d   1     -48.054  12.339  23.219  0.00  0.00     0.103 A 
ATOM      5  C   UNL d   1     -46.689  11.927  23.291  0.00  0.00     0.108 A 
ATOM      6  O   UNL d   1     -47.488  11.782  23.445  0.00  0.00    -0.307 OA
ATOM      7  C   UNL d   1     -45.666  12.765  22.763  0.00  0.00     0.203 A 
ATOM      8  C   UNL d   1     -46.127  11.371  23.516  0.00  0.00     0.049 A 
ATOM      9  C   UNL d   1     -45.084  12.201  22.990  0.00  0.00     0.066 A 
ATOM     10  C   UNL d   1     -45.312  11.511  23.363  0.00  0.00     0.099 A 
ATOM     11  O   UNL d   1     -46.793  13.886  22.308  0.00  0.00    -0.286 OA
ATOM     12  O   UNL d   1     -45.432  13.474  22.379  0.00  0.00    -0.286 OA
ENDROOT
BRANCH   4  13
ATOM     13  C   UNL d   1     -48.843  12.191  23.373  0.00  0.00     0.023 A 
ATOM     14  C   UNL d   1     -49.082  11.419  23.539  0.00  0.00     0.002 A 
ATOM     15  C   UNL d   1     -49.875  11.268  23.695  0.00  0.00     0.000 A 
ATOM     16  C   UNL d   1     -50.428  11.882  23.685  0.00  0.00     0.000 A 
ATOM     17  C   UNL d   1     -50.194  12.654  23.520  0.00  0.00     0.000 A 
ATOM     18  C   UNL d   1     -49.396  12.806  23.364  0.00  0.00     0.002 A 
ENDBRANCH   4  13
BRANCH  10  19
ATOM     19  O   UNL d   1     -44.739  10.930  23.600  0.00  0.00    -0.328 OA
ATOM     20  C   UNL d   1     -44.917  10.134  23.554  0.00  0.00     0.181 C 
ENDBRANCH  10  19
TORSDOF 2
ENDMDL
MODEL 7
REMARK VINA RESULT:      -6.6      1.273      4.029
REMARK  2 active torsions:
REMARK  status: ('A' for Active; 'I' for Inactive)
REMARK    1  A    between atoms: C_12  and  C_4 
REMARK    2  A    between atoms: O_14  and  C_10 
ROOT
ATOM      1  C   UNL d   1     -48.637  12.519  23.251  0.00  0.00     0.101 A 
ATOM      2  C   UNL d   1     -48.138  11.859  23.256  0.00  0.00     0.203 A 
ATOM      3  C   UNL d   1     -47.346  11.946  23.038  0.00  0.00     0.067 A 
ATOM      4  C   UNL d   1     -47.057  12.678  22.819  0.00  0.00     0.103 A 
ATOM      5  C   UNL d   1     -48.348  13.251  23.032  0.00  0.00     0.108 A 
ATOM      6  O   UNL d   1     -47.554  13.337  22.814  0.00  0.00    -0.307 OA
ATOM      7  C   UNL d   1     -49.425  12.430  23.468  0.00  0.00     0.203 A 
ATOM      8  C   UNL d   1     -48.841  13.909  23.026  0.00  0.00     0.049 A 
ATOM      9  C   UNL d   1     -49.938  13.097  23.466  0.00  0.00     0.066 A 
ATOM     10  C   UNL d   1     -49.649  13.829  23.246  0.00  0.00     0.099 A 
ATOM     11  O   UNL d   1     -48.435  11.106  23.481  0.00  0.00    -0.286 OA
ATOM     12  O   UNL d   1     -49.722  11.677  23.694  0.00  0.00    -0.286 OA
ENDROOT
BRANCH   4  13
ATOM     13  C   UNL d   1     -46.274  12.769  22.602  0.00  0.00     0.023 A 
ATOM     14  C   UNL d   1     -46.042  13.456  22.207  0.00  0.00     0.002 A 
ATOM     15  C   UNL d   1     -45.255  13.549  21.988  0.00  0.00     0.000 A 
ATOM     16  C   UNL d   1     -44.700  12.961  22.162  0.00  0.00     0.000 A 
ATOM     17  C   UNL d   1     -44.927  12.274  22.556  0.00  0.00     0.000 A 
ATOM     18  C   UNL d   1     -45.719  12.181  22.776  0.00  0.00     0.002 A 
ENDBRANCH   4  13
BRANCH  10  19
ATOM     19  O   UNL d   1     -50.151  14.514  23.237  0.00  0.00    -0.328 OA
ATOM     20  C   UNL d   1     -49.848  15.245  23.031  0.00  0.00     0.181 C 
ENDBRANCH  10  19
TORSDOF 2
ENDMDL
MODEL 8
REMARK VINA RESULT:      -6.6      8.650      9.992
REMARK  2 active torsions:
REMARK  status: ('A' for Active; 'I' for Inactive)
REMARK    1  A    between atoms: C_12  and  C_4 
REMARK    2  A    between atoms: O_14  and  C_10 
ROOT
ATOM      1  C   UNL d   1     -40.076  14.793  18.121  0.00  0.00     0.101 A 
ATOM      2  C   UNL d   1     -40.595  14.420  18.647  0.00  0.00     0.203 A 
ATOM      3  C   UNL d   1     -40.426  14.423  19.456  0.00  0.00     0.067 A 
ATOM      4  C   UNL d   1     -39.752  14.792  19.734  0.00  0.00     0.103 A 
ATOM      5  C   UNL d   1     -39.403  15.162  18.400  0.00  0.00     0.108 A 
ATOM      6  O   UNL d   1     -39.235  15.165  19.210  0.00  0.00    -0.307 OA
ATOM      7  C   UNL d   1     -40.246  14.789  17.317  0.00  0.00     0.203 A 
ATOM      8  C   UNL d   1     -38.886  15.534  17.880  0.00  0.00     0.049 A 
ATOM      9  C   UNL d   1     -39.724  15.167  16.776  0.00  0.00     0.066 A 
ATOM     10  C   UNL d   1     -39.050  15.535  17.055  0.00  0.00     0.099 A 
ATOM     11  O   UNL d   1     -41.288  14.041  18.360  0.00  0.00    -0.286 OA
ATOM     12  O   UNL d   1     -40.939  14.410  17.030  0.00  0.00    -0.286 OA
ENDROOT
BRANCH   4  13
ATOM     13  C   UNL d   1     -39.582  14.798  20.534  0.00  0.00     0.023 A 
ATOM     14  C   UNL d   1     -39.190  14.151  20.866  0.00  0.00     0.002 A 
ATOM     15  C   UNL d   1     -39.017  14.154  21.670  0.00  0.00     0.000 A 
ATOM     16  C   UNL d   1     -39.233  14.798  22.142  0.00  0.00     0.000 A 
ATOM     17  C   UNL d   1     -39.624  15.445  21.815  0.00  0.00     0.000 A 
ATOM     18  C   UNL d   1     -39.798  15.441  21.006  0.00  0.00     0.002 A 
ENDBRANCH   4  13
BRANCH  10  19
ATOM     19  O   UNL d   1     -38.510  15.922  16.525  0.00  0.00    -0.328 OA
ATOM     20  C   UNL d   1     -38.073  15.485  15.991  0.00  0.00     0.181 C 
ENDBRANCH  10  19
TORSDOF 2
ENDMDL
MODEL 9
REMARK VINA RESULT:      -6.2      8.588     10.362
REMARK  2 active torsions:
REMARK  status: ('A' for Active; 'I' for Inactive)
REMARK    1  A    between atoms: C_12  and  C_4 
REMARK    2  A    between atoms: O_14  and  C_10 
ROOT
ATOM      1  C   UNL d   1     -40.033  14.442  19.125  0.00  0.00     0.101 A 
ATOM      2  C   UNL d   1     -40.422  14.205  18.434  0.00  0.00     0.203 A 
ATOM      3  C   UNL d   1     -40.001  14.168  17.724  0.00  0.00     0.067 A 
ATOM      4  C   UNL d   1     -39.209  14.364  17.704  0.00  0.00     0.103 A 
ATOM      5  C   UNL d   1     -39.241  14.638  19.105  0.00  0.00     0.108 A 
ATOM      6  O   UNL d   1     -38.821  14.601  18.393  0.00  0.00    -0.307 OA
ATOM      7  C   UNL d   1     -40.454  14.478  19.831  0.00  0.00     0.203 A 
ATOM      8  C   UNL d   1     -38.853  14.874  19.790  0.00  0.00     0.049 A 
ATOM      9  C   UNL d   1     -40.066  14.719  20.538  0.00  0.00     0.066 A 
ATOM     10  C   UNL d   1     -39.273  14.915  20.518  0.00  0.00     0.099 A 
ATOM     11  O   UNL d   1     -41.237  14.003  18.455  0.00  0.00    -0.286 OA
ATOM     12  O   UNL d   1     -41.269  14.277  19.852  0.00  0.00    -0.286 OA
ENDROOT
BRANCH   4  13
ATOM     13  C   UNL d   1     -38.789  14.328  17.003  0.00  0.00     0.023 A 
ATOM     14  C   UNL d   1     -38.757  14.996  16.519  0.00  0.00     0.002 A 
ATOM     15  C   UNL d   1     -38.336  14.963  15.814  0.00  0.00     0.000 A 
ATOM     16  C   UNL d   1     -37.948  14.268  15.591  0.00  0.00     0.000 A 
ATOM     17  C   UNL d   1     -37.977  13.599  16.070  0.00  0.00     0.000 A 
ATOM     18  C   UNL d   1     -38.401  13.633  16.780  0.00  0.00     0.002 A 
ENDBRANCH   4  13
BRANCH  10  19
ATOM     19  O   UNL d   1     -38.863  15.160  21.220  0.00  0.00    -0.328 OA
ATOM     20  C   UNL d   1     -38.977  15.910  21.524  0.00  0.00     0.181 C 
ENDBRANCH  10  19
TORSDOF 2
ENDMDL
