MODEL 1
REMARK VINA RESULT:      12.5      0.000      0.000
REMARK  4 active torsions:
REMARK  status: ('A' for Active; 'I' for Inactive)
REMARK       I    between atoms: N_2  and  C_1 
REMARK    1  A    between atoms: C_5  and  C_1 
REMARK    2  A    between atoms: C_8  and  N_2 
REMARK    3  A    between atoms: O_9  and  C_5 
REMARK    4  A    between atoms: C_11  and  O_9 
ROOT
ATOM      1  C   UNL d   1      46.348 -17.624  43.163  0.00  0.00     0.290 C 
ATOM      2  N   UNL d   1      46.437 -18.417  42.955  0.00  0.00    -0.270 N 
ATOM      3  O   UNL d   1      46.439 -17.034  42.588  0.00  0.00    -0.264 OA
ATOM      4  C   UNL d   1      46.619 -18.619  42.164  0.00  0.00     0.102 C 
ENDROOT
BRANCH   1   5
ATOM      5  C   UNL d   1      46.170 -17.420  43.937  0.00  0.00     0.184 C 
BRANCH   5   6
ATOM      6  O   UNL d   1      46.505 -16.741  44.276  0.00  0.00    -0.300 OA
BRANCH   6   7
ATOM      7  C   UNL d   1      46.036 -16.069  44.430  0.00  0.00     0.100 A 
ATOM      8  C   UNL d   1      46.300 -15.314  44.217  0.00  0.00     0.025 A 
ATOM      9  C   UNL d   1      45.836 -14.656  44.371  0.00  0.00     0.013 A 
ATOM     10  C   UNL d   1      46.097 -13.910  44.161  0.00  0.00     0.001 C 
ATOM     11  C   UNL d   1      45.105 -14.749  44.739  0.00  0.00     0.058 A 
ATOM     12  C   UNL d   1      44.842 -15.500  44.951  0.00  0.00     0.013 A 
ATOM     13 CL   UNL d   1      44.641 -14.090  44.893  0.00  0.00    -0.082 Cl
ATOM     14  C   UNL d   1      45.309 -16.163  44.797  0.00  0.00     0.026 A 
ENDBRANCH   6   7
ENDBRANCH   5   6
ENDBRANCH   1   5
BRANCH   2  15
ATOM     15  C   UNL d   1      46.348 -18.997  43.521  0.00  0.00     0.067 A 
ATOM     16  C   UNL d   1      46.062 -19.746  43.290  0.00  0.00     0.018 A 
ATOM     17  C   UNL d   1      45.972 -20.330  43.858  0.00  0.00     0.002 A 
ATOM     18  C   UNL d   1      46.163 -20.178  44.656  0.00  0.00     0.000 A 
ATOM     19  C   UNL d   1      46.446 -19.439  44.891  0.00  0.00     0.002 A 
ATOM     20  C   UNL d   1      46.538 -18.842  44.310  0.00  0.00     0.018 A 
ENDBRANCH   2  15
TORSDOF 4
ENDMDL
MODEL 2
REMARK VINA RESULT:      12.9      0.846      1.716
REMARK  4 active torsions:
REMARK  status: ('A' for Active; 'I' for Inactive)
REMARK       I    between atoms: N_2  and  C_1 
REMARK    1  A    between atoms: C_5  and  C_1 
REMARK    2  A    between atoms: C_8  and  N_2 
REMARK    3  A    between atoms: O_9  and  C_5 
REMARK    4  A    between atoms: C_11  and  O_9 
ROOT
ATOM      1  C   UNL d   1      46.371 -18.708  44.152  0.00  0.00     0.290 C 
ATOM      2  N   UNL d   1      46.512 -19.288  43.583  0.00  0.00    -0.270 N 
ATOM      3  O   UNL d   1      46.346 -18.913  44.955  0.00  0.00    -0.264 OA
ATOM      4  C   UNL d   1      46.629 -20.081  43.823  0.00  0.00     0.102 C 
ENDROOT
BRANCH   1   5
ATOM      5  C   UNL d   1      46.255 -17.928  43.924  0.00  0.00     0.184 C 
BRANCH   5   6
ATOM      6  O   UNL d   1      46.530 -17.310  44.402  0.00  0.00    -0.300 OA
BRANCH   6   7
ATOM      7  C   UNL d   1      46.063 -16.631  44.528  0.00  0.00     0.100 A 
ATOM      8  C   UNL d   1      46.394 -15.875  44.467  0.00  0.00     0.025 A 
ATOM      9  C   UNL d   1      45.930 -15.210  44.591  0.00  0.00     0.013 A 
ATOM     10  C   UNL d   1      46.257 -14.463  44.530  0.00  0.00     0.001 C 
ATOM     11  C   UNL d   1      45.133 -15.298  44.779  0.00  0.00     0.058 A 
ATOM     12  C   UNL d   1      44.803 -16.050  44.840  0.00  0.00     0.013 A 
ATOM     13 CL   UNL d   1      44.669 -14.632  44.904  0.00  0.00    -0.082 Cl
ATOM     14  C   UNL d   1      45.269 -16.720  44.715  0.00  0.00     0.026 A 
ENDBRANCH   6   7
ENDBRANCH   5   6
ENDBRANCH   1   5
BRANCH   2  15
ATOM     15  C   UNL d   1      46.536 -19.086  42.794  0.00  0.00     0.067 A 
ATOM     16  C   UNL d   1      46.473 -19.687  42.220  0.00  0.00     0.018 A 
ATOM     17  C   UNL d   1      46.497 -19.484  41.427  0.00  0.00     0.002 A 
ATOM     18  C   UNL d   1      46.583 -18.688  41.196  0.00  0.00     0.000 A 
ATOM     19  C   UNL d   1      46.646 -18.086  41.758  0.00  0.00     0.002 A 
ATOM     20  C   UNL d   1      46.621 -18.294  42.570  0.00  0.00     0.018 A 
ENDBRANCH   2  15
TORSDOF 4
ENDMDL
