MODEL 1
REMARK VINA RESULT:      48.4      0.000      0.000
REMARK  4 active torsions:
REMARK  status: ('A' for Active; 'I' for Inactive)
REMARK    1  A    between atoms: C_10  and  C_2 
REMARK    2  A    between atoms: C_9  and  C_4 
REMARK    3  A    between atoms: C_8  and  N_6 
REMARK    4  A    between atoms: N_7  and  C_9 
ROOT
ATOM      1  N   UNL d   1      13.499  14.619  -4.962  0.00  0.00    -0.301 N 
ATOM      2  N   UNL d   1      13.390  13.069  -4.417  0.00  0.00    -0.297 N 
ATOM      3  C   UNL d   1      14.094  14.076  -5.137  0.00  0.00     0.100 A 
ATOM      4  C   UNL d   1      12.850  14.389  -4.515  0.00  0.00     0.100 A 
ATOM      5  C   UNL d   1      14.040  13.300  -4.864  0.00  0.00     0.100 A 
ATOM      6  C   UNL d   1      12.793  13.611  -4.241  0.00  0.00     0.100 A 
ENDROOT
BRANCH   2   7
ATOM      7  C   UNL d   1      13.330  12.295  -4.142  0.00  0.00     0.127 C 
BRANCH   7   8
ATOM      8  C   UNL d   1      13.368  12.149  -3.334  0.00  0.00     0.222 A 
ATOM      9  N   UNL d   1      12.769  11.828  -2.858  0.00  0.00    -0.119 NA
ATOM     10  N   UNL d   1      13.052  11.782  -2.084  0.00  0.00    -0.121 NA
ATOM     11  C   UNL d   1      13.827  12.074  -2.079  0.00  0.00     0.204 A 
ATOM     12  O   UNL d   1      14.024  12.301  -2.849  0.00  0.00    -0.267 OA
BRANCH  11  13
ATOM     13  C   UNL d   1      14.315  12.128  -1.414  0.00  0.00     0.043 A 
ATOM     14  C   UNL d   1      14.054  11.842  -0.688  0.00  0.00     0.004 A 
ATOM     15  C   UNL d   1      14.542  11.896  -0.024  0.00  0.00     0.000 A 
ATOM     16  C   UNL d   1      15.289  12.234  -0.089  0.00  0.00     0.000 A 
ATOM     17  C   UNL d   1      15.550  12.523  -0.829  0.00  0.00     0.000 A 
ATOM     18  C   UNL d   1      15.057  12.465  -1.484  0.00  0.00     0.004 A 
ENDBRANCH  11  13
ENDBRANCH   7   8
ENDBRANCH   2   7
BRANCH   1  19
ATOM     19  C   UNL d   1      13.554  15.395  -5.235  0.00  0.00     0.064 A 
ATOM     20  C   UNL d   1      14.091  15.917  -4.888  0.00  0.00     0.020 A 
ATOM     21  C   UNL d   1      14.144  16.695  -5.164  0.00  0.00     0.031 A 
ATOM     22  C   UNL d   1      13.660  16.953  -5.785  0.00  0.00     0.140 A 
ATOM     23  C   UNL d   1      13.127  16.421  -6.124  0.00  0.00     0.031 A 
ATOM     24  F   UNL d   1      13.681  17.717  -6.089  0.00  0.00    -0.204 F 
ATOM     25  C   UNL d   1      13.072  15.645  -5.851  0.00  0.00     0.020 A 
ENDBRANCH   1  19
TORSDOF 4
ENDMDL
