MODEL 1
REMARK VINA RESULT:      -7.2      0.000      0.000
REMARK  6 active torsions:
REMARK  status: ('A' for Active; 'I' for Inactive)
REMARK    1  A    between atoms: S_6  and  C_2 
REMARK    2  A    between atoms: C_9  and  S_6 
REMARK    3  A    between atoms: C_7  and  C_9 
REMARK    4  A    between atoms: C_8  and  C_7 
REMARK    5  A    between atoms: O_12  and  C_15 
REMARK    6  A    between atoms: C_18  and  O_12 
ROOT
ATOM      1  C   UNL d   1     -46.966  13.459  22.769  0.00  0.00     0.040 A 
ATOM      2  C   UNL d   1     -46.962  14.261  22.944  0.00  0.00     0.005 A 
ATOM      3  C   UNL d   1     -47.626  13.127  22.368  0.00  0.00     0.005 A 
ATOM      4  C   UNL d   1     -48.246  14.418  22.334  0.00  0.00     0.100 A 
ATOM      5  C   UNL d   1     -47.595  14.741  22.730  0.00  0.00     0.025 A 
ATOM      6  C   UNL d   1     -48.256  13.610  22.155  0.00  0.00     0.025 A 
ENDROOT
BRANCH   1   7
ATOM      7  C   UNL d   1     -46.338  12.981  22.982  0.00  0.00     0.202 C 
ATOM      8  O   UNL d   1     -46.367  12.564  23.698  0.00  0.00    -0.286 OA
BRANCH   7   9
ATOM      9  C   UNL d   1     -45.681  12.916  22.488  0.00  0.00     0.080 C 
BRANCH   9  10
ATOM     10  S   UNL d   1     -45.112  12.328  22.635  0.00  0.00    -0.043 SA
BRANCH  10  11
ATOM     11  C   UNL d   1     -44.379  12.355  22.250  0.00  0.00     0.233 A 
ATOM     12  N   UNL d   1     -44.146  12.905  21.685  0.00  0.00    -0.029 NA
ATOM     13  C   UNL d   1     -43.377  12.727  21.449  0.00  0.00     0.788 A 
ATOM     14  N   UNL d   1     -43.137  12.066  21.870  0.00  0.00     0.050 NA
ATOM     15  N   UNL d   1     -42.938  13.144  20.890  0.00  0.00     0.064 N 
ATOM     16  N   UNL d   1     -43.746  11.831  22.365  0.00  0.00    -0.105 NA
ENDBRANCH  10  11
ENDBRANCH   9  10
ENDBRANCH   7   9
ENDBRANCH   1   7
BRANCH   4  17
ATOM     17  O   UNL d   1     -48.883  14.892  22.116  0.00  0.00    -0.307 OA
BRANCH  17  18
ATOM     18  C   UNL d   1     -49.510  15.006  22.643  0.00  0.00     0.100 A 
ATOM     19  C   UNL d   1     -50.112  14.455  22.694  0.00  0.00     0.025 A 
ATOM     20  C   UNL d   1     -50.731  14.569  23.215  0.00  0.00     0.002 A 
ATOM     21  C   UNL d   1     -50.753  15.244  23.695  0.00  0.00     0.000 A 
ATOM     22  C   UNL d   1     -50.145  15.803  23.645  0.00  0.00     0.002 A 
ATOM     23  C   UNL d   1     -49.521  15.686  23.118  0.00  0.00     0.025 A 
ENDBRANCH  17  18
ENDBRANCH   4  17
TORSDOF 6
ENDMDL
MODEL 2
REMARK VINA RESULT:      -6.5      1.508      1.953
REMARK  6 active torsions:
REMARK  status: ('A' for Active; 'I' for Inactive)
REMARK    1  A    between atoms: S_6  and  C_2 
REMARK    2  A    between atoms: C_9  and  S_6 
REMARK    3  A    between atoms: C_7  and  C_9 
REMARK    4  A    between atoms: C_8  and  C_7 
REMARK    5  A    between atoms: O_12  and  C_15 
REMARK    6  A    between atoms: C_18  and  O_12 
ROOT
ATOM      1  C   UNL d   1     -47.949  11.957  23.097  0.00  0.00     0.040 A 
ATOM      2  C   UNL d   1     -48.378  11.709  22.442  0.00  0.00     0.005 A 
ATOM      3  C   UNL d   1     -48.333  12.401  23.698  0.00  0.00     0.005 A 
ATOM      4  C   UNL d   1     -49.559  12.328  22.960  0.00  0.00     0.100 A 
ATOM      5  C   UNL d   1     -49.176  11.890  22.370  0.00  0.00     0.025 A 
ATOM      6  C   UNL d   1     -49.131  12.580  23.622  0.00  0.00     0.025 A 
ENDROOT
BRANCH   1   7
ATOM      7  C   UNL d   1     -47.155  11.777  23.169  0.00  0.00     0.202 C 
ATOM      8  O   UNL d   1     -46.927  11.106  23.600  0.00  0.00    -0.286 OA
BRANCH   7   9
ATOM      9  C   UNL d   1     -46.586  12.259  22.817  0.00  0.00     0.080 C 
BRANCH   9  10
ATOM     10  S   UNL d   1     -45.785  12.162  23.015  0.00  0.00    -0.043 SA
BRANCH  10  11
ATOM     11  C   UNL d   1     -45.199  12.542  22.569  0.00  0.00     0.233 A 
ATOM     12  N   UNL d   1     -44.484  12.218  22.326  0.00  0.00    -0.029 NA
ATOM     13  C   UNL d   1     -44.072  12.787  21.897  0.00  0.00     0.788 A 
ATOM     14  N   UNL d   1     -44.534  13.463  21.876  0.00  0.00     0.050 NA
ATOM     15  N   UNL d   1     -43.328  12.684  21.555  0.00  0.00     0.064 N 
ATOM     16  N   UNL d   1     -45.229  13.322  22.286  0.00  0.00    -0.105 NA
ENDBRANCH  10  11
ENDBRANCH   9  10
ENDBRANCH   7   9
ENDBRANCH   1   7
BRANCH   4  17
ATOM     17  O   UNL d   1     -50.358  12.513  22.894  0.00  0.00    -0.307 OA
BRANCH  17  18
ATOM     18  C   UNL d   1     -50.587  13.251  22.598  0.00  0.00     0.100 A 
ATOM     19  C   UNL d   1     -50.838  13.840  23.105  0.00  0.00     0.025 A 
ATOM     20  C   UNL d   1     -51.064  14.567  22.810  0.00  0.00     0.002 A 
ATOM     21  C   UNL d   1     -51.039  14.713  21.995  0.00  0.00     0.000 A 
ATOM     22  C   UNL d   1     -50.784  14.119  21.479  0.00  0.00     0.002 A 
ATOM     23  C   UNL d   1     -50.557  13.384  21.779  0.00  0.00     0.025 A 
ENDBRANCH  17  18
ENDBRANCH   4  17
TORSDOF 6
ENDMDL
MODEL 3
REMARK VINA RESULT:      -6.5      1.249      1.872
REMARK  6 active torsions:
REMARK  status: ('A' for Active; 'I' for Inactive)
REMARK    1  A    between atoms: S_6  and  C_2 
REMARK    2  A    between atoms: C_9  and  S_6 
REMARK    3  A    between atoms: C_7  and  C_9 
REMARK    4  A    between atoms: C_8  and  C_7 
REMARK    5  A    between atoms: O_12  and  C_15 
REMARK    6  A    between atoms: C_18  and  O_12 
ROOT
ATOM      1  C   UNL d   1     -46.946  13.777  22.844  0.00  0.00     0.040 A 
ATOM      2  C   UNL d   1     -47.397  13.188  23.195  0.00  0.00     0.005 A 
ATOM      3  C   UNL d   1     -47.314  14.496  22.615  0.00  0.00     0.005 A 
ATOM      4  C   UNL d   1     -48.568  14.003  23.098  0.00  0.00     0.100 A 
ATOM      5  C   UNL d   1     -48.202  13.295  23.324  0.00  0.00     0.025 A 
ATOM      6  C   UNL d   1     -48.119  14.600  22.744  0.00  0.00     0.025 A 
ENDROOT
BRANCH   1   7
ATOM      7  C   UNL d   1     -46.146  13.671  22.717  0.00  0.00     0.202 C 
ATOM      8  O   UNL d   1     -45.661  14.332  22.595  0.00  0.00    -0.286 OA
BRANCH   7   9
ATOM      9  C   UNL d   1     -45.824  12.911  22.710  0.00  0.00     0.080 C 
BRANCH   9  10
ATOM     10  S   UNL d   1     -45.062  12.790  22.400  0.00  0.00    -0.043 SA
BRANCH  10  11
ATOM     11  C   UNL d   1     -44.626  12.121  22.621  0.00  0.00     0.233 A 
ATOM     12  N   UNL d   1     -44.879  11.519  23.121  0.00  0.00    -0.029 NA
ATOM     13  C   UNL d   1     -44.272  10.966  23.189  0.00  0.00     0.788 A 
ATOM     14  N   UNL d   1     -43.646  11.228  22.731  0.00  0.00     0.050 NA
ATOM     15  N   UNL d   1     -44.301  10.276  23.640  0.00  0.00     0.064 N 
ATOM     16  N   UNL d   1     -43.854  11.938  22.378  0.00  0.00    -0.105 NA
ENDBRANCH  10  11
ENDBRANCH   9  10
ENDBRANCH   7   9
ENDBRANCH   1   7
BRANCH   4  17
ATOM     17  O   UNL d   1     -49.374  14.117  23.223  0.00  0.00    -0.307 OA
BRANCH  17  18
ATOM     18  C   UNL d   1     -49.922  13.810  22.685  0.00  0.00     0.100 A 
ATOM     19  C   UNL d   1     -50.136  14.239  22.024  0.00  0.00     0.025 A 
ATOM     20  C   UNL d   1     -50.678  13.934  21.494  0.00  0.00     0.002 A 
ATOM     21  C   UNL d   1     -51.013  13.188  21.623  0.00  0.00     0.000 A 
ATOM     22  C   UNL d   1     -50.798  12.752  22.292  0.00  0.00     0.002 A 
ATOM     23  C   UNL d   1     -50.251  13.061  22.827  0.00  0.00     0.025 A 
ENDBRANCH  17  18
ENDBRANCH   4  17
TORSDOF 6
ENDMDL
MODEL 4
REMARK VINA RESULT:      -5.7      7.511      9.177
REMARK  6 active torsions:
REMARK  status: ('A' for Active; 'I' for Inactive)
REMARK    1  A    between atoms: S_6  and  C_2 
REMARK    2  A    between atoms: C_9  and  S_6 
REMARK    3  A    between atoms: C_7  and  C_9 
REMARK    4  A    between atoms: C_8  and  C_7 
REMARK    5  A    between atoms: O_12  and  C_15 
REMARK    6  A    between atoms: C_18  and  O_12 
ROOT
ATOM      1  C   UNL d   1     -40.459  15.037  19.368  0.00  0.00     0.040 A 
ATOM      2  C   UNL d   1     -40.298  15.750  18.995  0.00  0.00     0.005 A 
ATOM      3  C   UNL d   1     -40.543  14.340  18.906  0.00  0.00     0.005 A 
ATOM      4  C   UNL d   1     -40.300  15.105  17.719  0.00  0.00     0.100 A 
ATOM      5  C   UNL d   1     -40.218  15.789  18.178  0.00  0.00     0.025 A 
ATOM      6  C   UNL d   1     -40.463  14.383  18.089  0.00  0.00     0.025 A 
ENDROOT
BRANCH   1   7
ATOM      7  C   UNL d   1     -40.538  14.998  20.180  0.00  0.00     0.202 C 
ATOM      8  O   UNL d   1     -41.248  15.243  20.533  0.00  0.00    -0.286 OA
BRANCH   7   9
ATOM      9  C   UNL d   1     -39.917  14.718  20.645  0.00  0.00     0.080 C 
BRANCH   9  10
ATOM     10  S   UNL d   1     -39.992  14.714  21.473  0.00  0.00    -0.043 SA
BRANCH  10  11
ATOM     11  C   UNL d   1     -39.360  14.461  21.945  0.00  0.00     0.233 A 
ATOM     12  N   UNL d   1     -39.213  13.690  22.189  0.00  0.00    -0.029 NA
ATOM     13  C   UNL d   1     -38.529  13.688  22.648  0.00  0.00     0.788 A 
ATOM     14  N   UNL d   1     -38.255  14.458  22.685  0.00  0.00     0.050 NA
ATOM     15  N   UNL d   1     -38.190  13.024  23.001  0.00  0.00     0.064 N 
ATOM     16  N   UNL d   1     -38.759  14.941  22.256  0.00  0.00    -0.105 NA
ENDBRANCH  10  11
ENDBRANCH   9  10
ENDBRANCH   7   9
ENDBRANCH   1   7
BRANCH   4  17
ATOM     17  O   UNL d   1     -40.221  15.136  16.901  0.00  0.00    -0.307 OA
BRANCH  17  18
ATOM     18  C   UNL d   1     -39.471  15.083  16.557  0.00  0.00     0.100 A 
ATOM     19  C   UNL d   1     -39.124  14.354  16.431  0.00  0.00     0.025 A 
ATOM     20  C   UNL d   1     -38.383  14.304  16.091  0.00  0.00     0.002 A 
ATOM     21  C   UNL d   1     -37.978  14.993  15.871  0.00  0.00     0.000 A 
ATOM     22  C   UNL d   1     -38.327  15.732  15.997  0.00  0.00     0.002 A 
ATOM     23  C   UNL d   1     -39.076  15.780  16.341  0.00  0.00     0.025 A 
ENDBRANCH  17  18
ENDBRANCH   4  17
TORSDOF 6
ENDMDL
MODEL 5
REMARK VINA RESULT:      -4.8      3.533      5.486
REMARK  6 active torsions:
REMARK  status: ('A' for Active; 'I' for Inactive)
REMARK    1  A    between atoms: S_6  and  C_2 
REMARK    2  A    between atoms: C_9  and  S_6 
REMARK    3  A    between atoms: C_7  and  C_9 
REMARK    4  A    between atoms: C_8  and  C_7 
REMARK    5  A    between atoms: O_12  and  C_15 
REMARK    6  A    between atoms: C_18  and  O_12 
ROOT
ATOM      1  C   UNL d   1     -48.093  12.212  23.272  0.00  0.00     0.040 A 
ATOM      2  C   UNL d   1     -47.671  12.886  23.477  0.00  0.00     0.005 A 
ATOM      3  C   UNL d   1     -47.681  11.494  23.133  0.00  0.00     0.005 A 
ATOM      4  C   UNL d   1     -46.442  12.158  23.410  0.00  0.00     0.100 A 
ATOM      5  C   UNL d   1     -46.852  12.864  23.546  0.00  0.00     0.025 A 
ATOM      6  C   UNL d   1     -46.862  11.476  23.203  0.00  0.00     0.025 A 
ENDROOT
BRANCH   1   7
ATOM      7  C   UNL d   1     -48.907  12.233  23.203  0.00  0.00     0.202 C 
ATOM      8  O   UNL d   1     -49.355  11.584  23.459  0.00  0.00    -0.286 OA
BRANCH   7   9
ATOM      9  C   UNL d   1     -49.279  12.895  22.882  0.00  0.00     0.080 C 
BRANCH   9  10
ATOM     10  S   UNL d   1     -50.099  12.995  22.980  0.00  0.00    -0.043 SA
BRANCH  10  11
ATOM     11  C   UNL d   1     -50.446  13.733  22.835  0.00  0.00     0.233 A 
ATOM     12  N   UNL d   1     -50.509  14.355  23.369  0.00  0.00    -0.029 NA
ATOM     13  C   UNL d   1     -50.891  14.981  22.996  0.00  0.00     0.788 A 
ATOM     14  N   UNL d   1     -51.064  14.745  22.231  0.00  0.00     0.050 NA
ATOM     15  N   UNL d   1     -51.064  15.711  23.339  0.00  0.00     0.064 N 
ATOM     16  N   UNL d   1     -50.794  13.979  22.123  0.00  0.00    -0.105 NA
ENDBRANCH  10  11
ENDBRANCH   9  10
ENDBRANCH   7   9
ENDBRANCH   1   7
BRANCH   4  17
ATOM     17  O   UNL d   1     -45.622  12.129  23.477  0.00  0.00    -0.307 OA
BRANCH  17  18
ATOM     18  C   UNL d   1     -45.148  12.399  22.856  0.00  0.00     0.100 A 
ATOM     19  C   UNL d   1     -45.309  13.113  22.493  0.00  0.00     0.025 A 
ATOM     20  C   UNL d   1     -44.840  13.378  21.880  0.00  0.00     0.002 A 
ATOM     21  C   UNL d   1     -44.196  12.925  21.621  0.00  0.00     0.000 A 
ATOM     22  C   UNL d   1     -44.031  12.202  21.986  0.00  0.00     0.002 A 
ATOM     23  C   UNL d   1     -44.506  11.935  22.606  0.00  0.00     0.025 A 
ENDBRANCH  17  18
ENDBRANCH   4  17
TORSDOF 6
ENDMDL
