MODEL 1
REMARK VINA RESULT:      -0.9      0.000      0.000
REMARK  5 active torsions:
REMARK  status: ('A' for Active; 'I' for Inactive)
REMARK    1  A    between atoms: N_11  and  C_4 
REMARK    2  A    between atoms: C_18  and  N_15 
REMARK    3  A    between atoms: C_21  and  C_18 
REMARK    4  A    between atoms: O_28  and  C_23 
REMARK    5  A    between atoms: C_31  and  O_28 
ROOT
ATOM      1  N   UNL d   1      32.991  20.428 -22.975  0.00  0.00    -0.195 N 
ATOM      2  C   UNL d   1      33.005  21.184 -22.690  0.00  0.00     0.168 A 
ATOM      3  C   UNL d   1      33.063  21.805 -23.186  0.00  0.00     0.073 A 
ATOM      4  C   UNL d   1      32.932  19.820 -22.465  0.00  0.00     0.153 A 
ATOM      5  N   UNL d   1      33.095  20.910 -24.256  0.00  0.00    -0.143 NA
ATOM      6  C   UNL d   1      33.109  21.665 -23.970  0.00  0.00     0.185 A 
ATOM      7  N   UNL d   1      32.958  21.313 -21.902  0.00  0.00    -0.227 NA
ATOM      8  C   UNL d   1      33.076  22.554 -22.904  0.00  0.00     0.007 A 
ATOM      9  N   UNL d   1      33.169  22.284 -24.485  0.00  0.00    -0.225 NA
ATOM     10  C   UNL d   1      32.886  19.942 -21.683  0.00  0.00     0.057 A 
ATOM     11  C   UNL d   1      33.135  23.174 -23.401  0.00  0.00     0.019 A 
ATOM     12  C   UNL d   1      32.899  20.698 -21.398  0.00  0.00     0.086 A 
ATOM     13  C   UNL d   1      33.182  23.041 -24.199  0.00  0.00     0.083 A 
ATOM     14  C   UNL d   1      33.030  22.681 -22.112  0.00  0.00     0.000 C 
ATOM     15  C   UNL d   1      32.851  20.829 -20.577  0.00  0.00     0.021 C 
ATOM     16  C   UNL d   1      33.240  23.654 -24.699  0.00  0.00     0.021 C 
ENDROOT
BRANCH   4  17
ATOM     17  N   UNL d   1      32.919  19.042 -22.767  0.00  0.00    -0.286 N 
ATOM     18  C   UNL d   1      32.336  19.216 -23.327  0.00  0.00     0.101 A 
ATOM     19  C   UNL d   1      32.070  18.622 -23.832  0.00  0.00     0.100 A 
ATOM     20  N   UNL d   1      32.386  17.852 -23.779  0.00  0.00    -0.300 N 
ATOM     21  C   UNL d   1      32.975  17.688 -23.209  0.00  0.00     0.100 A 
ATOM     22  C   UNL d   1      33.241  18.290 -22.701  0.00  0.00     0.101 A 
BRANCH  20  23
ATOM     23  C   UNL d   1      32.120  17.247 -24.288  0.00  0.00     0.080 C 
BRANCH  23  24
ATOM     24  C   UNL d   1      31.426  16.832 -24.106  0.00  0.00     0.018 A 
ATOM     25  C   UNL d   1      30.703  17.040 -24.459  0.00  0.00     0.004 A 
ATOM     26  C   UNL d   1      30.001  16.621 -24.275  0.00  0.00     0.025 A 
ATOM     27  C   UNL d   1      30.028  15.988 -23.730  0.00  0.00     0.100 A 
ATOM     28  C   UNL d   1      30.761  15.774 -23.369  0.00  0.00     0.025 A 
ATOM     29  C   UNL d   1      31.450  16.201 -23.563  0.00  0.00     0.004 A 
BRANCH  27  30
ATOM     30  O   UNL d   1      29.340  15.568 -23.542  0.00  0.00    -0.305 OA
BRANCH  30  31
ATOM     31  C   UNL d   1      28.614  15.973 -23.456  0.00  0.00     0.123 C 
ATOM     32  C   UNL d   1      27.930  15.557 -23.210  0.00  0.00     0.029 C 
ENDBRANCH  30  31
ENDBRANCH  27  30
ENDBRANCH  23  24
ENDBRANCH  20  23
ENDBRANCH   4  17
TORSDOF 5
ENDMDL
MODEL 2
REMARK VINA RESULT:      -0.3      1.017      2.398
REMARK  5 active torsions:
REMARK  status: ('A' for Active; 'I' for Inactive)
REMARK    1  A    between atoms: N_11  and  C_4 
REMARK    2  A    between atoms: C_18  and  N_15 
REMARK    3  A    between atoms: C_21  and  C_18 
REMARK    4  A    between atoms: O_28  and  C_23 
REMARK    5  A    between atoms: C_31  and  O_28 
ROOT
ATOM      1  N   UNL d   1      33.220  21.339 -23.016  0.00  0.00    -0.195 N 
ATOM      2  C   UNL d   1      33.216  22.049 -22.631  0.00  0.00     0.168 A 
ATOM      3  C   UNL d   1      33.206  22.080 -21.834  0.00  0.00     0.073 A 
ATOM      4  C   UNL d   1      33.230  21.327 -23.812  0.00  0.00     0.153 A 
ATOM      5  N   UNL d   1      33.203  20.685 -21.810  0.00  0.00    -0.143 NA
ATOM      6  C   UNL d   1      33.199  21.395 -21.425  0.00  0.00     0.185 A 
ATOM      7  N   UNL d   1      33.224  22.730 -23.051  0.00  0.00    -0.227 NA
ATOM      8  C   UNL d   1      33.203  22.784 -21.452  0.00  0.00     0.007 A 
ATOM      9  N   UNL d   1      33.189  21.411 -20.618  0.00  0.00    -0.225 NA
ATOM     10  C   UNL d   1      33.237  21.998 -24.232  0.00  0.00     0.057 A 
ATOM     11  C   UNL d   1      33.193  22.814 -20.656  0.00  0.00     0.019 A 
ATOM     12  C   UNL d   1      33.234  22.709 -23.847  0.00  0.00     0.086 A 
ATOM     13  C   UNL d   1      33.186  22.122 -20.232  0.00  0.00     0.083 A 
ATOM     14  C   UNL d   1      33.210  23.466 -21.876  0.00  0.00     0.000 C 
ATOM     15  C   UNL d   1      33.241  23.415 -24.288  0.00  0.00     0.021 C 
ATOM     16  C   UNL d   1      33.176  22.145 -19.440  0.00  0.00     0.021 C 
ENDROOT
BRANCH   4  17
ATOM     17  N   UNL d   1      33.233  20.590 -24.202  0.00  0.00    -0.286 N 
ATOM     18  C   UNL d   1      33.228  20.159 -23.496  0.00  0.00     0.101 A 
ATOM     19  C   UNL d   1      33.229  19.336 -23.523  0.00  0.00     0.100 A 
ATOM     20  N   UNL d   1      33.234  18.940 -24.258  0.00  0.00    -0.300 N 
ATOM     21  C   UNL d   1      33.239  19.386 -24.965  0.00  0.00     0.100 A 
ATOM     22  C   UNL d   1      33.238  20.216 -24.933  0.00  0.00     0.101 A 
BRANCH  20  23
ATOM     23  C   UNL d   1      33.235  18.106 -24.291  0.00  0.00     0.080 C 
BRANCH  23  24
ATOM     24  C   UNL d   1      32.524  17.691 -24.196  0.00  0.00     0.018 A 
ATOM     25  C   UNL d   1      31.980  17.633 -24.822  0.00  0.00     0.004 A 
ATOM     26  C   UNL d   1      31.261  17.213 -24.726  0.00  0.00     0.025 A 
ATOM     27  C   UNL d   1      31.089  16.848 -23.994  0.00  0.00     0.100 A 
ATOM     28  C   UNL d   1      31.640  16.905 -23.356  0.00  0.00     0.025 A 
ATOM     29  C   UNL d   1      32.350  17.326 -23.468  0.00  0.00     0.004 A 
BRANCH  27  30
ATOM     30  O   UNL d   1      30.382  16.432 -23.890  0.00  0.00    -0.305 OA
BRANCH  30  31
ATOM     31  C   UNL d   1      29.670  16.730 -24.211  0.00  0.00     0.123 C 
ATOM     32  C   UNL d   1      28.945  16.346 -24.045  0.00  0.00     0.029 C 
ENDBRANCH  30  31
ENDBRANCH  27  30
ENDBRANCH  23  24
ENDBRANCH  20  23
ENDBRANCH   4  17
TORSDOF 5
ENDMDL
