MODEL 1
REMARK VINA RESULT:       4.4      0.000      0.000
REMARK  3 active torsions:
REMARK  status: ('A' for Active; 'I' for Inactive)
REMARK    1  A    between atoms: C_12  and  C_9 
REMARK    2  A    between atoms: O_26  and  C_19 
REMARK    3  A    between atoms: O_27  and  C_22 
ROOT
ATOM      1  C   UNL d   1      57.943  -9.592  30.871  0.00  0.00     0.156 A 
ATOM      2  C   UNL d   1      58.395  -9.569  31.560  0.00  0.00     0.091 A 
ATOM      3  N   UNL d   1      57.127  -9.675  30.913  0.00  0.00    -0.241 N 
ATOM      4  N   UNL d   1      57.210  -9.712  32.334  0.00  0.00    -0.224 N 
ATOM      5  C   UNL d   1      56.762  -9.735  31.643  0.00  0.00     0.343 A 
ATOM      6  C   UNL d   1      58.023  -9.630  32.294  0.00  0.00     0.271 A 
ATOM      7  C   UNL d   1      59.579  -9.426  30.788  0.00  0.00     0.056 A 
ATOM      8  N   UNL d   1      58.312  -9.531  30.140  0.00  0.00    -0.228 NA
ATOM      9  C   UNL d   1      59.208  -9.486  31.521  0.00  0.00     0.012 A 
ATOM     10  C   UNL d   1      59.123  -9.449  30.092  0.00  0.00     0.082 A 
ATOM     11  C   UNL d   1      60.395  -9.343  30.746  0.00  0.00     0.193 A 
ATOM     12  C   UNL d   1      59.492  -9.388  29.361  0.00  0.00    -0.003 A 
ATOM     13  C   UNL d   1      60.309  -9.305  29.313  0.00  0.00     0.042 A 
ATOM     14  O   UNL d   1      55.943  -9.818  31.687  0.00  0.00    -0.245 OA
ATOM     15  C   UNL d   1      60.759  -9.282  30.007  0.00  0.00     0.019 A 
ATOM     16  O   UNL d   1      58.347  -9.615  32.832  0.00  0.00    -0.266 OA
ATOM     17  O   UNL d   1      60.785  -9.323  31.354  0.00  0.00    -0.287 OA
ATOM     18  C   UNL d   1      56.680  -9.697  30.223  0.00  0.00     0.105 C 
ATOM     19  C   UNL d   1      56.838  -9.773  33.067  0.00  0.00     0.107 C 
ATOM     20  C   UNL d   1      59.949  -9.323  28.759  0.00  0.00     0.009 C 
ATOM     21  C   UNL d   1      61.128  -9.222  29.276  0.00  0.00     0.009 C 
ENDROOT
BRANCH   9  22
ATOM     22  C   UNL d   1      59.683  -9.463  32.253  0.00  0.00     0.003 A 
ATOM     23  C   UNL d   1      59.364  -9.007  33.039  0.00  0.00     0.026 A 
ATOM     24  C   UNL d   1      59.878  -9.012  33.747  0.00  0.00     0.116 A 
ATOM     25  C   UNL d   1      60.635  -9.415  33.720  0.00  0.00     0.116 A 
ATOM     26  C   UNL d   1      60.895  -9.818  32.994  0.00  0.00     0.026 A 
ATOM     27  C   UNL d   1      60.391  -9.814  32.296  0.00  0.00     0.002 A 
BRANCH  24  28
ATOM     28  O   UNL d   1      59.614  -8.612  34.461  0.00  0.00    -0.326 OA
ATOM     29  C   UNL d   1      59.332  -7.793  34.426  0.00  0.00     0.181 C 
ENDBRANCH  24  28
BRANCH  25  30
ATOM     30  O   UNL d   1      61.128  -9.414  34.416  0.00  0.00    -0.326 OA
ATOM     31  C   UNL d   1      60.800  -9.612  35.197  0.00  0.00     0.181 C 
ENDBRANCH  25  30
ENDBRANCH   9  22
TORSDOF 3
ENDMDL
MODEL 2
REMARK VINA RESULT:       5.0      8.996     10.554
REMARK  3 active torsions:
REMARK  status: ('A' for Active; 'I' for Inactive)
REMARK    1  A    between atoms: C_12  and  C_9 
REMARK    2  A    between atoms: O_26  and  C_19 
REMARK    3  A    between atoms: O_27  and  C_22 
ROOT
ATOM      1  C   UNL d   1      55.842   0.442  34.545  0.00  0.00     0.156 A 
ATOM      2  C   UNL d   1      56.024   0.294  33.755  0.00  0.00     0.091 A 
ATOM      3  N   UNL d   1      55.059   0.488  34.788  0.00  0.00    -0.241 N 
ATOM      4  N   UNL d   1      54.636   0.235  33.453  0.00  0.00    -0.224 N 
ATOM      5  C   UNL d   1      54.457   0.384  34.243  0.00  0.00     0.343 A 
ATOM      6  C   UNL d   1      55.415   0.190  33.209  0.00  0.00     0.271 A 
ATOM      7  C   UNL d   1      57.411   0.352  34.057  0.00  0.00     0.056 A 
ATOM      8  N   UNL d   1      56.447   0.546  35.090  0.00  0.00    -0.228 NA
ATOM      9  C   UNL d   1      56.803   0.248  33.511  0.00  0.00     0.012 A 
ATOM     10  C   UNL d   1      57.227   0.502  34.854  0.00  0.00     0.082 A 
ATOM     11  C   UNL d   1      58.194   0.307  33.814  0.00  0.00     0.193 A 
ATOM     12  C   UNL d   1      57.833   0.606  35.400  0.00  0.00    -0.003 A 
ATOM     13  C   UNL d   1      58.619   0.561  35.161  0.00  0.00     0.042 A 
ATOM     14  O   UNL d   1      53.670   0.429  34.486  0.00  0.00    -0.245 OA
ATOM     15  C   UNL d   1      58.798   0.412  34.368  0.00  0.00     0.019 A 
ATOM     16  O   UNL d   1      55.530   0.076  32.602  0.00  0.00    -0.266 OA
ATOM     17  O   UNL d   1      58.347   0.176  33.119  0.00  0.00    -0.287 OA
ATOM     18  C   UNL d   1      54.881   0.636  35.578  0.00  0.00     0.105 C 
ATOM     19  C   UNL d   1      54.027   0.132  32.907  0.00  0.00     0.107 C 
ATOM     20  C   UNL d   1      58.476   0.681  35.795  0.00  0.00     0.009 C 
ATOM     21  C   UNL d   1      59.403   0.515  34.913  0.00  0.00     0.009 C 
ENDROOT
BRANCH   9  22
ATOM     22  C   UNL d   1      56.992   0.091  32.673  0.00  0.00     0.003 A 
ATOM     23  C   UNL d   1      57.060  -0.810  32.338  0.00  0.00     0.026 A 
ATOM     24  C   UNL d   1      57.251  -0.915  31.491  0.00  0.00     0.116 A 
ATOM     25  C   UNL d   1      57.371  -0.226  30.994  0.00  0.00     0.116 A 
ATOM     26  C   UNL d   1      57.303   0.576  31.326  0.00  0.00     0.026 A 
ATOM     27  C   UNL d   1      57.114   0.682  32.160  0.00  0.00     0.002 A 
BRANCH  24  28
ATOM     28  O   UNL d   1      57.317  -1.710  31.170  0.00  0.00    -0.326 OA
ATOM     29  C   UNL d   1      57.379  -1.833  30.315  0.00  0.00     0.181 C 
ENDBRANCH  24  28
BRANCH  25  30
ATOM     30  O   UNL d   1      57.557  -0.339  30.170  0.00  0.00    -0.326 OA
ATOM     31  C   UNL d   1      57.948   0.286  29.709  0.00  0.00     0.181 C 
ENDBRANCH  25  30
ENDBRANCH   9  22
TORSDOF 3
ENDMDL
MODEL 3
REMARK VINA RESULT:       5.4      8.944     10.432
REMARK  3 active torsions:
REMARK  status: ('A' for Active; 'I' for Inactive)
REMARK    1  A    between atoms: C_12  and  C_9 
REMARK    2  A    between atoms: O_26  and  C_19 
REMARK    3  A    between atoms: O_27  and  C_22 
ROOT
ATOM      1  C   UNL d   1      58.331   0.426  33.889  0.00  0.00     0.156 A 
ATOM      2  C   UNL d   1      57.520   0.301  33.965  0.00  0.00     0.091 A 
ATOM      3  N   UNL d   1      58.796   0.543  34.556  0.00  0.00    -0.241 N 
ATOM      4  N   UNL d   1      57.641   0.409  35.377  0.00  0.00    -0.224 N 
ATOM      5  C   UNL d   1      58.452   0.535  35.298  0.00  0.00     0.343 A 
ATOM      6  C   UNL d   1      57.177   0.293  34.714  0.00  0.00     0.271 A 
ATOM      7  C   UNL d   1      57.399   0.192  32.553  0.00  0.00     0.056 A 
ATOM      8  N   UNL d   1      58.675   0.435  33.144  0.00  0.00    -0.228 NA
ATOM      9  C   UNL d   1      57.055   0.184  33.302  0.00  0.00     0.012 A 
ATOM     10  C   UNL d   1      58.218   0.319  32.477  0.00  0.00     0.082 A 
ATOM     11  C   UNL d   1      56.934   0.075  31.886  0.00  0.00     0.193 A 
ATOM     12  C   UNL d   1      58.561   0.327  31.731  0.00  0.00    -0.003 A 
ATOM     13  C   UNL d   1      58.100   0.210  31.060  0.00  0.00     0.042 A 
ATOM     14  O   UNL d   1      58.917   0.652  35.969  0.00  0.00    -0.245 OA
ATOM     15  C   UNL d   1      57.286   0.085  31.139  0.00  0.00     0.019 A 
ATOM     16  O   UNL d   1      56.561   0.199  34.796  0.00  0.00    -0.266 OA
ATOM     17  O   UNL d   1      56.223  -0.035  31.960  0.00  0.00    -0.287 OA
ATOM     18  C   UNL d   1      59.605   0.669  34.477  0.00  0.00     0.105 C 
ATOM     19  C   UNL d   1      57.298   0.402  36.127  0.00  0.00     0.107 C 
ATOM     20  C   UNL d   1      58.750   0.311  30.996  0.00  0.00     0.009 C 
ATOM     21  C   UNL d   1      57.630   0.093  30.394  0.00  0.00     0.009 C 
ENDROOT
BRANCH   9  22
ATOM     22  C   UNL d   1      56.197   0.051  33.386  0.00  0.00     0.003 A 
ATOM     23  C   UNL d   1      55.824  -0.837  33.356  0.00  0.00     0.026 A 
ATOM     24  C   UNL d   1      54.957  -0.916  33.445  0.00  0.00     0.116 A 
ATOM     25  C   UNL d   1      54.475  -0.215  33.554  0.00  0.00     0.116 A 
ATOM     26  C   UNL d   1      54.841   0.574  33.577  0.00  0.00     0.026 A 
ATOM     27  C   UNL d   1      55.694   0.655  33.489  0.00  0.00     0.002 A 
BRANCH  24  28
ATOM     28  O   UNL d   1      54.603  -1.699  33.421  0.00  0.00    -0.326 OA
ATOM     29  C   UNL d   1      55.103  -2.407  33.410  0.00  0.00     0.181 C 
ENDBRANCH  24  28
BRANCH  25  30
ATOM     30  O   UNL d   1      53.631  -0.304  33.640  0.00  0.00    -0.326 OA
ATOM     31  C   UNL d   1      53.168   0.257  34.115  0.00  0.00     0.181 C 
ENDBRANCH  25  30
ENDBRANCH   9  22
TORSDOF 3
ENDMDL
MODEL 4
REMARK VINA RESULT:       5.7      7.550      8.770
REMARK  3 active torsions:
REMARK  status: ('A' for Active; 'I' for Inactive)
REMARK    1  A    between atoms: C_12  and  C_9 
REMARK    2  A    between atoms: O_26  and  C_19 
REMARK    3  A    between atoms: O_27  and  C_22 
ROOT
ATOM      1  C   UNL d   1      59.300  -0.535  30.099  0.00  0.00     0.156 A 
ATOM      2  C   UNL d   1      59.211  -1.277  29.751  0.00  0.00     0.091 A 
ATOM      3  N   UNL d   1      59.939  -0.059  29.903  0.00  0.00    -0.241 N 
ATOM      4  N   UNL d   1      60.405  -1.063  29.009  0.00  0.00    -0.224 N 
ATOM      5  C   UNL d   1      60.490  -0.322  29.359  0.00  0.00     0.343 A 
ATOM      6  C   UNL d   1      59.769  -1.539  29.203  0.00  0.00     0.271 A 
ATOM      7  C   UNL d   1      58.018  -1.490  30.493  0.00  0.00     0.056 A 
ATOM      8  N   UNL d   1      58.745  -0.272  30.645  0.00  0.00    -0.228 NA
ATOM      9  C   UNL d   1      58.575  -1.753  29.945  0.00  0.00     0.012 A 
ATOM     10  C   UNL d   1      58.107  -0.742  30.844  0.00  0.00     0.082 A 
ATOM     11  C   UNL d   1      57.379  -1.967  30.689  0.00  0.00     0.193 A 
ATOM     12  C   UNL d   1      57.553  -0.479  31.390  0.00  0.00    -0.003 A 
ATOM     13  C   UNL d   1      56.910  -0.952  31.590  0.00  0.00     0.042 A 
ATOM     14  O   UNL d   1      61.133   0.155  29.161  0.00  0.00    -0.245 OA
ATOM     15  C   UNL d   1      56.825  -1.696  31.239  0.00  0.00     0.019 A 
ATOM     16  O   UNL d   1      59.722  -2.100  28.926  0.00  0.00    -0.266 OA
ATOM     17  O   UNL d   1      57.307  -2.616  30.380  0.00  0.00    -0.287 OA
ATOM     18  C   UNL d   1      60.024   0.681  30.253  0.00  0.00     0.105 C 
ATOM     19  C   UNL d   1      60.963  -1.325  28.461  0.00  0.00     0.107 C 
ATOM     20  C   UNL d   1      56.978  -0.358  31.871  0.00  0.00     0.009 C 
ATOM     21  C   UNL d   1      56.270  -1.433  31.784  0.00  0.00     0.009 C 
ENDROOT
BRANCH   9  22
ATOM     22  C   UNL d   1      58.485  -2.538  29.574  0.00  0.00     0.003 A 
ATOM     23  C   UNL d   1      59.185  -3.197  29.626  0.00  0.00     0.026 A 
ATOM     24  C   UNL d   1      59.046  -3.969  29.238  0.00  0.00     0.116 A 
ATOM     25  C   UNL d   1      58.304  -4.111  28.830  0.00  0.00     0.116 A 
ATOM     26  C   UNL d   1      57.691  -3.495  28.801  0.00  0.00     0.026 A 
ATOM     27  C   UNL d   1      57.825  -2.735  29.182  0.00  0.00     0.002 A 
BRANCH  24  28
ATOM     28  O   UNL d   1      59.657  -4.573  29.272  0.00  0.00    -0.326 OA
ATOM     29  C   UNL d   1      60.483  -4.353  29.409  0.00  0.00     0.181 C 
ENDBRANCH  24  28
BRANCH  25  30
ATOM     30  O   UNL d   1      58.179  -4.867  28.455  0.00  0.00    -0.326 OA
ATOM     31  C   UNL d   1      57.505  -5.370  28.675  0.00  0.00     0.181 C 
ENDBRANCH  25  30
ENDBRANCH   9  22
TORSDOF 3
ENDMDL
MODEL 5
REMARK VINA RESULT:       6.6      8.906     10.437
REMARK  3 active torsions:
REMARK  status: ('A' for Active; 'I' for Inactive)
REMARK    1  A    between atoms: C_12  and  C_9 
REMARK    2  A    between atoms: O_26  and  C_19 
REMARK    3  A    between atoms: O_27  and  C_22 
ROOT
ATOM      1  C   UNL d   1      58.134   0.186  31.890  0.00  0.00     0.156 A 
ATOM      2  C   UNL d   1      57.338   0.096  32.081  0.00  0.00     0.091 A 
ATOM      3  N   UNL d   1      58.383   0.126  31.110  0.00  0.00    -0.241 N 
ATOM      4  N   UNL d   1      57.039  -0.114  30.707  0.00  0.00    -0.224 N 
ATOM      5  C   UNL d   1      57.836  -0.023  30.520  0.00  0.00     0.343 A 
ATOM      6  C   UNL d   1      56.790  -0.054  31.484  0.00  0.00     0.271 A 
ATOM      7  C   UNL d   1      57.636   0.306  33.455  0.00  0.00     0.056 A 
ATOM      8  N   UNL d   1      58.681   0.336  32.484  0.00  0.00    -0.228 NA
ATOM      9  C   UNL d   1      57.089   0.155  32.858  0.00  0.00     0.012 A 
ATOM     10  C   UNL d   1      58.441   0.397  33.262  0.00  0.00     0.082 A 
ATOM     11  C   UNL d   1      57.388   0.366  34.235  0.00  0.00     0.193 A 
ATOM     12  C   UNL d   1      58.988   0.547  33.856  0.00  0.00    -0.003 A 
ATOM     13  C   UNL d   1      58.744   0.607  34.639  0.00  0.00     0.042 A 
ATOM     14  O   UNL d   1      58.084  -0.083  29.736  0.00  0.00    -0.245 OA
ATOM     15  C   UNL d   1      57.944   0.517  34.827  0.00  0.00     0.019 A 
ATOM     16  O   UNL d   1      56.178  -0.126  31.606  0.00  0.00    -0.266 OA
ATOM     17  O   UNL d   1      56.688   0.286  34.396  0.00  0.00    -0.287 OA
ATOM     18  C   UNL d   1      59.179   0.217  30.923  0.00  0.00     0.105 C 
ATOM     19  C   UNL d   1      56.491  -0.264  30.109  0.00  0.00     0.107 C 
ATOM     20  C   UNL d   1      59.384   0.680  34.489  0.00  0.00     0.009 C 
ATOM     21  C   UNL d   1      58.491   0.667  35.421  0.00  0.00     0.009 C 
ENDROOT
BRANCH   9  22
ATOM     22  C   UNL d   1      56.244   0.060  33.056  0.00  0.00     0.003 A 
ATOM     23  C   UNL d   1      55.882  -0.800  33.297  0.00  0.00     0.026 A 
ATOM     24  C   UNL d   1      55.030  -0.843  33.487  0.00  0.00     0.116 A 
ATOM     25  C   UNL d   1      54.551  -0.133  33.454  0.00  0.00     0.116 A 
ATOM     26  C   UNL d   1      54.906   0.630  33.233  0.00  0.00     0.026 A 
ATOM     27  C   UNL d   1      55.746   0.676  33.045  0.00  0.00     0.002 A 
BRANCH  24  28
ATOM     28  O   UNL d   1      54.685  -1.601  33.705  0.00  0.00    -0.326 OA
ATOM     29  C   UNL d   1      55.057  -2.341  33.450  0.00  0.00     0.181 C 
ENDBRANCH  24  28
BRANCH  25  30
ATOM     30  O   UNL d   1      53.720  -0.186  33.641  0.00  0.00    -0.326 OA
ATOM     31  C   UNL d   1      53.267   0.519  33.871  0.00  0.00     0.181 C 
ENDBRANCH  25  30
ENDBRANCH   9  22
TORSDOF 3
ENDMDL
