MODEL 1
REMARK VINA RESULT:      -4.2      0.000      0.000
REMARK  3 active torsions:
REMARK  status: ('A' for Active; 'I' for Inactive)
REMARK    1  A    between atoms: S_8  and  C_2 
REMARK    2  A    between atoms: C_13  and  S_8 
REMARK    3  A    between atoms: C_15  and  C_13 
ROOT
ATOM      1  C   UNL d   1     -41.242-122.438 -52.718  0.00  0.00     0.104 A 
ATOM      2  C   UNL d   1     -41.306-122.480 -51.072  0.00  0.00     0.182 A 
ATOM      3  N   UNL d   1     -41.232-121.758 -51.464  0.00  0.00    -0.251 N 
ATOM      4  C   UNL d   1     -41.200-121.743 -52.297  0.00  0.00     0.274 A 
ATOM      5  C   UNL d   1     -41.316-123.160 -52.326  0.00  0.00     0.095 A 
ATOM      6  N   UNL d   1     -41.349-123.187 -51.512  0.00  0.00    -0.222 NA
ATOM      7  S   UNL d   1     -41.225-122.591 -53.526  0.00  0.00    -0.081 SA
ATOM      8  C   UNL d   1     -41.345-123.758 -52.892  0.00  0.00     0.026 A 
ATOM      9  O   UNL d   1     -41.125-121.021 -52.689  0.00  0.00    -0.266 OA
ATOM     10  C   UNL d   1     -41.289-123.410 -53.629  0.00  0.00     0.031 A 
ATOM     11  C   UNL d   1     -41.189-121.051 -51.031  0.00  0.00     0.104 C 
ATOM     12  C   UNL d   1     -41.297-123.816 -54.348  0.00  0.00     0.007 C 
ENDROOT
BRANCH   2  13
ATOM     13  S   UNL d   1     -41.339-122.507 -50.240  0.00  0.00    -0.050 SA
BRANCH  13  14
ATOM     14  C   UNL d   1     -41.832-123.056 -49.869  0.00  0.00     0.032 C 
ATOM     15  C   UNL d   1     -41.546-123.807 -49.682  0.00  0.00     0.007 C 
BRANCH  14  16
ATOM     16  C   UNL d   1     -42.607-122.851 -49.686  0.00  0.00     0.007 C 
ATOM     17  C   UNL d   1     -42.951-123.128 -48.988  0.00  0.00     0.001 C 
ENDBRANCH  14  16
ENDBRANCH  13  14
ENDBRANCH   2  13
TORSDOF 3
ENDMDL
MODEL 2
REMARK VINA RESULT:      -3.0      0.934      3.186
REMARK  3 active torsions:
REMARK  status: ('A' for Active; 'I' for Inactive)
REMARK    1  A    between atoms: S_8  and  C_2 
REMARK    2  A    between atoms: C_13  and  S_8 
REMARK    3  A    between atoms: C_15  and  C_13 
ROOT
ATOM      1  C   UNL d   1     -41.874-122.421 -50.864  0.00  0.00     0.104 A 
ATOM      2  C   UNL d   1     -41.375-122.430 -52.433  0.00  0.00     0.182 A 
ATOM      3  N   UNL d   1     -41.375-121.726 -52.004  0.00  0.00    -0.251 N 
ATOM      4  C   UNL d   1     -41.628-121.727 -51.211  0.00  0.00     0.274 A 
ATOM      5  C   UNL d   1     -41.874-123.126 -51.293  0.00  0.00     0.095 A 
ATOM      6  N   UNL d   1     -41.628-123.136 -52.069  0.00  0.00    -0.222 NA
ATOM      7  S   UNL d   1     -42.149-122.588 -50.106  0.00  0.00    -0.081 SA
ATOM      8  C   UNL d   1     -42.149-123.727 -50.801  0.00  0.00     0.026 A 
ATOM      9  O   UNL d   1     -41.628-121.023 -50.781  0.00  0.00    -0.266 OA
ATOM     10  C   UNL d   1     -42.317-123.398 -50.072  0.00  0.00     0.031 A 
ATOM     11  C   UNL d   1     -41.123-121.019 -52.362  0.00  0.00     0.104 C 
ATOM     12  C   UNL d   1     -42.606-123.812 -49.419  0.00  0.00     0.007 C 
ENDROOT
BRANCH   2  13
ATOM     13  S   UNL d   1     -41.123-122.440 -53.228  0.00  0.00    -0.050 SA
BRANCH  13  14
ATOM     14  C   UNL d   1     -41.500-122.937 -53.769  0.00  0.00     0.032 C 
ATOM     15  C   UNL d   1     -41.264-123.724 -53.840  0.00  0.00     0.007 C 
BRANCH  14  16
ATOM     16  C   UNL d   1     -42.110-122.645 -54.236  0.00  0.00     0.007 C 
ATOM     17  C   UNL d   1     -42.074-122.724 -55.057  0.00  0.00     0.001 C 
ENDBRANCH  14  16
ENDBRANCH  13  14
ENDBRANCH   2  13
TORSDOF 3
ENDMDL
MODEL 3
REMARK VINA RESULT:      -1.4      1.355      3.505
REMARK  3 active torsions:
REMARK  status: ('A' for Active; 'I' for Inactive)
REMARK    1  A    between atoms: S_8  and  C_2 
REMARK    2  A    between atoms: C_13  and  S_8 
REMARK    3  A    between atoms: C_15  and  C_13 
ROOT
ATOM      1  C   UNL d   1     -42.329-122.786 -49.569  0.00  0.00     0.104 A 
ATOM      2  C   UNL d   1     -41.536-122.543 -50.992  0.00  0.00     0.182 A 
ATOM      3  N   UNL d   1     -42.285-122.217 -50.875  0.00  0.00    -0.251 N 
ATOM      4  C   UNL d   1     -42.681-122.343 -50.153  0.00  0.00     0.274 A 
ATOM      5  C   UNL d   1     -41.580-123.112 -49.686  0.00  0.00     0.095 A 
ATOM      6  N   UNL d   1     -41.184-122.995 -50.387  0.00  0.00    -0.222 NA
ATOM      7  S   UNL d   1     -42.582-122.999 -48.815  0.00  0.00    -0.081 SA
ATOM      8  C   UNL d   1     -41.371-123.527 -49.005  0.00  0.00     0.026 A 
ATOM      9  O   UNL d   1     -43.430-122.017 -50.036  0.00  0.00    -0.266 OA
ATOM     10  C   UNL d   1     -41.985-123.458 -48.469  0.00  0.00     0.031 A 
ATOM     11  C   UNL d   1     -42.641-121.765 -51.475  0.00  0.00     0.104 C 
ATOM     12  C   UNL d   1     -41.998-123.793 -47.715  0.00  0.00     0.007 C 
ENDROOT
BRANCH   2  13
ATOM     13  S   UNL d   1     -41.131-122.422 -51.711  0.00  0.00    -0.050 SA
BRANCH  13  14
ATOM     14  C   UNL d   1     -41.160-123.003 -52.297  0.00  0.00     0.032 C 
ATOM     15  C   UNL d   1     -41.182-123.801 -52.087  0.00  0.00     0.007 C 
BRANCH  14  16
ATOM     16  C   UNL d   1     -41.167-122.784 -53.090  0.00  0.00     0.007 C 
ATOM     17  C   UNL d   1     -41.183-123.365 -53.676  0.00  0.00     0.001 C 
ENDBRANCH  14  16
ENDBRANCH  13  14
ENDBRANCH   2  13
TORSDOF 3
ENDMDL
MODEL 4
REMARK VINA RESULT:      -1.4      1.649      2.216
REMARK  3 active torsions:
REMARK  status: ('A' for Active; 'I' for Inactive)
REMARK    1  A    between atoms: S_8  and  C_2 
REMARK    2  A    between atoms: C_13  and  S_8 
REMARK    3  A    between atoms: C_15  and  C_13 
ROOT
ATOM      1  C   UNL d   1     -41.736-122.421 -54.110  0.00  0.00     0.104 A 
ATOM      2  C   UNL d   1     -41.396-122.305 -52.502  0.00  0.00     0.182 A 
ATOM      3  N   UNL d   1     -41.346-123.035 -52.884  0.00  0.00    -0.251 N 
ATOM      4  C   UNL d   1     -41.519-123.087 -53.697  0.00  0.00     0.274 A 
ATOM      5  C   UNL d   1     -41.786-121.691 -53.729  0.00  0.00     0.095 A 
ATOM      6  N   UNL d   1     -41.620-121.628 -52.934  0.00  0.00    -0.222 NA
ATOM      7  S   UNL d   1     -41.935-122.306 -54.900  0.00  0.00    -0.081 SA
ATOM      8  C   UNL d   1     -42.016-121.126 -54.283  0.00  0.00     0.026 A 
ATOM      9  O   UNL d   1     -41.468-123.817 -54.078  0.00  0.00    -0.266 OA
ATOM     10  C   UNL d   1     -42.108-121.503 -55.003  0.00  0.00     0.031 A 
ATOM     11  C   UNL d   1     -41.124-123.713 -52.458  0.00  0.00     0.104 C 
ATOM     12  C   UNL d   1     -42.334-121.135 -55.706  0.00  0.00     0.007 C 
ENDROOT
BRANCH   2  13
ATOM     13  S   UNL d   1     -41.226-122.241 -51.689  0.00  0.00    -0.050 SA
BRANCH  13  14
ATOM     14  C   UNL d   1     -41.842-122.129 -51.150  0.00  0.00     0.032 C 
ATOM     15  C   UNL d   1     -42.180-121.382 -51.060  0.00  0.00     0.007 C 
BRANCH  14  16
ATOM     16  C   UNL d   1     -42.117-122.764 -50.705  0.00  0.00     0.007 C 
ATOM     17  C   UNL d   1     -42.187-122.691 -49.886  0.00  0.00     0.001 C 
ENDBRANCH  14  16
ENDBRANCH  13  14
ENDBRANCH   2  13
TORSDOF 3
ENDMDL
