MODEL 1
REMARK VINA RESULT:      -8.4      0.000      0.000
REMARK  3 active torsions:
REMARK  status: ('A' for Active; 'I' for Inactive)
REMARK    1  A    between atoms: N_9  and  C_3 
REMARK    2  A    between atoms: C_14  and  C_5 
REMARK       I    between atoms: C_10  and  N_11 
REMARK    3  A    between atoms: C_13  and  C_10 
ROOT
ATOM      1  N   UNL d   1     -48.107  13.235  23.058  0.00  0.00    -0.196 N 
ATOM      2  C   UNL d   1     -48.910  13.397  23.152  0.00  0.00     0.167 A 
ATOM      3  C   UNL d   1     -47.824  12.471  23.176  0.00  0.00     0.152 A 
ATOM      4  N   UNL d   1     -47.730  13.931  22.849  0.00  0.00    -0.163 NA
ATOM      5  C   UNL d   1     -49.023  14.193  23.000  0.00  0.00     0.055 A 
ATOM      6  C   UNL d   1     -48.298  14.526  22.813  0.00  0.00     0.104 A 
ATOM      7  N   UNL d   1     -49.430  12.796  23.364  0.00  0.00    -0.227 NA
ATOM      8  C   UNL d   1     -48.347  11.862  23.390  0.00  0.00     0.057 A 
ATOM      9  C   UNL d   1     -49.149  12.024  23.484  0.00  0.00     0.086 A 
ATOM     10  C   UNL d   1     -48.168  15.317  22.623  0.00  0.00     0.023 C 
ATOM     11  C   UNL d   1     -49.678  11.421  23.698  0.00  0.00     0.021 C 
ENDROOT
BRANCH   3  12
ATOM     12  N   UNL d   1     -47.017  12.308  23.081  0.00  0.00    -0.286 N 
ATOM     13  C   UNL d   1     -46.559  12.698  22.520  0.00  0.00     0.101 A 
ATOM     14  C   UNL d   1     -45.758  12.519  22.444  0.00  0.00     0.102 A 
ATOM     15  N   UNL d   1     -45.413  11.957  22.920  0.00  0.00    -0.267 N 
ATOM     16  C   UNL d   1     -44.603  11.781  22.837  0.00  0.00     0.288 C 
ATOM     17  C   UNL d   1     -45.868  11.557  23.489  0.00  0.00     0.102 A 
ATOM     18  O   UNL d   1     -44.247  11.217  23.311  0.00  0.00    -0.264 OA
ATOM     19  C   UNL d   1     -46.670  11.737  23.565  0.00  0.00     0.101 A 
BRANCH  16  20
ATOM     20  C   UNL d   1     -44.161  12.184  22.269  0.00  0.00     0.156 A 
ATOM     21  O   UNL d   1     -44.358  12.751  21.718  0.00  0.00    -0.300 OA
ATOM     22  C   UNL d   1     -43.676  12.944  21.302  0.00  0.00     0.123 A 
ATOM     23  C   UNL d   1     -43.063  12.507  21.588  0.00  0.00     0.029 A 
ATOM     24  C   UNL d   1     -43.354  12.028  22.192  0.00  0.00     0.032 A 
ENDBRANCH  16  20
ENDBRANCH   3  12
BRANCH   5  25
ATOM     25  C   UNL d   1     -49.705  14.666  23.009  0.00  0.00     0.004 A 
ATOM     26  C   UNL d   1     -49.901  15.091  23.688  0.00  0.00     0.000 A 
ATOM     27  C   UNL d   1     -50.583  15.564  23.697  0.00  0.00     0.000 A 
ATOM     28  C   UNL d   1     -51.064  15.608  23.027  0.00  0.00     0.000 A 
ATOM     29  C   UNL d   1     -50.864  15.180  22.346  0.00  0.00     0.000 A 
ATOM     30  C   UNL d   1     -50.185  14.711  22.340  0.00  0.00     0.000 A 
ENDBRANCH   5  25
TORSDOF 3
ENDMDL
MODEL 2
REMARK VINA RESULT:      -7.5      1.373      2.377
REMARK  3 active torsions:
REMARK  status: ('A' for Active; 'I' for Inactive)
REMARK    1  A    between atoms: N_9  and  C_3 
REMARK    2  A    between atoms: C_14  and  C_5 
REMARK       I    between atoms: C_10  and  N_11 
REMARK    3  A    between atoms: C_13  and  C_10 
ROOT
ATOM      1  N   UNL d   1     -47.320  13.227  22.346  0.00  0.00    -0.196 N 
ATOM      2  C   UNL d   1     -48.000  13.693  22.339  0.00  0.00     0.167 A 
ATOM      3  C   UNL d   1     -46.586  13.568  22.495  0.00  0.00     0.152 A 
ATOM      4  N   UNL d   1     -47.542  12.454  22.188  0.00  0.00    -0.163 NA
ATOM      5  C   UNL d   1     -48.636  13.206  22.177  0.00  0.00     0.055 A 
ATOM      6  C   UNL d   1     -48.358  12.441  22.084  0.00  0.00     0.104 A 
ATOM      7  N   UNL d   1     -47.946  14.502  22.482  0.00  0.00    -0.227 NA
ATOM      8  C   UNL d   1     -46.528  14.384  22.640  0.00  0.00     0.057 A 
ATOM      9  C   UNL d   1     -47.207  14.851  22.633  0.00  0.00     0.086 A 
ATOM     10  C   UNL d   1     -48.820  11.780  21.914  0.00  0.00     0.023 C 
ATOM     11  C   UNL d   1     -47.159  15.667  22.777  0.00  0.00     0.021 C 
ENDROOT
BRANCH   3  12
ATOM     12  N   UNL d   1     -45.903  13.099  22.502  0.00  0.00    -0.286 N 
ATOM     13  C   UNL d   1     -45.858  12.407  22.945  0.00  0.00     0.101 A 
ATOM     14  C   UNL d   1     -45.167  11.956  22.936  0.00  0.00     0.102 A 
ATOM     15  N   UNL d   1     -44.528  12.189  22.492  0.00  0.00    -0.267 N 
ATOM     16  C   UNL d   1     -43.833  11.728  22.488  0.00  0.00     0.288 C 
ATOM     17  C   UNL d   1     -44.564  12.886  22.042  0.00  0.00     0.102 A 
ATOM     18  O   UNL d   1     -43.184  11.954  22.045  0.00  0.00    -0.264 OA
ATOM     19  C   UNL d   1     -45.256  13.337  22.051  0.00  0.00     0.101 A 
BRANCH  16  20
ATOM     20  C   UNL d   1     -43.807  11.038  22.939  0.00  0.00     0.156 A 
ATOM     21  O   UNL d   1     -44.377  10.630  23.356  0.00  0.00    -0.300 OA
ATOM     22  C   UNL d   1     -44.017   9.974  23.697  0.00  0.00     0.123 A 
ATOM     23  C   UNL d   1     -43.237   9.972  23.498  0.00  0.00     0.029 A 
ATOM     24  C   UNL d   1     -43.094  10.631  23.024  0.00  0.00     0.032 A 
ENDBRANCH  16  20
ENDBRANCH   3  12
BRANCH   5  25
ATOM     25  C   UNL d   1     -49.447  13.363  22.102  0.00  0.00     0.004 A 
ATOM     26  C   UNL d   1     -49.738  13.699  21.407  0.00  0.00     0.000 A 
ATOM     27  C   UNL d   1     -50.549  13.856  21.331  0.00  0.00     0.000 A 
ATOM     28  C   UNL d   1     -51.064  13.676  21.951  0.00  0.00     0.000 A 
ATOM     29  C   UNL d   1     -50.770  13.338  22.648  0.00  0.00     0.000 A 
ATOM     30  C   UNL d   1     -49.963  13.183  22.720  0.00  0.00     0.000 A 
ENDBRANCH   5  25
TORSDOF 3
ENDMDL
MODEL 3
REMARK VINA RESULT:      -6.8      7.591     10.082
REMARK  3 active torsions:
REMARK  status: ('A' for Active; 'I' for Inactive)
REMARK    1  A    between atoms: N_9  and  C_3 
REMARK    2  A    between atoms: C_14  and  C_5 
REMARK       I    between atoms: C_10  and  N_11 
REMARK    3  A    between atoms: C_13  and  C_10 
ROOT
ATOM      1  N   UNL d   1     -39.706  14.593  17.750  0.00  0.00    -0.196 N 
ATOM      2  C   UNL d   1     -39.660  14.692  16.933  0.00  0.00     0.167 A 
ATOM      3  C   UNL d   1     -40.323  14.935  18.173  0.00  0.00     0.152 A 
ATOM      4  N   UNL d   1     -39.069  14.135  17.986  0.00  0.00    -0.163 NA
ATOM      5  C   UNL d   1     -38.995  14.294  16.670  0.00  0.00     0.055 A 
ATOM      6  C   UNL d   1     -38.628  13.949  17.317  0.00  0.00     0.104 A 
ATOM      7  N   UNL d   1     -40.232  15.132  16.538  0.00  0.00    -0.227 NA
ATOM      8  C   UNL d   1     -40.903  15.380  17.778  0.00  0.00     0.057 A 
ATOM      9  C   UNL d   1     -40.857  15.478  16.961  0.00  0.00     0.086 A 
ATOM     10  C   UNL d   1     -37.940  13.498  17.293  0.00  0.00     0.023 C 
ATOM     11  C   UNL d   1     -41.432  15.922  16.558  0.00  0.00     0.021 C 
ENDROOT
BRANCH   3  12
ATOM     12  N   UNL d   1     -40.369  14.836  18.995  0.00  0.00    -0.286 N 
ATOM     13  C   UNL d   1     -39.837  15.202  19.505  0.00  0.00     0.101 A 
ATOM     14  C   UNL d   1     -39.902  15.088  20.319  0.00  0.00     0.102 A 
ATOM     15  N   UNL d   1     -40.489  14.617  20.625  0.00  0.00    -0.267 N 
ATOM     16  C   UNL d   1     -40.549  14.508  21.449  0.00  0.00     0.288 C 
ATOM     17  C   UNL d   1     -41.032  14.244  20.118  0.00  0.00     0.102 A 
ATOM     18  O   UNL d   1     -41.137  14.035  21.767  0.00  0.00    -0.264 OA
ATOM     19  C   UNL d   1     -40.966  14.357  19.303  0.00  0.00     0.101 A 
BRANCH  16  20
ATOM     20  C   UNL d   1     -40.006  14.882  21.944  0.00  0.00     0.156 A 
ATOM     21  O   UNL d   1     -39.970  15.637  22.252  0.00  0.00    -0.300 OA
ATOM     22  C   UNL d   1     -39.292  15.687  22.713  0.00  0.00     0.123 A 
ATOM     23  C   UNL d   1     -38.910  14.979  22.694  0.00  0.00     0.029 A 
ATOM     24  C   UNL d   1     -39.347  14.468  22.217  0.00  0.00     0.032 A 
ENDBRANCH  16  20
ENDBRANCH   3  12
BRANCH   5  25
ATOM     25  C   UNL d   1     -38.672  14.199  15.912  0.00  0.00     0.004 A 
ATOM     26  C   UNL d   1     -38.297  14.835  15.543  0.00  0.00     0.000 A 
ATOM     27  C   UNL d   1     -37.974  14.740  14.785  0.00  0.00     0.000 A 
ATOM     28  C   UNL d   1     -38.027  14.011  14.400  0.00  0.00     0.000 A 
ATOM     29  C   UNL d   1     -38.404  13.374  14.773  0.00  0.00     0.000 A 
ATOM     30  C   UNL d   1     -38.725  13.471  15.528  0.00  0.00     0.000 A 
ENDBRANCH   5  25
TORSDOF 3
ENDMDL
MODEL 4
REMARK VINA RESULT:      -5.6      2.041      5.562
REMARK  3 active torsions:
REMARK  status: ('A' for Active; 'I' for Inactive)
REMARK    1  A    between atoms: N_9  and  C_3 
REMARK    2  A    between atoms: C_14  and  C_5 
REMARK       I    between atoms: C_10  and  N_11 
REMARK    3  A    between atoms: C_13  and  C_10 
ROOT
ATOM      1  N   UNL d   1     -46.304  12.399  22.635  0.00  0.00    -0.196 N 
ATOM      2  C   UNL d   1     -45.530  12.118  22.678  0.00  0.00     0.167 A 
ATOM      3  C   UNL d   1     -46.463  13.114  22.260  0.00  0.00     0.152 A 
ATOM      4  N   UNL d   1     -46.792  11.857  23.008  0.00  0.00    -0.163 NA
ATOM      5  C   UNL d   1     -45.546  11.405  23.078  0.00  0.00     0.055 A 
ATOM      6  C   UNL d   1     -46.322  11.241  23.282  0.00  0.00     0.104 A 
ATOM      7  N   UNL d   1     -44.915  12.552  22.347  0.00  0.00    -0.227 NA
ATOM      8  C   UNL d   1     -45.844  13.555  21.924  0.00  0.00     0.057 A 
ATOM      9  C   UNL d   1     -45.071  13.275  21.967  0.00  0.00     0.086 A 
ATOM     10  C   UNL d   1     -46.579  10.573  23.692  0.00  0.00     0.023 C 
ATOM     11  C   UNL d   1     -44.446  13.709  21.634  0.00  0.00     0.021 C 
ENDROOT
BRANCH   3  12
ATOM     12  N   UNL d   1     -47.241  13.397  22.216  0.00  0.00    -0.286 N 
ATOM     13  C   UNL d   1     -47.510  14.004  22.703  0.00  0.00     0.101 A 
ATOM     14  C   UNL d   1     -48.288  14.268  22.641  0.00  0.00     0.102 A 
ATOM     15  N   UNL d   1     -48.796  13.935  22.102  0.00  0.00    -0.267 N 
ATOM     16  C   UNL d   1     -49.582  14.207  22.045  0.00  0.00     0.288 C 
ATOM     17  C   UNL d   1     -48.534  13.322  21.606  0.00  0.00     0.102 A 
ATOM     18  O   UNL d   1     -50.101  13.878  21.505  0.00  0.00    -0.264 OA
ATOM     19  C   UNL d   1     -47.755  13.057  21.667  0.00  0.00     0.101 A 
BRANCH  16  20
ATOM     20  C   UNL d   1     -49.832  14.816  22.542  0.00  0.00     0.156 A 
ATOM     21  O   UNL d   1     -49.548  15.568  22.678  0.00  0.00    -0.300 OA
ATOM     22  C   UNL d   1     -50.033  15.922  23.241  0.00  0.00     0.123 A 
ATOM     23  C   UNL d   1     -50.609  15.401  23.452  0.00  0.00     0.029 A 
ATOM     24  C   UNL d   1     -50.494  14.707  23.022  0.00  0.00     0.032 A 
ENDBRANCH  16  20
ENDBRANCH   3  12
BRANCH   5  25
ATOM     25  C   UNL d   1     -44.942  10.875  23.285  0.00  0.00     0.004 A 
ATOM     26  C   UNL d   1     -44.159  11.132  23.307  0.00  0.00     0.000 A 
ATOM     27  C   UNL d   1     -43.555  10.602  23.514  0.00  0.00     0.000 A 
ATOM     28  C   UNL d   1     -43.738   9.818  23.698  0.00  0.00     0.000 A 
ATOM     29  C   UNL d   1     -44.527   9.562  23.675  0.00  0.00     0.000 A 
ATOM     30  C   UNL d   1     -45.125  10.092  23.469  0.00  0.00     0.000 A 
ENDBRANCH   5  25
TORSDOF 3
ENDMDL
