MODEL 1
REMARK VINA RESULT:       4.2      0.000      0.000
REMARK  2 active torsions:
REMARK  status: ('A' for Active; 'I' for Inactive)
REMARK    1  A    between atoms: C_6  and  N_2 
REMARK    2  A    between atoms: C_8  and  C_6 
ROOT
ATOM      1  C   UNL d   1      46.537 -18.591  43.428  0.00  0.00     0.151 A 
ATOM      2  N   UNL d   1      46.504 -19.391  43.244  0.00  0.00    -0.286 N 
ATOM      3  S   UNL d   1      46.593 -18.181  42.725  0.00  0.00    -0.057 SA
ATOM      4  C   UNL d   1      46.539 -19.468  42.439  0.00  0.00     0.071 A 
ATOM      5  C   UNL d   1      46.594 -18.719  42.118  0.00  0.00     0.048 A 
ATOM      6  S   UNL d   1      46.520 -18.247  44.172  0.00  0.00    -0.052 SA
ATOM      7  C   UNL d   1      46.528 -20.127  41.944  0.00  0.00     0.018 A 
ATOM      8  C   UNL d   1      46.638 -18.620  41.298  0.00  0.00     0.008 A 
ATOM      9  C   UNL d   1      46.572 -20.036  41.122  0.00  0.00     0.002 A 
ATOM     10  C   UNL d   1      46.627 -19.287  40.800  0.00  0.00     0.001 A 
ENDROOT
BRANCH   2  11
ATOM     11  C   UNL d   1      46.445 -20.009  43.808  0.00  0.00     0.152 C 
BRANCH  11  12
ATOM     12  C   UNL d   1      45.715 -20.218  44.132  0.00  0.00     0.230 C 
ATOM     13  O   UNL d   1      45.636 -20.316  44.952  0.00  0.00    -0.643 OA
ATOM     14  O   UNL d   1      45.069 -20.330  43.644  0.00  0.00    -0.643 OA
ENDBRANCH  11  12
ENDBRANCH   2  11
TORSDOF 2
ENDMDL
