MODEL 1
REMARK VINA RESULT:      -1.5      0.000      0.000
REMARK  3 active torsions:
REMARK  status: ('A' for Active; 'I' for Inactive)
REMARK    1  A    between atoms: N_4  and  C_8 
REMARK    2  A    between atoms: N_12  and  C_6 
REMARK       I    between atoms: C_11  and  N_12 
REMARK    3  A    between atoms: C_14  and  C_11 
ROOT
ATOM      1  C   UNL d   1      32.887  19.192 -22.808  0.00  0.00     0.279 C 
ATOM      2  N   UNL d   1      32.516  18.866 -23.429  0.00  0.00    -0.208 NA
ATOM      3  O   UNL d   1      33.241  18.706 -22.207  0.00  0.00    -0.265 OA
ENDROOT
BRANCH   1   4
ATOM      4  C   UNL d   1      32.938  20.010 -22.731  0.00  0.00     0.059 A 
ATOM      5  C   UNL d   1      32.732  20.385 -22.020  0.00  0.00     0.022 A 
ATOM      6  C   UNL d   1      32.787  21.204 -21.955  0.00  0.00     0.070 A 
ATOM      7  C   UNL d   1      33.029  21.681 -22.535  0.00  0.00     0.018 A 
ATOM      8  C   UNL d   1      33.241  21.352 -23.251  0.00  0.00     0.002 A 
ATOM      9  C   UNL d   1      33.210  20.525 -23.388  0.00  0.00     0.005 A 
BRANCH   6  10
ATOM     10  N   UNL d   1      32.566  21.572 -21.203  0.00  0.00    -0.242 N 
ATOM     11  C   UNL d   1      32.090  22.245 -21.197  0.00  0.00     0.267 A 
ATOM     12  C   UNL d   1      31.985  22.453 -20.407  0.00  0.00     0.066 A 
ATOM     13  O   UNL d   1      31.768  22.647 -21.916  0.00  0.00    -0.267 OA
ATOM     14  C   UNL d   1      32.375  21.936 -19.940  0.00  0.00     0.066 A 
ATOM     15  C   UNL d   1      32.749  21.371 -20.434  0.00  0.00     0.267 A 
ATOM     16  O   UNL d   1      33.232  20.705 -20.208  0.00  0.00    -0.267 OA
ENDBRANCH   6  10
ENDBRANCH   1   4
BRANCH   2  17
ATOM     17  C   UNL d   1      32.463  18.018 -23.509  0.00  0.00     0.089 A 
ATOM     18  C   UNL d   1      31.871  17.655 -23.951  0.00  0.00     0.080 A 
ATOM     19  C   UNL d   1      31.225  17.979 -24.397  0.00  0.00     0.283 A 
ATOM     20  C   UNL d   1      31.817  16.787 -24.032  0.00  0.00     0.064 A 
ATOM     21  N   UNL d   1      30.803  17.348 -24.730  0.00  0.00    -0.169 NA
ATOM     22  O   UNL d   1      31.032  18.815 -24.494  0.00  0.00    -0.265 OA
ATOM     23  C   UNL d   1      31.164  16.617 -24.507  0.00  0.00     0.282 A 
ATOM     24  O   UNL d   1      30.919  15.825 -24.722  0.00  0.00    -0.265 OA
ATOM     25  C   UNL d   1      32.379  16.334 -23.652  0.00  0.00     0.005 A 
ATOM     26  C   UNL d   1      32.969  16.672 -23.213  0.00  0.00     0.002 A 
ATOM     27  C   UNL d   1      33.033  17.531 -23.125  0.00  0.00     0.019 A 
ENDBRANCH   2  17
TORSDOF 3
ENDMDL
