MODEL 1
REMARK VINA RESULT:      40.9      0.000      0.000
REMARK  4 active torsions:
REMARK  status: ('A' for Active; 'I' for Inactive)
REMARK       I    between atoms: C_2  and  N_1 
REMARK       I    between atoms: N_8  and  C_2 
REMARK    1  A    between atoms: C_14  and  N_8 
REMARK    2  A    between atoms: C_15  and  N_8 
REMARK    3  A    between atoms: C_17  and  C_14 
REMARK    4  A    between atoms: C_16  and  C_15 
ROOT
ATOM      1  N   UNL d   1      44.093 -14.985  37.207  0.00  0.00    -0.259 N 
ATOM      2  C   UNL d   1      44.002 -14.291  37.641  0.00  0.00     0.339 C 
ATOM      3  S   UNL d   1      44.282 -16.381  36.334  0.00  0.00    -0.084 SA
ATOM      4  C   UNL d   1      43.436 -15.432  36.987  0.00  0.00     0.074 A 
ATOM      5  C   UNL d   1      44.853 -15.236  36.989  0.00  0.00     0.074 A 
ATOM      6  C   UNL d   1      43.519 -16.128  36.553  0.00  0.00     0.046 A 
ATOM      7  C   UNL d   1      44.939 -15.936  36.553  0.00  0.00     0.046 A 
ATOM      8  N   UNL d   1      44.659 -13.843  37.861  0.00  0.00    -0.258 N 
ATOM      9  O   UNL d   1      43.243 -14.036  37.861  0.00  0.00    -0.245 OA
ATOM     10  C   UNL d   1      42.675 -15.179  37.206  0.00  0.00     0.018 A 
ATOM     11  C   UNL d   1      45.509 -14.800  37.203  0.00  0.00     0.018 A 
ATOM     12  C   UNL d   1      45.693 -16.190  36.334  0.00  0.00     0.008 A 
ATOM     13  C   UNL d   1      42.871 -16.579  36.331  0.00  0.00     0.008 A 
ATOM     14  C   UNL d   1      46.269 -15.052  36.984  0.00  0.00     0.002 A 
ATOM     15  C   UNL d   1      42.026 -15.629  36.984  0.00  0.00     0.002 A 
ATOM     16  C   UNL d   1      42.114 -16.316  36.555  0.00  0.00     0.001 A 
ATOM     17  C   UNL d   1      46.351 -15.744  36.553  0.00  0.00     0.001 A 
ENDROOT
BRANCH   8  18
ATOM     18  C   UNL d   1      45.421 -14.097  37.642  0.00  0.00     0.085 C 
BRANCH  18  19
ATOM     19  C   UNL d   1      46.043 -13.578  37.713  0.00  0.00     0.019 C 
ATOM     20  C   UNL d   1      46.646 -13.605  37.149  0.00  0.00     0.002 C 
ENDBRANCH  18  19
ENDBRANCH   8  18
BRANCH   8  21
ATOM     21  C   UNL d   1      44.560 -13.151  38.294  0.00  0.00     0.085 C 
BRANCH  21  22
ATOM     22  C   UNL d   1      44.348 -13.186  39.097  0.00  0.00     0.019 C 
ATOM     23  C   UNL d   1      44.202 -12.504  39.517  0.00  0.00     0.002 C 
ENDBRANCH  21  22
ENDBRANCH   8  21
TORSDOF 4
ENDMDL
