MODEL 1
REMARK VINA RESULT:      68.1      0.000      0.000
REMARK  6 active torsions:
REMARK  status: ('A' for Active; 'I' for Inactive)
REMARK    1  A    between atoms: O_8  and  C_1 
REMARK    2  A    between atoms: C_2  and  C_3 
REMARK    3  A    between atoms: C_3  and  O_8 
REMARK    4  A    between atoms: C_4  and  S_17 
REMARK    5  A    between atoms: C_23  and  C_14 
REMARK    6  A    between atoms: S_17  and  C_23 
ROOT
ATOM      1  C   UNL d   1     -49.172  27.874  35.178  0.00  0.00     0.167 A 
ATOM      2  C   UNL d   1     -48.978  28.156  35.933  0.00  0.00     0.222 A 
ATOM      3  C   UNL d   1     -48.463  28.804  35.992  0.00  0.00     0.069 A 
ATOM      4  C   UNL d   1     -48.861  28.228  34.502  0.00  0.00     0.151 A 
ATOM      5  C   UNL d   1     -48.151  29.158  35.315  0.00  0.00     0.110 A 
ATOM      6  O   UNL d   1     -48.352  28.868  34.573  0.00  0.00    -0.302 OA
ATOM      7  O   UNL d   1     -49.287  27.805  36.604  0.00  0.00    -0.284 OA
ENDROOT
BRANCH   5   8
ATOM      8  C   UNL d   1     -47.641  29.799  35.383  0.00  0.00     0.063 C 
BRANCH   8   9
ATOM      9  S   UNL d   1     -47.737  30.221  34.678  0.00  0.00    -0.046 SA
BRANCH   9  10
ATOM     10  C   UNL d   1     -47.638  31.034  34.669  0.00  0.00     0.194 A 
ATOM     11  N   UNL d   1     -47.186  31.395  35.254  0.00  0.00    -0.221 NA
ATOM     12  C   UNL d   1     -47.087  32.203  35.246  0.00  0.00     0.085 A 
ATOM     13  C   UNL d   1     -46.634  32.565  35.831  0.00  0.00     0.021 C 
ATOM     14  C   UNL d   1     -47.438  32.662  34.656  0.00  0.00     0.038 A 
ATOM     15  C   UNL d   1     -47.889  32.286  34.076  0.00  0.00     0.085 A 
ATOM     16  N   UNL d   1     -47.984  31.477  34.089  0.00  0.00    -0.221 NA
ATOM     17  C   UNL d   1     -48.241  32.745  33.485  0.00  0.00     0.021 C 
ENDBRANCH   9  10
ENDBRANCH   8   9
ENDBRANCH   5   8
BRANCH   1  18
ATOM     18  O   UNL d   1     -49.653  27.258  34.900  0.00  0.00    -0.266 OA
BRANCH  18  19
ATOM     19  C   UNL d   1     -49.745  27.139  34.090  0.00  0.00     0.323 C 
ATOM     20  O   UNL d   1     -49.381  27.639  33.565  0.00  0.00    -0.257 OA
BRANCH  19  21
ATOM     21  C   UNL d   1     -50.207  26.511  33.803  0.00  0.00     0.164 A 
ATOM     22  O   UNL d   1     -51.019  26.519  33.759  0.00  0.00    -0.295 OA
ATOM     23  C   UNL d   1     -51.241  25.792  33.446  0.00  0.00     0.134 A 
ATOM     24 BR   UNL d   1     -52.015  25.561  33.306  0.00  0.00    -0.022 Br
ATOM     25  C   UNL d   1     -50.584  25.361  33.306  0.00  0.00     0.034 A 
ATOM     26  C   UNL d   1     -49.941  25.809  33.528  0.00  0.00     0.033 A 
ENDBRANCH  19  21
ENDBRANCH  18  19
ENDBRANCH   1  18
TORSDOF 6
ENDMDL
MODEL 2
REMARK VINA RESULT:      70.6      3.199      6.208
REMARK  6 active torsions:
REMARK  status: ('A' for Active; 'I' for Inactive)
REMARK    1  A    between atoms: O_8  and  C_1 
REMARK    2  A    between atoms: C_2  and  C_3 
REMARK    3  A    between atoms: C_3  and  O_8 
REMARK    4  A    between atoms: C_4  and  S_17 
REMARK    5  A    between atoms: C_23  and  C_14 
REMARK    6  A    between atoms: S_17  and  C_23 
ROOT
ATOM      1  C   UNL d   1     -49.293  27.627  34.044  0.00  0.00     0.167 A 
ATOM      2  C   UNL d   1     -49.039  26.838  34.057  0.00  0.00     0.222 A 
ATOM      3  C   UNL d   1     -49.569  26.250  33.807  0.00  0.00     0.069 A 
ATOM      4  C   UNL d   1     -50.052  27.823  33.789  0.00  0.00     0.151 A 
ATOM      5  C   UNL d   1     -50.328  26.446  33.552  0.00  0.00     0.110 A 
ATOM      6  O   UNL d   1     -50.566  27.232  33.544  0.00  0.00    -0.302 OA
ATOM      7  O   UNL d   1     -48.287  26.644  34.310  0.00  0.00    -0.284 OA
ENDROOT
BRANCH   5   8
ATOM      8  C   UNL d   1     -50.845  25.855  33.306  0.00  0.00     0.063 C 
BRANCH   8   9
ATOM      9  S   UNL d   1     -51.487  25.907  33.826  0.00  0.00    -0.046 SA
BRANCH   9  10
ATOM     10  C   UNL d   1     -52.082  25.345  33.801  0.00  0.00     0.194 A 
ATOM     11  N   UNL d   1     -52.861  25.572  33.938  0.00  0.00    -0.221 NA
ATOM     12  C   UNL d   1     -53.454  25.015  33.913  0.00  0.00     0.085 A 
ATOM     13  C   UNL d   1     -54.233  25.241  34.050  0.00  0.00     0.021 C 
ATOM     14  C   UNL d   1     -53.279  24.224  33.750  0.00  0.00     0.038 A 
ATOM     15  C   UNL d   1     -52.493  24.011  33.615  0.00  0.00     0.085 A 
ATOM     16  N   UNL d   1     -51.904  24.574  33.641  0.00  0.00    -0.221 NA
ATOM     17  C   UNL d   1     -52.317  23.220  33.452  0.00  0.00     0.021 C 
ENDBRANCH   9  10
ENDBRANCH   8   9
ENDBRANCH   5   8
BRANCH   1  18
ATOM     18  O   UNL d   1     -48.938  28.349  34.244  0.00  0.00    -0.266 OA
BRANCH  18  19
ATOM     19  C   UNL d   1     -49.025  28.657  35.004  0.00  0.00     0.323 C 
ATOM     20  O   UNL d   1     -49.689  28.485  35.435  0.00  0.00    -0.257 OA
BRANCH  19  21
ATOM     21  C   UNL d   1     -48.437  29.143  35.334  0.00  0.00     0.164 A 
ATOM     22  O   UNL d   1     -48.256  29.172  36.127  0.00  0.00    -0.295 OA
ATOM     23  C   UNL d   1     -47.648  29.720  36.206  0.00  0.00     0.134 A 
ATOM     24 BR   UNL d   1     -47.293  29.925  36.915  0.00  0.00    -0.022 Br
ATOM     25  C   UNL d   1     -47.471  30.012  35.483  0.00  0.00     0.034 A 
ATOM     26  C   UNL d   1     -47.962  29.652  34.943  0.00  0.00     0.033 A 
ENDBRANCH  19  21
ENDBRANCH  18  19
ENDBRANCH   1  18
TORSDOF 6
ENDMDL
