MODEL 1
REMARK VINA RESULT:      -6.8      0.000      0.000
REMARK  5 active torsions:
REMARK  status: ('A' for Active; 'I' for Inactive)
REMARK    1  A    between atoms: N_2  and  C_7 
REMARK    2  A    between atoms: N_11  and  C_3 
REMARK    3  A    between atoms: C_9  and  C_4 
REMARK    4  A    between atoms: C_18  and  N_11 
REMARK    5  A    between atoms: C_16  and  C_18 
ROOT
ATOM      1  N   UNL d   1     -49.294  12.989  23.625  0.00  0.00    -0.222 NA
ATOM      2  C   UNL d   1     -50.112  12.975  23.535  0.00  0.00     0.172 A 
ATOM      3  C   UNL d   1     -48.999  12.240  23.408  0.00  0.00     0.090 A 
ATOM      4  S   UNL d   1     -50.323  12.235  23.269  0.00  0.00    -0.048 SA
ATOM      5  C   UNL d   1     -49.644  11.785  23.190  0.00  0.00     0.057 A 
ENDROOT
BRANCH   3   6
ATOM      6  C   UNL d   1     -48.187  12.036  23.424  0.00  0.00     0.018 A 
ATOM      7  C   UNL d   1     -47.970  11.275  23.660  0.00  0.00     0.003 A 
ATOM      8  C   UNL d   1     -47.171  11.073  23.676  0.00  0.00     0.024 A 
ATOM      9  C   UNL d   1     -46.609  11.637  23.456  0.00  0.00     0.127 A 
ATOM     10  C   UNL d   1     -46.817  12.389  23.222  0.00  0.00     0.024 A 
ATOM     11  C   UNL d   1     -47.628  12.594  23.206  0.00  0.00     0.003 A 
BRANCH   9  12
ATOM     12  N   UNL d   1     -45.815  11.437  23.472  0.00  0.00    -0.114 N 
ATOM     13  O   UNL d   1     -45.239  11.992  23.259  0.00  0.00    -0.532 OA
ATOM     14  O   UNL d   1     -45.577  10.687  23.698  0.00  0.00    -0.532 OA
ENDBRANCH   9  12
ENDBRANCH   3   6
BRANCH   2  15
ATOM     15  N   UNL d   1     -50.639  13.583  23.682  0.00  0.00    -0.332 N 
ATOM     16  H   UNL d   1     -51.384  13.414  24.011  0.00  0.00     0.168 HD
BRANCH  15  17
ATOM     17  C   UNL d   1     -50.434  14.371  23.505  0.00  0.00     0.074 C 
BRANCH  17  18
ATOM     18  C   UNL d   1     -50.941  14.979  23.671  0.00  0.00     0.018 C 
ATOM     19  C   UNL d   1     -50.681  15.785  23.640  0.00  0.00     0.002 C 
ENDBRANCH  17  18
ENDBRANCH  15  17
ENDBRANCH   2  15
TORSDOF 5
ENDMDL
MODEL 2
REMARK VINA RESULT:      -6.6      1.757      2.349
REMARK  5 active torsions:
REMARK  status: ('A' for Active; 'I' for Inactive)
REMARK    1  A    between atoms: N_2  and  C_7 
REMARK    2  A    between atoms: N_11  and  C_3 
REMARK    3  A    between atoms: C_9  and  C_4 
REMARK    4  A    between atoms: C_18  and  N_11 
REMARK    5  A    between atoms: C_16  and  C_18 
ROOT
ATOM      1  N   UNL d   1     -48.717  13.613  23.142  0.00  0.00    -0.222 NA
ATOM      2  C   UNL d   1     -49.409  14.058  23.156  0.00  0.00     0.172 A 
ATOM      3  C   UNL d   1     -48.125  14.072  22.777  0.00  0.00     0.090 A 
ATOM      4  S   UNL d   1     -49.253  14.778  22.808  0.00  0.00    -0.048 SA
ATOM      5  C   UNL d   1     -48.469  14.788  22.576  0.00  0.00     0.057 A 
ENDROOT
BRANCH   3   6
ATOM      6  C   UNL d   1     -47.338  13.811  22.658  0.00  0.00     0.018 A 
ATOM      7  C   UNL d   1     -46.716  14.273  22.940  0.00  0.00     0.003 A 
ATOM      8  C   UNL d   1     -45.941  14.016  22.823  0.00  0.00     0.024 A 
ATOM      9  C   UNL d   1     -45.809  13.303  22.427  0.00  0.00     0.127 A 
ATOM     10  C   UNL d   1     -46.419  12.843  22.146  0.00  0.00     0.024 A 
ATOM     11  C   UNL d   1     -47.206  13.104  22.265  0.00  0.00     0.003 A 
BRANCH   9  12
ATOM     12  N   UNL d   1     -45.039  13.048  22.311  0.00  0.00    -0.114 N 
ATOM     13  O   UNL d   1     -44.781  12.332  22.640  0.00  0.00    -0.532 OA
ATOM     14  O   UNL d   1     -44.513  13.492  21.870  0.00  0.00    -0.532 OA
ENDBRANCH   9  12
ENDBRANCH   3   6
BRANCH   2  15
ATOM     15  N   UNL d   1     -50.136  13.837  23.460  0.00  0.00    -0.332 N 
ATOM     16  H   UNL d   1     -50.501  14.307  24.041  0.00  0.00     0.168 HD
BRANCH  15  17
ATOM     17  C   UNL d   1     -50.513  13.144  23.192  0.00  0.00     0.074 C 
BRANCH  17  18
ATOM     18  C   UNL d   1     -51.048  12.755  23.658  0.00  0.00     0.018 C 
ATOM     19  C   UNL d   1     -51.063  11.909  23.691  0.00  0.00     0.002 C 
ENDBRANCH  17  18
ENDBRANCH  15  17
ENDBRANCH   2  15
TORSDOF 5
ENDMDL
MODEL 3
REMARK VINA RESULT:      -6.3      2.970      4.825
REMARK  5 active torsions:
REMARK  status: ('A' for Active; 'I' for Inactive)
REMARK    1  A    between atoms: N_2  and  C_7 
REMARK    2  A    between atoms: N_11  and  C_3 
REMARK    3  A    between atoms: C_9  and  C_4 
REMARK    4  A    between atoms: C_18  and  N_11 
REMARK    5  A    between atoms: C_16  and  C_18 
ROOT
ATOM      1  N   UNL d   1     -47.068  13.930  22.733  0.00  0.00    -0.222 NA
ATOM      2  C   UNL d   1     -46.510  13.347  22.894  0.00  0.00     0.172 A 
ATOM      3  C   UNL d   1     -47.819  13.625  22.927  0.00  0.00     0.090 A 
ATOM      4  S   UNL d   1     -46.902  12.694  23.182  0.00  0.00    -0.048 SA
ATOM      5  C   UNL d   1     -47.703  12.863  23.202  0.00  0.00     0.057 A 
ENDROOT
BRANCH   3   6
ATOM      6  C   UNL d   1     -48.533  14.054  22.841  0.00  0.00     0.018 A 
ATOM      7  C   UNL d   1     -48.510  14.878  22.855  0.00  0.00     0.003 A 
ATOM      8  C   UNL d   1     -49.213  15.301  22.770  0.00  0.00     0.024 A 
ATOM      9  C   UNL d   1     -49.921  14.887  22.674  0.00  0.00     0.127 A 
ATOM     10  C   UNL d   1     -49.951  14.074  22.660  0.00  0.00     0.024 A 
ATOM     11  C   UNL d   1     -49.237  13.645  22.746  0.00  0.00     0.003 A 
BRANCH   9  12
ATOM     12  N   UNL d   1     -50.620  15.307  22.590  0.00  0.00    -0.114 N 
ATOM     13  O   UNL d   1     -51.059  15.253  21.889  0.00  0.00    -0.532 OA
ATOM     14  O   UNL d   1     -50.896  15.785  23.193  0.00  0.00    -0.532 OA
ENDBRANCH   9  12
ENDBRANCH   3   6
BRANCH   2  15
ATOM     15  N   UNL d   1     -45.699  13.393  22.791  0.00  0.00    -0.332 N 
ATOM     16  H   UNL d   1     -45.224  13.715  23.393  0.00  0.00     0.168 HD
BRANCH  15  17
ATOM     17  C   UNL d   1     -45.347  13.120  22.087  0.00  0.00     0.074 C 
BRANCH  17  18
ATOM     18  C   UNL d   1     -44.577  13.298  21.912  0.00  0.00     0.018 C 
ATOM     19  C   UNL d   1     -44.084  12.744  21.503  0.00  0.00     0.002 C 
ENDBRANCH  17  18
ENDBRANCH  15  17
ENDBRANCH   2  15
TORSDOF 5
ENDMDL
MODEL 4
REMARK VINA RESULT:      -6.1      1.776      2.132
REMARK  5 active torsions:
REMARK  status: ('A' for Active; 'I' for Inactive)
REMARK    1  A    between atoms: N_2  and  C_7 
REMARK    2  A    between atoms: N_11  and  C_3 
REMARK    3  A    between atoms: C_9  and  C_4 
REMARK    4  A    between atoms: C_18  and  N_11 
REMARK    5  A    between atoms: C_16  and  C_18 
ROOT
ATOM      1  N   UNL d   1     -47.457  14.398  22.848  0.00  0.00    -0.222 NA
ATOM      2  C   UNL d   1     -48.274  14.487  22.901  0.00  0.00     0.172 A 
ATOM      3  C   UNL d   1     -47.298  13.599  22.671  0.00  0.00     0.090 A 
ATOM      4  S   UNL d   1     -48.616  13.761  22.760  0.00  0.00    -0.048 SA
ATOM      5  C   UNL d   1     -48.020  13.218  22.620  0.00  0.00     0.057 A 
ENDROOT
BRANCH   3   6
ATOM      6  C   UNL d   1     -46.527  13.288  22.573  0.00  0.00     0.018 A 
ATOM      7  C   UNL d   1     -46.300  12.631  23.018  0.00  0.00     0.003 A 
ATOM      8  C   UNL d   1     -45.540  12.324  22.922  0.00  0.00     0.024 A 
ATOM      9  C   UNL d   1     -45.028  12.682  22.382  0.00  0.00     0.127 A 
ATOM     10  C   UNL d   1     -45.246  13.330  21.940  0.00  0.00     0.024 A 
ATOM     11  C   UNL d   1     -46.016  13.642  22.038  0.00  0.00     0.003 A 
BRANCH   9  12
ATOM     12  N   UNL d   1     -44.274  12.377  22.286  0.00  0.00    -0.114 N 
ATOM     13  O   UNL d   1     -43.746  12.726  21.751  0.00  0.00    -0.532 OA
ATOM     14  O   UNL d   1     -44.027  11.725  22.715  0.00  0.00    -0.532 OA
ENDBRANCH   9  12
ENDBRANCH   3   6
BRANCH   2  15
ATOM     15  N   UNL d   1     -48.689  15.173  23.064  0.00  0.00    -0.332 N 
ATOM     16  H   UNL d   1     -48.292  15.903  23.078  0.00  0.00     0.168 HD
BRANCH  15  17
ATOM     17  C   UNL d   1     -49.508  15.144  23.216  0.00  0.00     0.074 C 
BRANCH  17  18
ATOM     18  C   UNL d   1     -49.950  15.822  23.238  0.00  0.00     0.018 C 
ATOM     19  C   UNL d   1     -50.667  15.860  23.686  0.00  0.00     0.002 C 
ENDBRANCH  17  18
ENDBRANCH  15  17
ENDBRANCH   2  15
TORSDOF 5
ENDMDL
MODEL 5
REMARK VINA RESULT:      -6.0      2.562      4.308
REMARK  5 active torsions:
REMARK  status: ('A' for Active; 'I' for Inactive)
REMARK    1  A    between atoms: N_2  and  C_7 
REMARK    2  A    between atoms: N_11  and  C_3 
REMARK    3  A    between atoms: C_9  and  C_4 
REMARK    4  A    between atoms: C_18  and  N_11 
REMARK    5  A    between atoms: C_16  and  C_18 
ROOT
ATOM      1  N   UNL d   1     -46.809  13.132  22.497  0.00  0.00    -0.222 NA
ATOM      2  C   UNL d   1     -46.255  13.738  22.438  0.00  0.00     0.172 A 
ATOM      3  C   UNL d   1     -47.501  13.450  22.835  0.00  0.00     0.090 A 
ATOM      4  S   UNL d   1     -46.593  14.418  22.732  0.00  0.00    -0.048 SA
ATOM      5  C   UNL d   1     -47.355  14.243  22.974  0.00  0.00     0.057 A 
ENDROOT
BRANCH   3   6
ATOM      6  C   UNL d   1     -48.194  13.005  22.985  0.00  0.00     0.018 A 
ATOM      7  C   UNL d   1     -48.142  12.330  23.458  0.00  0.00     0.003 A 
ATOM      8  C   UNL d   1     -48.825  11.892  23.607  0.00  0.00     0.024 A 
ATOM      9  C   UNL d   1     -49.541  12.139  23.278  0.00  0.00     0.127 A 
ATOM     10  C   UNL d   1     -49.599  12.803  22.811  0.00  0.00     0.024 A 
ATOM     11  C   UNL d   1     -48.906  13.248  22.660  0.00  0.00     0.003 A 
BRANCH   9  12
ATOM     12  N   UNL d   1     -50.219  11.703  23.426  0.00  0.00    -0.114 N 
ATOM     13  O   UNL d   1     -50.164  10.922  23.697  0.00  0.00    -0.532 OA
ATOM     14  O   UNL d   1     -50.960  12.029  23.309  0.00  0.00    -0.532 OA
ENDBRANCH   9  12
ENDBRANCH   3   6
BRANCH   2  15
ATOM     15  N   UNL d   1     -45.494  13.689  22.140  0.00  0.00    -0.332 N 
ATOM     16  H   UNL d   1     -45.137  14.362  21.806  0.00  0.00     0.168 HD
BRANCH  15  17
ATOM     17  C   UNL d   1     -45.075  12.969  22.169  0.00  0.00     0.074 C 
BRANCH  17  18
ATOM     18  C   UNL d   1     -44.352  12.896  21.814  0.00  0.00     0.018 C 
ATOM     19  C   UNL d   1     -43.818  12.277  22.037  0.00  0.00     0.002 C 
ENDBRANCH  17  18
ENDBRANCH  15  17
ENDBRANCH   2  15
TORSDOF 5
ENDMDL
MODEL 6
REMARK VINA RESULT:      -4.9      9.244     10.779
REMARK  5 active torsions:
REMARK  status: ('A' for Active; 'I' for Inactive)
REMARK    1  A    between atoms: N_2  and  C_7 
REMARK    2  A    between atoms: N_11  and  C_3 
REMARK    3  A    between atoms: C_9  and  C_4 
REMARK    4  A    between atoms: C_18  and  N_11 
REMARK    5  A    between atoms: C_16  and  C_18 
ROOT
ATOM      1  N   UNL d   1     -39.729  15.004  17.844  0.00  0.00    -0.222 NA
ATOM      2  C   UNL d   1     -39.997  15.190  17.088  0.00  0.00     0.172 A 
ATOM      3  C   UNL d   1     -40.209  15.407  18.393  0.00  0.00     0.090 A 
ATOM      4  S   UNL d   1     -40.630  15.697  17.164  0.00  0.00    -0.048 SA
ATOM      5  C   UNL d   1     -40.760  15.830  17.961  0.00  0.00     0.057 A 
ENDROOT
BRANCH   3   6
ATOM      6  C   UNL d   1     -40.110  15.358  19.223  0.00  0.00     0.018 A 
ATOM      7  C   UNL d   1     -40.594  14.849  19.655  0.00  0.00     0.003 A 
ATOM      8  C   UNL d   1     -40.497  14.801  20.473  0.00  0.00     0.024 A 
ATOM      9  C   UNL d   1     -39.919  15.265  20.837  0.00  0.00     0.127 A 
ATOM     10  C   UNL d   1     -39.438  15.770  20.416  0.00  0.00     0.024 A 
ATOM     11  C   UNL d   1     -39.537  15.818  19.586  0.00  0.00     0.003 A 
BRANCH   9  12
ATOM     12  N   UNL d   1     -39.822  15.218  21.649  0.00  0.00    -0.114 N 
ATOM     13  O   UNL d   1     -39.765  14.480  22.022  0.00  0.00    -0.532 OA
ATOM     14  O   UNL d   1     -39.781  15.895  22.106  0.00  0.00    -0.532 OA
ENDBRANCH   9  12
ENDBRANCH   3   6
BRANCH   2  15
ATOM     15  N   UNL d   1     -39.697  14.925  16.375  0.00  0.00    -0.332 N 
ATOM     16  H   UNL d   1     -40.163  14.974  15.687  0.00  0.00     0.168 HD
BRANCH  15  17
ATOM     17  C   UNL d   1     -38.929  14.606  16.332  0.00  0.00     0.074 C 
BRANCH  17  18
ATOM     18  C   UNL d   1     -38.591  14.431  15.618  0.00  0.00     0.018 C 
ATOM     19  C   UNL d   1     -37.940  13.892  15.564  0.00  0.00     0.002 C 
ENDBRANCH  17  18
ENDBRANCH  15  17
ENDBRANCH   2  15
TORSDOF 5
ENDMDL
