MODEL 1
REMARK VINA RESULT:      -1.4      0.000      0.000
REMARK  4 active torsions:
REMARK  status: ('A' for Active; 'I' for Inactive)
REMARK    1  A    between atoms: S_12  and  C_5 
REMARK       I    between atoms: N_7  and  C_9 
REMARK    2  A    between atoms: C_19  and  N_8 
REMARK    3  A    between atoms: C_9  and  C_14 
REMARK    4  A    between atoms: C_14  and  S_12 
ROOT
ATOM      1  C   UNL d   1     -41.826-122.683 -51.548  0.00  0.00     0.098 C 
ENDROOT
BRANCH   1   2
ATOM      2  C   UNL d   1     -41.536-123.115 -52.187  0.00  0.00     0.272 C 
ATOM      3  N   UNL d   1     -41.659-122.847 -52.960  0.00  0.00    -0.269 N 
ATOM      4  C   UNL d   1     -42.073-122.148 -53.087  0.00  0.00     0.102 A 
ATOM      5  C   UNL d   1     -41.371-123.276 -53.597  0.00  0.00     0.102 A 
ATOM      6  C   UNL d   1     -42.196-121.879 -53.860  0.00  0.00     0.100 A 
ATOM      7  N   UNL d   1     -41.906-122.311 -54.499  0.00  0.00    -0.301 N 
ATOM      8  C   UNL d   1     -41.494-123.009 -54.365  0.00  0.00     0.100 A 
ATOM      9  O   UNL d   1     -41.123-123.815 -52.049  0.00  0.00    -0.266 OA
BRANCH   7  10
ATOM     10  C   UNL d   1     -42.028-122.045 -55.267  0.00  0.00     0.064 A 
ATOM     11  C   UNL d   1     -41.472-121.565 -55.633  0.00  0.00     0.018 A 
ATOM     12  C   UNL d   1     -41.596-121.299 -56.405  0.00  0.00     0.002 A 
ATOM     13  C   UNL d   1     -42.276-121.512 -56.808  0.00  0.00     0.000 A 
ATOM     14  C   UNL d   1     -42.836-121.995 -56.442  0.00  0.00     0.002 A 
ATOM     15  C   UNL d   1     -42.713-122.261 -55.674  0.00  0.00     0.018 A 
ENDBRANCH   7  10
ENDBRANCH   1   2
BRANCH   1  16
ATOM     16  S   UNL d   1     -41.665-122.929 -50.774  0.00  0.00    -0.060 SA
BRANCH  16  17
ATOM     17  C   UNL d   1     -42.221-122.783 -50.172  0.00  0.00     0.137 A 
ATOM     18  C   UNL d   1     -42.067-123.007 -49.395  0.00  0.00     0.141 A 
ATOM     19  O   UNL d   1     -41.418-123.383 -49.051  0.00  0.00    -0.303 OA
ATOM     20  C   UNL d   1     -42.626-122.859 -48.802  0.00  0.00     0.110 A 
ATOM     21  C   UNL d   1     -41.574-123.467 -48.239  0.00  0.00     0.102 A 
ATOM     22  C   UNL d   1     -41.132-123.798 -47.620  0.00  0.00     0.025 A 
ATOM     23  C   UNL d   1     -42.320-123.142 -48.092  0.00  0.00     0.043 A 
ATOM     24  C   UNL d   1     -41.445-123.799 -46.854  0.00  0.00     0.002 A 
ATOM     25  C   UNL d   1     -42.189-123.476 -46.703  0.00  0.00     0.000 A 
ATOM     26  C   UNL d   1     -42.632-123.145 -47.321  0.00  0.00     0.004 A 
ATOM     27  N   UNL d   1     -43.334-122.485 -48.995  0.00  0.00    -0.222 NA
ATOM     28  C   UNL d   1     -43.489-122.260 -49.771  0.00  0.00     0.200 A 
ATOM     29  N   UNL d   1     -42.937-122.406 -50.361  0.00  0.00    -0.215 NA
ENDBRANCH  16  17
ENDBRANCH   1  16
TORSDOF 4
ENDMDL
