MODEL 1
REMARK VINA RESULT:      -4.9      0.000      0.000
REMARK  7 active torsions:
REMARK  status: ('A' for Active; 'I' for Inactive)
REMARK    1  A    between atoms: C_6  and  N_1 
REMARK    2  A    between atoms: C_12  and  C_6 
REMARK    3  A    between atoms: C_7  and  C_8 
REMARK    4  A    between atoms: C_22  and  C_7 
REMARK    5  A    between atoms: C_15  and  C_12 
REMARK    6  A    between atoms: O_13  and  C_15 
REMARK    7  A    between atoms: C_14  and  O_13 
ROOT
ATOM      1  C   UNL d   1     -41.654-122.813 -50.312  0.00  0.00     0.238 C 
ATOM      2  O   UNL d   1     -41.963-122.109 -50.010  0.00  0.00    -0.283 OA
ENDROOT
BRANCH   1   3
ATOM      3  C   UNL d   1     -41.647-123.497 -49.848  0.00  0.00     0.126 C 
BRANCH   3   4
ATOM      4  N   UNL d   1     -42.141-123.541 -49.179  0.00  0.00    -0.286 N 
ATOM      5  C   UNL d   1     -42.958-123.687 -49.194  0.00  0.00     0.148 A 
ATOM      6  N   UNL d   1     -43.232-123.683 -48.408  0.00  0.00    -0.227 NA
ATOM      7  C   UNL d   1     -43.420-123.814 -49.863  0.00  0.00     0.041 C 
ATOM      8  C   UNL d   1     -42.590-123.536 -47.914  0.00  0.00     0.099 A 
ATOM      9  C   UNL d   1     -41.913-123.448 -48.395  0.00  0.00     0.083 A 
ATOM     10  C   UNL d   1     -42.527-123.471 -47.103  0.00  0.00     0.021 A 
ATOM     11  C   UNL d   1     -41.180-123.294 -48.040  0.00  0.00     0.019 A 
ATOM     12  C   UNL d   1     -41.125-123.230 -47.217  0.00  0.00     0.002 A 
ATOM     13  C   UNL d   1     -41.799-123.319 -46.751  0.00  0.00     0.002 A 
ENDBRANCH   3   4
ENDBRANCH   1   3
BRANCH   1  14
ATOM     14  C   UNL d   1     -41.349-122.829 -51.088  0.00  0.00     0.166 C 
BRANCH  14  15
ATOM     15  O   UNL d   1     -41.425-122.138 -51.580  0.00  0.00    -0.302 OA
BRANCH  15  16
ATOM     16  C   UNL d   1     -41.486-122.202 -52.411  0.00  0.00     0.100 A 
ATOM     17  C   UNL d   1     -41.144-122.837 -52.802  0.00  0.00     0.025 A 
ATOM     18  C   UNL d   1     -41.207-122.897 -53.626  0.00  0.00     0.005 A 
ATOM     19  C   UNL d   1     -41.608-122.327 -54.044  0.00  0.00     0.039 A 
ATOM     20  C   UNL d   1     -41.953-121.688 -53.645  0.00  0.00     0.005 A 
ATOM     21  C   UNL d   1     -41.888-121.632 -52.829  0.00  0.00     0.025 A 
BRANCH  19  22
ATOM     22  C   UNL d   1     -41.673-122.384 -54.863  0.00  0.00     0.196 C 
ATOM     23  O   UNL d   1     -41.138-122.835 -55.291  0.00  0.00    -0.287 OA
BRANCH  22  24
ATOM     24  C   UNL d   1     -42.279-121.984 -55.257  0.00  0.00     0.042 C 
ATOM     25  C   UNL d   1     -42.372-122.073 -56.064  0.00  0.00     0.003 C 
ENDBRANCH  22  24
ENDBRANCH  19  22
ENDBRANCH  15  16
ENDBRANCH  14  15
ENDBRANCH   1  14
TORSDOF 7
ENDMDL
MODEL 2
REMARK VINA RESULT:      -4.2      1.757      5.833
REMARK  7 active torsions:
REMARK  status: ('A' for Active; 'I' for Inactive)
REMARK    1  A    between atoms: C_6  and  N_1 
REMARK    2  A    between atoms: C_12  and  C_6 
REMARK    3  A    between atoms: C_7  and  C_8 
REMARK    4  A    between atoms: C_22  and  C_7 
REMARK    5  A    between atoms: C_15  and  C_12 
REMARK    6  A    between atoms: O_13  and  C_15 
REMARK    7  A    between atoms: C_14  and  O_13 
ROOT
ATOM      1  C   UNL d   1     -42.063-122.054 -52.230  0.00  0.00     0.238 C 
ATOM      2  O   UNL d   1     -42.804-121.745 -52.426  0.00  0.00    -0.283 OA
ENDROOT
BRANCH   1   3
ATOM      3  C   UNL d   1     -41.449-122.046 -52.784  0.00  0.00     0.126 C 
BRANCH   3   4
ATOM      4  N   UNL d   1     -41.513-122.514 -53.469  0.00  0.00    -0.286 N 
ATOM      5  C   UNL d   1     -41.361-123.330 -53.511  0.00  0.00     0.148 A 
ATOM      6  N   UNL d   1     -41.493-123.573 -54.295  0.00  0.00    -0.227 NA
ATOM      7  C   UNL d   1     -41.123-123.814 -52.890  0.00  0.00     0.041 C 
ATOM      8  C   UNL d   1     -41.723-122.915 -54.733  0.00  0.00     0.099 A 
ATOM      9  C   UNL d   1     -41.735-122.258 -54.218  0.00  0.00     0.083 A 
ATOM     10  C   UNL d   1     -41.922-122.823 -55.519  0.00  0.00     0.021 A 
ATOM     11  C   UNL d   1     -41.951-121.514 -54.513  0.00  0.00     0.019 A 
ATOM     12  C   UNL d   1     -42.151-121.429 -55.312  0.00  0.00     0.002 A 
ATOM     13  C   UNL d   1     -42.135-122.084 -55.812  0.00  0.00     0.002 A 
ENDBRANCH   3   4
ENDBRANCH   1   3
BRANCH   1  14
ATOM     14  C   UNL d   1     -41.939-122.372 -51.469  0.00  0.00     0.166 C 
BRANCH  14  15
ATOM     15  O   UNL d   1     -42.339-122.027 -50.802  0.00  0.00    -0.302 OA
BRANCH  15  16
ATOM     16  C   UNL d   1     -42.314-122.385 -50.048  0.00  0.00     0.100 A 
ATOM     17  C   UNL d   1     -42.971-122.359 -49.557  0.00  0.00     0.025 A 
ATOM     18  C   UNL d   1     -42.943-122.715 -48.810  0.00  0.00     0.005 A 
ATOM     19  C   UNL d   1     -42.264-123.090 -48.565  0.00  0.00     0.039 A 
ATOM     20  C   UNL d   1     -41.603-123.114 -49.064  0.00  0.00     0.005 A 
ATOM     21  C   UNL d   1     -41.635-122.760 -49.803  0.00  0.00     0.025 A 
BRANCH  19  22
ATOM     22  C   UNL d   1     -42.233-123.446 -47.823  0.00  0.00     0.196 C 
ATOM     23  O   UNL d   1     -41.540-123.433 -47.385  0.00  0.00    -0.287 OA
BRANCH  22  24
ATOM     24  C   UNL d   1     -42.905-123.817 -47.517  0.00  0.00     0.042 C 
ATOM     25  C   UNL d   1     -43.089-123.742 -46.725  0.00  0.00     0.003 C 
ENDBRANCH  22  24
ENDBRANCH  19  22
ENDBRANCH  15  16
ENDBRANCH  14  15
ENDBRANCH   1  14
TORSDOF 7
ENDMDL
