MODEL 1
REMARK VINA RESULT:      29.8      0.000      0.000
REMARK  2 active torsions:
REMARK  status: ('A' for Active; 'I' for Inactive)
REMARK    1  A    between atoms: C_6  and  C_1 
REMARK    2  A    between atoms: C_10  and  C_6 
ROOT
ATOM      1  C   UNL d   1     -50.954  25.697  33.404  0.00  0.00     0.139 A 
ATOM      2  C   UNL d   1     -50.564  26.976  33.361  0.00  0.00     0.064 A 
ATOM      3  C   UNL d   1     -50.296  26.195  33.382  0.00  0.00     0.220 A 
ATOM      4  C   UNL d   1     -51.388  26.962  33.370  0.00  0.00     0.106 A 
ATOM      5  O   UNL d   1     -51.624  26.173  33.397  0.00  0.00    -0.304 OA
ATOM      6  C   UNL d   1     -51.820  27.659  33.354  0.00  0.00     0.067 A 
ATOM      7  C   UNL d   1     -50.164  27.694  33.335  0.00  0.00     0.009 A 
ATOM      8  O   UNL d   1     -49.506  25.946  33.381  0.00  0.00    -0.284 OA
ATOM      9  C   UNL d   1     -51.424  28.377  33.328  0.00  0.00     0.198 A 
ATOM     10  C   UNL d   1     -50.597  28.399  33.318  0.00  0.00     0.042 A 
ATOM     11  O   UNL d   1     -51.861  29.090  33.311  0.00  0.00    -0.286 OA
ENDROOT
BRANCH   1  12
ATOM     12  C   UNL d   1     -50.940  24.873  33.429  0.00  0.00     0.028 C 
BRANCH  12  13
ATOM     13  C   UNL d   1     -51.656  24.451  33.482  0.00  0.00     0.002 A 
ATOM     14  C   UNL d   1     -51.646  23.659  33.710  0.00  0.00     0.001 A 
ATOM     15  C   UNL d   1     -52.350  23.236  33.763  0.00  0.00     0.007 A 
ATOM     16  C   UNL d   1     -53.072  23.606  33.589  0.00  0.00     0.035 A 
ATOM     17  C   UNL d   1     -53.082  24.401  33.360  0.00  0.00     0.007 A 
ATOM     18 BR   UNL d   1     -53.780  23.195  33.639  0.00  0.00    -0.049 Br
ATOM     19  C   UNL d   1     -52.370  24.824  33.307  0.00  0.00     0.001 A 
ENDBRANCH  12  13
ENDBRANCH   1  12
TORSDOF 2
ENDMDL
