MODEL 1
REMARK VINA RESULT:      35.5      0.000      0.000
REMARK  5 active torsions:
REMARK  status: ('A' for Active; 'I' for Inactive)
REMARK    1  A    between atoms: C_2  and  C_1 
REMARK       I    between atoms: N_5  and  C_1 
REMARK    2  A    between atoms: C_3  and  C_14 
REMARK    3  A    between atoms: C_12  and  N_5 
REMARK    4  A    between atoms: O_13  and  C_9 
REMARK    5  A    between atoms: C_14  and  C_12 
ROOT
ATOM      1  C   UNL d   1      58.902  49.680  51.389  0.00  0.00     0.279 C 
ATOM      2  O   UNL d   1      58.902  49.701  52.204  0.00  0.00    -0.265 OA
ATOM      3  N   UNL d   1      59.600  49.681  50.957  0.00  0.00    -0.206 NA
ENDROOT
BRANCH   1   4
ATOM      4  C   UNL d   1      58.181  49.658  50.986  0.00  0.00     0.058 A 
ATOM      5  C   UNL d   1      58.171  49.705  50.179  0.00  0.00     0.007 A 
ATOM      6  C   UNL d   1      57.435  49.682  49.782  0.00  0.00     0.024 A 
ATOM      7  C   UNL d   1      56.757  49.615  50.186  0.00  0.00     0.094 A 
ATOM      8  C   UNL d   1      56.764  49.567  51.013  0.00  0.00     0.024 A 
ATOM      9  C   UNL d   1      57.481  49.588  51.419  0.00  0.00     0.007 A 
BRANCH   7  10
ATOM     10  O   UNL d   1      56.052  49.593  49.795  0.00  0.00    -0.328 OA
ATOM     11  C   UNL d   1      56.035  49.459  48.977  0.00  0.00     0.181 C 
ENDBRANCH   7  10
ENDBRANCH   1   4
BRANCH   3  12
ATOM     12  C   UNL d   1      60.316  49.703  51.373  0.00  0.00     0.102 C 
BRANCH  12  13
ATOM     13  C   UNL d   1      60.583  49.059  51.767  0.00  0.00     0.021 C 
BRANCH  13  14
ATOM     14  C   UNL d   1      60.853  48.402  51.362  0.00  0.00     0.002 A 
ATOM     15  C   UNL d   1      61.266  48.485  50.659  0.00  0.00     0.000 A 
ATOM     16  C   UNL d   1      61.539  47.822  50.250  0.00  0.00     0.000 A 
ATOM     17  C   UNL d   1      61.405  47.061  50.536  0.00  0.00     0.000 A 
ATOM     18  C   UNL d   1      60.985  46.978  51.250  0.00  0.00     0.000 A 
ATOM     19  C   UNL d   1      60.713  47.655  51.657  0.00  0.00     0.000 A 
ENDBRANCH  13  14
ENDBRANCH  12  13
ENDBRANCH   3  12
TORSDOF 5
ENDMDL
