MODEL 1
REMARK VINA RESULT:      -8.3      0.000      0.000
REMARK  2 active torsions:
REMARK  status: ('A' for Active; 'I' for Inactive)
REMARK    1  A    between atoms: C_5  and  C_1 
REMARK    2  A    between atoms: C_7  and  C_3 
REMARK       I    between atoms: N_8  and  C_7 
ROOT
ATOM      1  C   UNL d   1      50.736  34.266  52.655  0.00  0.00     0.086 A 
ATOM      2  S   UNL d   1      50.966  33.530  52.963  0.00  0.00    -0.080 SA
ATOM      3  C   UNL d   1      51.753  33.404  52.746  0.00  0.00     0.053 A 
ATOM      4  C   UNL d   1      51.379  34.588  52.252  0.00  0.00     0.012 A 
ATOM      5  C   UNL d   1      52.009  34.054  52.308  0.00  0.00     0.009 A 
ENDROOT
BRANCH   3   6
ATOM      6  C   UNL d   1      52.205  32.741  52.935  0.00  0.00     0.117 A 
ATOM      7  N   UNL d   1      52.060  31.972  52.676  0.00  0.00    -0.238 NA
ATOM      8  C   UNL d   1      52.649  31.486  53.000  0.00  0.00     0.088 A 
ATOM      9  C   UNL d   1      52.788  30.677  52.936  0.00  0.00     0.020 A 
ATOM     10  C   UNL d   1      53.151  31.958  53.454  0.00  0.00     0.049 A 
ATOM     11  C   UNL d   1      53.427  30.344  53.326  0.00  0.00     0.002 A 
ATOM     12  C   UNL d   1      53.929  30.816  53.780  0.00  0.00     0.001 A 
ATOM     13  C   UNL d   1      53.792  31.621  53.844  0.00  0.00     0.008 A 
ATOM     14  S   UNL d   1      52.874  32.737  53.412  0.00  0.00    -0.066 SA
ENDBRANCH   3   6
BRANCH   1  15
ATOM     15  C   UNL d   1      49.990  34.611  52.741  0.00  0.00     0.271 C 
ATOM     16  N   UNL d   1      49.478  34.636  52.097  0.00  0.00    -0.267 N 
ATOM     17  C   UNL d   1      48.736  34.980  52.185  0.00  0.00     0.110 A 
ATOM     18  C   UNL d   1      49.707  34.321  51.380  0.00  0.00     0.110 A 
ATOM     19  C   UNL d   1      48.222  35.008  51.548  0.00  0.00     0.142 A 
ATOM     20  O   UNL d   1      48.449  34.691  50.822  0.00  0.00    -0.300 OA
ATOM     21  C   UNL d   1      49.192  34.346  50.734  0.00  0.00     0.142 A 
ATOM     22  O   UNL d   1      49.762  34.928  53.467  0.00  0.00    -0.266 OA
ENDBRANCH   1  15
TORSDOF 2
ENDMDL
MODEL 2
REMARK VINA RESULT:      -8.0      2.826      3.646
REMARK  2 active torsions:
REMARK  status: ('A' for Active; 'I' for Inactive)
REMARK    1  A    between atoms: C_5  and  C_1 
REMARK    2  A    between atoms: C_7  and  C_3 
REMARK       I    between atoms: N_8  and  C_7 
ROOT
ATOM      1  C   UNL d   1      54.125  33.390  54.276  0.00  0.00     0.086 A 
ATOM      2  S   UNL d   1      53.701  32.691  54.416  0.00  0.00    -0.080 SA
ATOM      3  C   UNL d   1      53.940  32.138  53.850  0.00  0.00     0.053 A 
ATOM      4  C   UNL d   1      54.621  33.267  53.628  0.00  0.00     0.012 A 
ATOM      5  C   UNL d   1      54.505  32.490  53.365  0.00  0.00     0.009 A 
ENDROOT
BRANCH   3   6
ATOM      6  C   UNL d   1      53.659  31.365  53.783  0.00  0.00     0.117 A 
ATOM      7  N   UNL d   1      53.775  30.764  54.335  0.00  0.00    -0.238 NA
ATOM      8  C   UNL d   1      53.399  30.084  54.044  0.00  0.00     0.088 A 
ATOM      9  C   UNL d   1      53.329  29.324  54.350  0.00  0.00     0.020 A 
ATOM     10  C   UNL d   1      53.057  30.272  53.317  0.00  0.00     0.049 A 
ATOM     11  C   UNL d   1      52.916  28.754  53.929  0.00  0.00     0.002 A 
ATOM     12  C   UNL d   1      52.574  28.941  53.202  0.00  0.00     0.001 A 
ATOM     13  C   UNL d   1      52.644  29.698  52.896  0.00  0.00     0.008 A 
ATOM     14  S   UNL d   1      53.220  31.067  53.157  0.00  0.00    -0.066 SA
ENDBRANCH   3   6
BRANCH   1  15
ATOM     15  C   UNL d   1      54.059  34.089  54.713  0.00  0.00     0.271 C 
ATOM     16  N   UNL d   1      53.484  34.641  54.511  0.00  0.00    -0.267 N 
ATOM     17  C   UNL d   1      53.421  35.335  54.948  0.00  0.00     0.110 A 
ATOM     18  C   UNL d   1      52.984  34.500  53.882  0.00  0.00     0.110 A 
ATOM     19  C   UNL d   1      52.851  35.890  54.751  0.00  0.00     0.142 A 
ATOM     20  O   UNL d   1      52.343  35.750  54.116  0.00  0.00    -0.300 OA
ATOM     21  C   UNL d   1      52.407  35.056  53.680  0.00  0.00     0.142 A 
ATOM     22  O   UNL d   1      54.567  34.228  55.348  0.00  0.00    -0.266 OA
ENDBRANCH   1  15
TORSDOF 2
ENDMDL
MODEL 3
REMARK VINA RESULT:      -7.8      1.849      4.962
REMARK  2 active torsions:
REMARK  status: ('A' for Active; 'I' for Inactive)
REMARK    1  A    between atoms: C_5  and  C_1 
REMARK    2  A    between atoms: C_7  and  C_3 
REMARK       I    between atoms: N_8  and  C_7 
ROOT
ATOM      1  C   UNL d   1      52.085  33.419  53.033  0.00  0.00     0.086 A 
ATOM      2  S   UNL d   1      51.276  33.558  53.150  0.00  0.00    -0.080 SA
ATOM      3  C   UNL d   1      51.061  34.198  52.673  0.00  0.00     0.053 A 
ATOM      4  C   UNL d   1      52.365  33.972  52.487  0.00  0.00     0.012 A 
ATOM      5  C   UNL d   1      51.729  34.454  52.265  0.00  0.00     0.009 A 
ENDROOT
BRANCH   3   6
ATOM      6  C   UNL d   1      50.305  34.525  52.616  0.00  0.00     0.117 A 
ATOM      7  N   UNL d   1      49.942  34.994  53.188  0.00  0.00    -0.238 NA
ATOM      8  C   UNL d   1      49.191  35.198  52.900  0.00  0.00     0.088 A 
ATOM      9  C   UNL d   1      48.586  35.652  53.224  0.00  0.00     0.020 A 
ATOM     10  C   UNL d   1      49.099  34.854  52.156  0.00  0.00     0.049 A 
ATOM     11  C   UNL d   1      47.891  35.760  52.802  0.00  0.00     0.002 A 
ATOM     12  C   UNL d   1      47.798  35.415  52.058  0.00  0.00     0.001 A 
ATOM     13  C   UNL d   1      48.400  34.963  51.736  0.00  0.00     0.008 A 
ATOM     14  S   UNL d   1      49.792  34.436  51.981  0.00  0.00    -0.066 SA
ENDBRANCH   3   6
BRANCH   1  15
ATOM     15  C   UNL d   1      52.531  32.829  53.401  0.00  0.00     0.271 C 
ATOM     16  N   UNL d   1      53.061  33.032  53.997  0.00  0.00    -0.267 N 
ATOM     17  C   UNL d   1      53.503  32.443  54.362  0.00  0.00     0.110 A 
ATOM     18  C   UNL d   1      53.145  33.813  54.220  0.00  0.00     0.110 A 
ATOM     19  C   UNL d   1      54.033  32.638  54.955  0.00  0.00     0.142 A 
ATOM     20  O   UNL d   1      54.121  33.426  55.184  0.00  0.00    -0.300 OA
ATOM     21  C   UNL d   1      53.678  34.016  54.818  0.00  0.00     0.142 A 
ATOM     22  O   UNL d   1      52.443  32.041  53.172  0.00  0.00    -0.266 OA
ENDBRANCH   1  15
TORSDOF 2
ENDMDL
MODEL 4
REMARK VINA RESULT:      -7.5      0.893      1.234
REMARK  2 active torsions:
REMARK  status: ('A' for Active; 'I' for Inactive)
REMARK    1  A    between atoms: C_5  and  C_1 
REMARK    2  A    between atoms: C_7  and  C_3 
REMARK       I    between atoms: N_8  and  C_7 
ROOT
ATOM      1  C   UNL d   1      50.306  34.508  52.497  0.00  0.00     0.086 A 
ATOM      2  S   UNL d   1      50.767  34.153  53.088  0.00  0.00    -0.080 SA
ATOM      3  C   UNL d   1      51.467  33.891  52.734  0.00  0.00     0.053 A 
ATOM      4  C   UNL d   1      50.721  34.464  51.785  0.00  0.00     0.012 A 
ATOM      5  C   UNL d   1      51.440  34.081  51.934  0.00  0.00     0.009 A 
ENDROOT
BRANCH   3   6
ATOM      6  C   UNL d   1      52.086  33.504  53.119  0.00  0.00     0.117 A 
ATOM      7  N   UNL d   1      52.531  33.813  53.741  0.00  0.00    -0.238 NA
ATOM      8  C   UNL d   1      53.089  33.238  53.955  0.00  0.00     0.088 A 
ATOM      9  C   UNL d   1      53.676  33.233  54.532  0.00  0.00     0.020 A 
ATOM     10  C   UNL d   1      52.985  32.583  53.464  0.00  0.00     0.049 A 
ATOM     11  C   UNL d   1      54.155  32.573  54.617  0.00  0.00     0.002 A 
ATOM     12  C   UNL d   1      54.051  31.918  54.126  0.00  0.00     0.001 A 
ATOM     13  C   UNL d   1      53.467  31.922  53.551  0.00  0.00     0.008 A 
ATOM     14  S   UNL d   1      52.362  32.750  52.946  0.00  0.00    -0.066 SA
ENDBRANCH   3   6
BRANCH   1  15
ATOM     15  C   UNL d   1      49.560  34.846  52.607  0.00  0.00     0.271 C 
ATOM     16  N   UNL d   1      49.011  34.825  51.995  0.00  0.00    -0.267 N 
ATOM     17  C   UNL d   1      48.269  35.163  52.108  0.00  0.00     0.110 A 
ATOM     18  C   UNL d   1      49.202  34.472  51.285  0.00  0.00     0.110 A 
ATOM     19  C   UNL d   1      47.717  35.146  51.503  0.00  0.00     0.142 A 
ATOM     20  O   UNL d   1      47.907  34.789  50.783  0.00  0.00    -0.300 OA
ATOM     21  C   UNL d   1      48.649  34.452  50.672  0.00  0.00     0.142 A 
ATOM     22  O   UNL d   1      49.370  35.203  53.327  0.00  0.00    -0.266 OA
ENDBRANCH   1  15
TORSDOF 2
ENDMDL
MODEL 5
REMARK VINA RESULT:      -7.0      3.092      5.028
REMARK  2 active torsions:
REMARK  status: ('A' for Active; 'I' for Inactive)
REMARK    1  A    between atoms: C_5  and  C_1 
REMARK    2  A    between atoms: C_7  and  C_3 
REMARK       I    between atoms: N_8  and  C_7 
ROOT
ATOM      1  C   UNL d   1      53.427  31.319  53.205  0.00  0.00     0.086 A 
ATOM      2  S   UNL d   1      53.022  32.006  53.435  0.00  0.00    -0.080 SA
ATOM      3  C   UNL d   1      53.589  32.575  53.632  0.00  0.00     0.053 A 
ATOM      4  C   UNL d   1      54.237  31.466  53.261  0.00  0.00     0.012 A 
ATOM      5  C   UNL d   1      54.336  32.245  53.526  0.00  0.00     0.009 A 
ENDROOT
BRANCH   3   6
ATOM      6  C   UNL d   1      53.431  33.342  53.891  0.00  0.00     0.117 A 
ATOM      7  N   UNL d   1      53.045  33.925  53.454  0.00  0.00    -0.238 NA
ATOM      8  C   UNL d   1      53.008  34.605  53.928  0.00  0.00     0.088 A 
ATOM      9  C   UNL d   1      52.691  35.352  53.790  0.00  0.00     0.020 A 
ATOM     10  C   UNL d   1      53.371  34.436  54.650  0.00  0.00     0.049 A 
ATOM     11  C   UNL d   1      52.737  35.926  54.374  0.00  0.00     0.002 A 
ATOM     12  C   UNL d   1      53.100  35.757  55.095  0.00  0.00     0.001 A 
ATOM     13  C   UNL d   1      53.416  35.014  55.233  0.00  0.00     0.008 A 
ATOM     14  S   UNL d   1      53.633  33.651  54.625  0.00  0.00    -0.066 SA
ENDBRANCH   3   6
BRANCH   1  15
ATOM     15  C   UNL d   1      53.075  30.611  52.963  0.00  0.00     0.271 C 
ATOM     16  N   UNL d   1      53.049  29.973  53.482  0.00  0.00    -0.267 N 
ATOM     17  C   UNL d   1      52.698  29.270  53.238  0.00  0.00     0.110 A 
ATOM     18  C   UNL d   1      53.368  30.040  54.230  0.00  0.00     0.110 A 
ATOM     19  C   UNL d   1      52.668  28.631  53.749  0.00  0.00     0.142 A 
ATOM     20  O   UNL d   1      52.989  28.695  54.506  0.00  0.00    -0.300 OA
ATOM     21  C   UNL d   1      53.340  29.399  54.750  0.00  0.00     0.142 A 
ATOM     22  O   UNL d   1      52.754  30.548  52.206  0.00  0.00    -0.266 OA
ENDBRANCH   1  15
TORSDOF 2
ENDMDL
