MODEL 1
REMARK VINA RESULT:      -8.7      0.000      0.000
REMARK  5 active torsions:
REMARK  status: ('A' for Active; 'I' for Inactive)
REMARK    1  A    between atoms: C_5  and  N_1 
REMARK    2  A    between atoms: C_12  and  C_2 
REMARK    3  A    between atoms: S_18  and  C_3 
REMARK    4  A    between atoms: C_9  and  C_12 
REMARK    5  A    between atoms: C_23  and  S_18 
ROOT
ATOM      1  N   UNL d   1      53.163  32.222  53.438  0.00  0.00    -0.269 N 
ATOM      2  C   UNL d   1      52.556  32.588  53.022  0.00  0.00     0.172 A 
ATOM      3  C   UNL d   1      53.079  31.421  53.339  0.00  0.00     0.201 A 
ATOM      4  N   UNL d   1      52.104  32.002  52.673  0.00  0.00    -0.128 NA
ATOM      5  N   UNL d   1      52.432  31.273  52.872  0.00  0.00    -0.121 NA
ENDROOT
BRANCH   2   6
ATOM      6  C   UNL d   1      52.496  33.397  53.019  0.00  0.00     0.059 C 
BRANCH   6   7
ATOM      7  C   UNL d   1      51.807  33.752  52.745  0.00  0.00     0.094 A 
ATOM      8  C   UNL d   1      51.204  33.938  53.268  0.00  0.00     0.082 A 
ATOM      9  C   UNL d   1      50.513  34.294  52.990  0.00  0.00     0.285 A 
ATOM     10  O   UNL d   1      49.891  34.487  53.524  0.00  0.00    -0.265 OA
ATOM     11  N   UNL d   1      50.439  34.458  52.176  0.00  0.00    -0.152 NA
ATOM     12  C   UNL d   1      51.040  34.272  51.659  0.00  0.00     0.371 A 
ATOM     13  N   UNL d   1      51.733  33.914  51.946  0.00  0.00    -0.191 NA
ATOM     14  O   UNL d   1      50.956  34.440  50.855  0.00  0.00    -0.242 OA
ENDBRANCH   6   7
ENDBRANCH   2   6
BRANCH   1  15
ATOM     15  C   UNL d   1      53.759  32.569  53.879  0.00  0.00     0.067 A 
ATOM     16  C   UNL d   1      54.474  32.766  53.520  0.00  0.00     0.016 A 
ATOM     17  C   UNL d   1      55.073  33.115  53.964  0.00  0.00     0.001 A 
ATOM     18  C   UNL d   1      54.588  32.612  52.712  0.00  0.00     0.002 C 
ATOM     19  C   UNL d   1      54.962  33.269  54.768  0.00  0.00     0.000 A 
ATOM     20  C   UNL d   1      54.238  33.070  55.133  0.00  0.00     0.001 A 
ATOM     21  C   UNL d   1      53.643  32.721  54.681  0.00  0.00     0.018 A 
ATOM     22  C   UNL d   1      54.113  33.219  55.937  0.00  0.00     0.000 C 
ENDBRANCH   1  15
BRANCH   3  23
ATOM     23  S   UNL d   1      53.588  30.840  53.674  0.00  0.00    -0.048 SA
BRANCH  23  24
ATOM     24  C   UNL d   1      53.410  30.031  53.571  0.00  0.00     0.038 C 
ATOM     25  C   UNL d   1      53.637  29.488  54.151  0.00  0.00     0.008 C 
ENDBRANCH  23  24
ENDBRANCH   3  23
TORSDOF 5
ENDMDL
MODEL 2
REMARK VINA RESULT:      -8.3      2.109      3.684
REMARK  5 active torsions:
REMARK  status: ('A' for Active; 'I' for Inactive)
REMARK    1  A    between atoms: C_5  and  N_1 
REMARK    2  A    between atoms: C_12  and  C_2 
REMARK    3  A    between atoms: S_18  and  C_3 
REMARK    4  A    between atoms: C_9  and  C_12 
REMARK    5  A    between atoms: C_23  and  S_18 
ROOT
ATOM      1  N   UNL d   1      53.284  32.593  53.668  0.00  0.00    -0.269 N 
ATOM      2  C   UNL d   1      53.115  31.808  53.495  0.00  0.00     0.172 A 
ATOM      3  C   UNL d   1      52.666  33.042  53.396  0.00  0.00     0.201 A 
ATOM      4  N   UNL d   1      52.390  31.787  53.116  0.00  0.00    -0.128 NA
ATOM      5  N   UNL d   1      52.110  32.560  53.055  0.00  0.00    -0.121 NA
ENDROOT
BRANCH   2   6
ATOM      6  C   UNL d   1      53.639  31.224  53.703  0.00  0.00     0.059 C 
BRANCH   6   7
ATOM      7  C   UNL d   1      53.377  30.447  53.762  0.00  0.00     0.094 A 
ATOM      8  C   UNL d   1      53.058  30.070  53.108  0.00  0.00     0.082 A 
ATOM      9  C   UNL d   1      52.795  29.290  53.171  0.00  0.00     0.285 A 
ATOM     10  O   UNL d   1      52.467  28.897  52.501  0.00  0.00    -0.265 OA
ATOM     11  N   UNL d   1      52.860  28.896  53.903  0.00  0.00    -0.152 NA
ATOM     12  C   UNL d   1      53.177  29.275  54.551  0.00  0.00     0.371 A 
ATOM     13  N   UNL d   1      53.439  30.060  54.481  0.00  0.00    -0.191 NA
ATOM     14  O   UNL d   1      53.236  28.874  55.271  0.00  0.00    -0.242 OA
ENDBRANCH   6   7
ENDBRANCH   2   6
BRANCH   1  15
ATOM     15  C   UNL d   1      53.943  32.901  54.044  0.00  0.00     0.067 A 
ATOM     16  C   UNL d   1      54.620  33.077  53.608  0.00  0.00     0.016 A 
ATOM     17  C   UNL d   1      55.283  33.386  53.986  0.00  0.00     0.001 A 
ATOM     18  C   UNL d   1      54.632  32.941  52.789  0.00  0.00     0.002 C 
ATOM     19  C   UNL d   1      55.273  33.522  54.801  0.00  0.00     0.000 A 
ATOM     20  C   UNL d   1      54.589  33.345  55.245  0.00  0.00     0.001 A 
ATOM     21  C   UNL d   1      53.929  33.035  54.858  0.00  0.00     0.018 A 
ATOM     22  C   UNL d   1      54.565  33.475  56.060  0.00  0.00     0.000 C 
ENDBRANCH   1  15
BRANCH   3  23
ATOM     23  S   UNL d   1      52.616  33.881  53.461  0.00  0.00    -0.048 SA
BRANCH  23  24
ATOM     24  C   UNL d   1      51.922  34.271  53.210  0.00  0.00     0.038 C 
ATOM     25  C   UNL d   1      51.815  35.069  53.394  0.00  0.00     0.008 C 
ENDBRANCH  23  24
ENDBRANCH   3  23
TORSDOF 5
ENDMDL
MODEL 3
REMARK VINA RESULT:      -7.0      2.177      4.053
REMARK  5 active torsions:
REMARK  status: ('A' for Active; 'I' for Inactive)
REMARK    1  A    between atoms: C_5  and  N_1 
REMARK    2  A    between atoms: C_12  and  C_2 
REMARK    3  A    between atoms: S_18  and  C_3 
REMARK    4  A    between atoms: C_9  and  C_12 
REMARK    5  A    between atoms: C_23  and  S_18 
ROOT
ATOM      1  N   UNL d   1      52.554  33.463  53.528  0.00  0.00    -0.269 N 
ATOM      2  C   UNL d   1      52.861  32.701  53.543  0.00  0.00     0.172 A 
ATOM      3  C   UNL d   1      52.916  33.884  54.119  0.00  0.00     0.201 A 
ATOM      4  N   UNL d   1      53.411  32.666  54.148  0.00  0.00    -0.128 NA
ATOM      5  N   UNL d   1      53.445  33.407  54.508  0.00  0.00    -0.121 NA
ENDROOT
BRANCH   2   6
ATOM      6  C   UNL d   1      52.601  32.148  53.009  0.00  0.00     0.059 C 
BRANCH   6   7
ATOM      7  C   UNL d   1      52.714  31.349  53.167  0.00  0.00     0.094 A 
ATOM      8  C   UNL d   1      53.469  31.029  53.151  0.00  0.00     0.082 A 
ATOM      9  C   UNL d   1      53.579  30.227  53.309  0.00  0.00     0.285 A 
ATOM     10  O   UNL d   1      54.352  29.893  53.294  0.00  0.00    -0.265 OA
ATOM     11  N   UNL d   1      52.916  29.752  53.484  0.00  0.00    -0.152 NA
ATOM     12  C   UNL d   1      52.168  30.073  53.499  0.00  0.00     0.371 A 
ATOM     13  N   UNL d   1      52.064  30.882  53.338  0.00  0.00    -0.191 NA
ATOM     14  O   UNL d   1      51.519  29.592  53.673  0.00  0.00    -0.242 OA
ENDBRANCH   6   7
ENDBRANCH   2   6
BRANCH   1  15
ATOM     15  C   UNL d   1      51.988  33.774  53.024  0.00  0.00     0.067 A 
ATOM     16  C   UNL d   1      52.216  34.115  52.310  0.00  0.00     0.016 A 
ATOM     17  C   UNL d   1      51.647  34.427  51.804  0.00  0.00     0.001 A 
ATOM     18  C   UNL d   1      53.020  34.142  52.102  0.00  0.00     0.002 C 
ATOM     19  C   UNL d   1      50.847  34.401  52.009  0.00  0.00     0.000 A 
ATOM     20  C   UNL d   1      50.614  34.057  52.732  0.00  0.00     0.001 A 
ATOM     21  C   UNL d   1      51.190  33.746  53.233  0.00  0.00     0.018 A 
ATOM     22  C   UNL d   1      49.817  34.024  52.950  0.00  0.00     0.000 C 
ENDBRANCH   1  15
BRANCH   3  23
ATOM     23  S   UNL d   1      52.762  34.693  54.296  0.00  0.00    -0.048 SA
BRANCH  23  24
ATOM     24  C   UNL d   1      53.155  35.055  54.938  0.00  0.00     0.038 C 
ATOM     25  C   UNL d   1      53.048  35.862  55.078  0.00  0.00     0.008 C 
ENDBRANCH  23  24
ENDBRANCH   3  23
TORSDOF 5
ENDMDL
MODEL 4
REMARK VINA RESULT:      -6.8      2.242      3.620
REMARK  5 active torsions:
REMARK  status: ('A' for Active; 'I' for Inactive)
REMARK    1  A    between atoms: C_5  and  N_1 
REMARK    2  A    between atoms: C_12  and  C_2 
REMARK    3  A    between atoms: S_18  and  C_3 
REMARK    4  A    between atoms: C_9  and  C_12 
REMARK    5  A    between atoms: C_23  and  S_18 
ROOT
ATOM      1  N   UNL d   1      51.866  33.510  53.300  0.00  0.00    -0.269 N 
ATOM      2  C   UNL d   1      52.034  32.713  53.193  0.00  0.00     0.172 A 
ATOM      3  C   UNL d   1      51.074  33.614  53.161  0.00  0.00     0.201 A 
ATOM      4  N   UNL d   1      51.337  32.337  52.989  0.00  0.00    -0.128 NA
ATOM      5  N   UNL d   1      50.737  32.901  52.969  0.00  0.00    -0.121 NA
ENDROOT
BRANCH   2   6
ATOM      6  C   UNL d   1      52.792  32.440  53.296  0.00  0.00     0.059 C 
BRANCH   6   7
ATOM      7  C   UNL d   1      52.935  31.631  53.285  0.00  0.00     0.094 A 
ATOM      8  C   UNL d   1      53.088  31.231  53.984  0.00  0.00     0.082 A 
ATOM      9  C   UNL d   1      53.232  30.418  53.970  0.00  0.00     0.285 A 
ATOM     10  O   UNL d   1      53.390  30.003  54.686  0.00  0.00    -0.265 OA
ATOM     11  N   UNL d   1      53.220  30.015  53.241  0.00  0.00    -0.152 NA
ATOM     12  C   UNL d   1      53.067  30.416  52.548  0.00  0.00     0.371 A 
ATOM     13  N   UNL d   1      52.923  31.234  52.569  0.00  0.00    -0.191 NA
ATOM     14  O   UNL d   1      53.057  30.006  51.831  0.00  0.00    -0.242 OA
ENDBRANCH   6   7
ENDBRANCH   2   6
BRANCH   1  15
ATOM     15  C   UNL d   1      52.378  34.115  53.508  0.00  0.00     0.067 A 
ATOM     16  C   UNL d   1      52.733  34.573  52.922  0.00  0.00     0.016 A 
ATOM     17  C   UNL d   1      53.247  35.180  53.131  0.00  0.00     0.001 A 
ATOM     18  C   UNL d   1      52.570  34.419  52.122  0.00  0.00     0.002 C 
ATOM     19  C   UNL d   1      53.410  35.334  53.927  0.00  0.00     0.000 A 
ATOM     20  C   UNL d   1      53.052  34.872  54.522  0.00  0.00     0.001 A 
ATOM     21  C   UNL d   1      52.538  34.265  54.303  0.00  0.00     0.018 A 
ATOM     22  C   UNL d   1      53.205  35.015  55.321  0.00  0.00     0.000 C 
ENDBRANCH   1  15
BRANCH   3  23
ATOM     23  S   UNL d   1      50.670  34.352  53.211  0.00  0.00    -0.048 SA
BRANCH  23  24
ATOM     24  C   UNL d   1      49.863  34.392  53.002  0.00  0.00     0.038 C 
ATOM     25  C   UNL d   1      49.446  35.094  53.125  0.00  0.00     0.008 C 
ENDBRANCH  23  24
ENDBRANCH   3  23
TORSDOF 5
ENDMDL
MODEL 5
REMARK VINA RESULT:      -6.3      1.060      2.151
REMARK  5 active torsions:
REMARK  status: ('A' for Active; 'I' for Inactive)
REMARK    1  A    between atoms: C_5  and  N_1 
REMARK    2  A    between atoms: C_12  and  C_2 
REMARK    3  A    between atoms: S_18  and  C_3 
REMARK    4  A    between atoms: C_9  and  C_12 
REMARK    5  A    between atoms: C_23  and  S_18 
ROOT
ATOM      1  N   UNL d   1      53.239  32.967  54.025  0.00  0.00    -0.269 N 
ATOM      2  C   UNL d   1      52.589  33.391  53.755  0.00  0.00     0.172 A 
ATOM      3  C   UNL d   1      53.641  33.441  54.547  0.00  0.00     0.201 A 
ATOM      4  N   UNL d   1      52.601  34.124  54.119  0.00  0.00    -0.128 NA
ATOM      5  N   UNL d   1      53.259  34.154  54.614  0.00  0.00    -0.121 NA
ENDROOT
BRANCH   2   6
ATOM      6  C   UNL d   1      52.079  33.056  53.220  0.00  0.00     0.059 C 
BRANCH   6   7
ATOM      7  C   UNL d   1      51.512  33.524  52.853  0.00  0.00     0.094 A 
ATOM      8  C   UNL d   1      50.828  33.732  53.254  0.00  0.00     0.082 A 
ATOM      9  C   UNL d   1      50.261  34.203  52.882  0.00  0.00     0.285 A 
ATOM     10  O   UNL d   1      49.556  34.420  53.290  0.00  0.00    -0.265 OA
ATOM     11  N   UNL d   1      50.393  34.459  52.100  0.00  0.00    -0.152 NA
ATOM     12  C   UNL d   1      51.074  34.250  51.705  0.00  0.00     0.371 A 
ATOM     13  N   UNL d   1      51.641  33.776  52.085  0.00  0.00    -0.191 NA
ATOM     14  O   UNL d   1      51.195  34.510  50.930  0.00  0.00    -0.242 OA
ENDBRANCH   6   7
ENDBRANCH   2   6
BRANCH   1  15
ATOM     15  C   UNL d   1      53.470  32.207  53.826  0.00  0.00     0.067 A 
ATOM     16  C   UNL d   1      54.045  32.090  53.247  0.00  0.00     0.016 A 
ATOM     17  C   UNL d   1      54.276  31.327  53.047  0.00  0.00     0.001 A 
ATOM     18  C   UNL d   1      54.388  32.745  52.867  0.00  0.00     0.002 C 
ATOM     19  C   UNL d   1      53.936  30.675  53.423  0.00  0.00     0.000 A 
ATOM     20  C   UNL d   1      53.354  30.790  54.010  0.00  0.00     0.001 A 
ATOM     21  C   UNL d   1      53.127  31.559  54.204  0.00  0.00     0.018 A 
ATOM     22  C   UNL d   1      53.005  30.148  54.395  0.00  0.00     0.000 C 
ENDBRANCH   1  15
BRANCH   3  23
ATOM     23  S   UNL d   1      54.344  33.219  54.954  0.00  0.00    -0.048 SA
BRANCH  23  24
ATOM     24  C   UNL d   1      54.628  33.700  55.574  0.00  0.00     0.038 C 
ATOM     25  C   UNL d   1      55.437  33.714  55.740  0.00  0.00     0.008 C 
ENDBRANCH  23  24
ENDBRANCH   3  23
TORSDOF 5
ENDMDL
