MODEL 1
REMARK VINA RESULT:      70.6      0.000      0.000
REMARK  3 active torsions:
REMARK  status: ('A' for Active; 'I' for Inactive)
REMARK    1  A    between atoms: C_10  and  N_4 
REMARK    2  A    between atoms: C_11  and  N_6 
REMARK    3  A    between atoms: C_16  and  C_11 
ROOT
ATOM      1  C   UNL d   1      59.727  48.814  50.694  0.00  0.00     0.172 A 
ATOM      2  C   UNL d   1      60.354  48.919  51.220  0.00  0.00     0.113 A 
ATOM      3  N   UNL d   1      59.799  48.291  50.065  0.00  0.00    -0.206 NA
ATOM      4  N   UNL d   1      59.108  49.307  50.943  0.00  0.00    -0.212 N 
ATOM      5  C   UNL d   1      61.052  48.502  51.118  0.00  0.00     0.270 A 
ATOM      6  N   UNL d   1      61.130  47.974  50.485  0.00  0.00    -0.254 N 
ATOM      7  N   UNL d   1      59.360  49.704  51.613  0.00  0.00    -0.162 NA
ATOM      8  C   UNL d   1      60.504  47.868  49.959  0.00  0.00     0.187 A 
ATOM      9  C   UNL d   1      60.110  49.475  51.786  0.00  0.00     0.129 A 
ATOM     10  O   UNL d   1      61.678  48.607  51.645  0.00  0.00    -0.266 OA
ENDROOT
BRANCH   4  11
ATOM     11  C   UNL d   1      58.371  49.407  50.612  0.00  0.00     0.085 A 
ATOM     12  C   UNL d   1      58.298  49.606  49.806  0.00  0.00     0.021 A 
ATOM     13  C   UNL d   1      57.555  49.705  49.480  0.00  0.00     0.031 A 
ATOM     14  C   UNL d   1      56.866  49.607  49.954  0.00  0.00     0.140 A 
ATOM     15  C   UNL d   1      56.950  49.413  50.738  0.00  0.00     0.031 A 
ATOM     16  F   UNL d   1      56.099  49.707  49.628  0.00  0.00    -0.204 F 
ATOM     17  C   UNL d   1      57.693  49.311  51.075  0.00  0.00     0.021 A 
ENDBRANCH   4  11
BRANCH   6  18
ATOM     18  C   UNL d   1      61.838  47.545  50.375  0.00  0.00     0.104 C 
BRANCH  18  19
ATOM     19  C   UNL d   1      61.820  46.800  50.006  0.00  0.00     0.099 A 
ATOM     20  N   UNL d   1      62.343  46.648  49.386  0.00  0.00    -0.242 NA
ATOM     21  C   UNL d   1      62.329  45.898  49.012  0.00  0.00     0.099 A 
ATOM     22  C   UNL d   1      61.792  45.342  49.278  0.00  0.00     0.021 A 
ATOM     23  C   UNL d   1      61.266  45.498  49.904  0.00  0.00     0.003 A 
ATOM     24  C   UNL d   1      61.290  46.234  50.261  0.00  0.00     0.021 A 
ENDBRANCH  18  19
ENDBRANCH   6  18
TORSDOF 3
ENDMDL
