MODEL 1
REMARK VINA RESULT:      86.5      0.000      0.000
REMARK  7 active torsions:
REMARK  status: ('A' for Active; 'I' for Inactive)
REMARK    1  A    between atoms: S_10  and  C_4 
REMARK    2  A    between atoms: C_19  and  C_9 
REMARK    3  A    between atoms: C_13  and  S_10 
REMARK    4  A    between atoms: C_11  and  C_13 
REMARK       I    between atoms: N_14  and  C_11 
REMARK    5  A    between atoms: C_16  and  N_14 
REMARK    6  A    between atoms: C_20  and  C_16 
REMARK    7  A    between atoms: C_18  and  C_20 
ROOT
ATOM      1  C   UNL d   1      60.417  48.192  50.228  0.00  0.00     0.141 A 
ATOM      2  C   UNL d   1      60.938  47.882  50.786  0.00  0.00     0.110 A 
ATOM      3  O   UNL d   1      60.328  47.634  49.625  0.00  0.00    -0.303 OA
ATOM      4  C   UNL d   1      60.091  48.941  50.338  0.00  0.00     0.137 A 
ATOM      5  N   UNL d   1      60.286  49.381  51.009  0.00  0.00    -0.218 NA
ATOM      6  C   UNL d   1      61.171  47.133  50.530  0.00  0.00     0.043 A 
ATOM      7  N   UNL d   1      61.134  48.322  51.457  0.00  0.00    -0.225 NA
ATOM      8  C   UNL d   1      60.794  46.980  49.812  0.00  0.00     0.102 A 
ATOM      9  C   UNL d   1      60.807  49.071  51.567  0.00  0.00     0.163 A 
ATOM     10  C   UNL d   1      61.679  46.570  50.857  0.00  0.00     0.004 A 
ATOM     11  C   UNL d   1      60.923  46.266  49.421  0.00  0.00     0.025 A 
ATOM     12  C   UNL d   1      61.808  45.855  50.466  0.00  0.00     0.000 A 
ATOM     13  C   UNL d   1      61.431  45.702  49.749  0.00  0.00     0.002 A 
ENDROOT
BRANCH   4  14
ATOM     14  S   UNL d   1      59.569  49.251  49.779  0.00  0.00    -0.060 SA
BRANCH  14  15
ATOM     15  C   UNL d   1      58.908  49.678  50.025  0.00  0.00     0.099 C 
BRANCH  15  16
ATOM     16  C   UNL d   1      58.176  49.546  49.666  0.00  0.00     0.286 C 
ATOM     17  O   UNL d   1      58.136  49.407  48.852  0.00  0.00    -0.265 OA
ATOM     18  N   UNL d   1      57.487  49.554  50.118  0.00  0.00    -0.206 NA
BRANCH  18  19
ATOM     19  C   UNL d   1      56.757  49.422  49.759  0.00  0.00     0.102 C 
BRANCH  19  20
ATOM     20  C   UNL d   1      56.210  48.912  50.108  0.00  0.00     0.021 C 
BRANCH  20  21
ATOM     21  C   UNL d   1      56.169  48.848  50.930  0.00  0.00     0.002 A 
ATOM     22  C   UNL d   1      56.093  49.528  51.393  0.00  0.00     0.000 A 
ATOM     23  C   UNL d   1      56.052  49.466  52.214  0.00  0.00     0.000 A 
ATOM     24  C   UNL d   1      56.086  48.724  52.573  0.00  0.00     0.000 A 
ATOM     25  C   UNL d   1      56.162  48.045  52.112  0.00  0.00     0.000 A 
ATOM     26  C   UNL d   1      56.203  48.108  51.289  0.00  0.00     0.000 A 
ENDBRANCH  20  21
ENDBRANCH  19  20
ENDBRANCH  18  19
ENDBRANCH  15  16
ENDBRANCH  14  15
ENDBRANCH   4  14
BRANCH   9  27
ATOM     27  C   UNL d   1      61.003  49.510  52.238  0.00  0.00     0.039 C 
ATOM     28  C   UNL d   1      61.625  49.268  52.723  0.00  0.00     0.003 C 
ENDBRANCH   9  27
TORSDOF 7
ENDMDL
MODEL 2
REMARK VINA RESULT:      88.3      1.348      2.325
REMARK  7 active torsions:
REMARK  status: ('A' for Active; 'I' for Inactive)
REMARK    1  A    between atoms: S_10  and  C_4 
REMARK    2  A    between atoms: C_19  and  C_9 
REMARK    3  A    between atoms: C_13  and  S_10 
REMARK    4  A    between atoms: C_11  and  C_13 
REMARK       I    between atoms: N_14  and  C_11 
REMARK    5  A    between atoms: C_16  and  N_14 
REMARK    6  A    between atoms: C_20  and  C_16 
REMARK    7  A    between atoms: C_18  and  C_20 
ROOT
ATOM      1  C   UNL d   1      61.181  46.527  50.439  0.00  0.00     0.141 A 
ATOM      2  C   UNL d   1      61.285  45.804  50.821  0.00  0.00     0.110 A 
ATOM      3  O   UNL d   1      61.290  46.406  49.629  0.00  0.00    -0.303 OA
ATOM      4  C   UNL d   1      61.000  47.203  50.875  0.00  0.00     0.137 A 
ATOM      5  N   UNL d   1      60.922  47.156  51.696  0.00  0.00    -0.218 NA
ATOM      6  C   UNL d   1      61.459  45.236  50.249  0.00  0.00     0.043 A 
ATOM      7  N   UNL d   1      61.208  45.757  51.641  0.00  0.00    -0.225 NA
ATOM      8  C   UNL d   1      61.462  45.607  49.512  0.00  0.00     0.102 A 
ATOM      9  C   UNL d   1      61.026  46.433  52.078  0.00  0.00     0.163 A 
ATOM     10  C   UNL d   1      61.615  44.426  50.303  0.00  0.00     0.004 A 
ATOM     11  C   UNL d   1      61.621  45.171  48.831  0.00  0.00     0.025 A 
ATOM     12  C   UNL d   1      61.774  43.991  49.621  0.00  0.00     0.000 A 
ATOM     13  C   UNL d   1      61.777  44.362  48.885  0.00  0.00     0.002 A 
ENDROOT
BRANCH   4  14
ATOM     14  S   UNL d   1      60.895  47.927  50.492  0.00  0.00    -0.060 SA
BRANCH  14  15
ATOM     15  C   UNL d   1      60.971  48.631  50.914  0.00  0.00     0.099 C 
BRANCH  15  16
ATOM     16  C   UNL d   1      60.341  49.165  50.938  0.00  0.00     0.286 C 
ATOM     17  O   UNL d   1      60.285  49.708  51.559  0.00  0.00    -0.265 OA
ATOM     18  N   UNL d   1      59.770  49.157  50.344  0.00  0.00    -0.206 NA
BRANCH  18  19
ATOM     19  C   UNL d   1      59.142  49.690  50.369  0.00  0.00     0.102 C 
BRANCH  19  20
ATOM     20  C   UNL d   1      58.574  49.689  49.770  0.00  0.00     0.021 C 
BRANCH  20  21
ATOM     21  C   UNL d   1      57.794  49.479  49.940  0.00  0.00     0.002 A 
ATOM     22  C   UNL d   1      57.619  49.070  50.637  0.00  0.00     0.000 A 
ATOM     23  C   UNL d   1      56.840  48.861  50.807  0.00  0.00     0.000 A 
ATOM     24  C   UNL d   1      56.236  49.060  50.282  0.00  0.00     0.000 A 
ATOM     25  C   UNL d   1      56.409  49.469  49.587  0.00  0.00     0.000 A 
ATOM     26  C   UNL d   1      57.190  49.678  49.417  0.00  0.00     0.000 A 
ENDBRANCH  20  21
ENDBRANCH  19  20
ENDBRANCH  18  19
ENDBRANCH  15  16
ENDBRANCH  14  15
ENDBRANCH   4  14
BRANCH   9  27
ATOM     27  C   UNL d   1      60.949  46.385  52.898  0.00  0.00     0.039 C 
ATOM     28  C   UNL d   1      61.610  46.223  53.366  0.00  0.00     0.003 C 
ENDBRANCH   9  27
TORSDOF 7
ENDMDL
MODEL 3
REMARK VINA RESULT:      88.5      1.339      4.960
REMARK  7 active torsions:
REMARK  status: ('A' for Active; 'I' for Inactive)
REMARK    1  A    between atoms: S_10  and  C_4 
REMARK    2  A    between atoms: C_19  and  C_9 
REMARK    3  A    between atoms: C_13  and  S_10 
REMARK    4  A    between atoms: C_11  and  C_13 
REMARK       I    between atoms: N_14  and  C_11 
REMARK    5  A    between atoms: C_16  and  N_14 
REMARK    6  A    between atoms: C_20  and  C_16 
REMARK    7  A    between atoms: C_18  and  C_20 
ROOT
ATOM      1  C   UNL d   1      58.735  49.077  50.953  0.00  0.00     0.141 A 
ATOM      2  C   UNL d   1      58.387  49.361  50.262  0.00  0.00     0.110 A 
ATOM      3  O   UNL d   1      58.140  48.976  51.517  0.00  0.00    -0.303 OA
ATOM      4  C   UNL d   1      59.549  48.946  50.981  0.00  0.00     0.137 A 
ATOM      5  N   UNL d   1      60.015  49.100  50.317  0.00  0.00    -0.218 NA
ATOM      6  C   UNL d   1      57.576  49.436  50.398  0.00  0.00     0.043 A 
ATOM      7  N   UNL d   1      58.852  49.515  49.598  0.00  0.00    -0.225 NA
ATOM      8  C   UNL d   1      57.424  49.199  51.173  0.00  0.00     0.102 A 
ATOM      9  C   UNL d   1      59.666  49.384  49.626  0.00  0.00     0.163 A 
ATOM     10  C   UNL d   1      56.956  49.691  49.915  0.00  0.00     0.004 A 
ATOM     11  C   UNL d   1      56.654  49.215  51.466  0.00  0.00     0.025 A 
ATOM     12  C   UNL d   1      56.185  49.707  50.209  0.00  0.00     0.000 A 
ATOM     13  C   UNL d   1      56.034  49.470  50.983  0.00  0.00     0.002 A 
ENDROOT
BRANCH   4  14
ATOM     14  S   UNL d   1      59.898  48.662  51.673  0.00  0.00    -0.060 SA
BRANCH  14  15
ATOM     15  C   UNL d   1      60.021  47.852  51.769  0.00  0.00     0.099 C 
BRANCH  15  16
ATOM     16  C   UNL d   1      60.771  47.531  51.635  0.00  0.00     0.286 C 
ATOM     17  O   UNL d   1      61.425  48.031  51.558  0.00  0.00    -0.265 OA
ATOM     18  N   UNL d   1      60.866  46.714  51.579  0.00  0.00    -0.206 NA
BRANCH  18  19
ATOM     19  C   UNL d   1      61.614  46.395  51.446  0.00  0.00     0.102 C 
BRANCH  19  20
ATOM     20  C   UNL d   1      61.691  45.613  51.195  0.00  0.00     0.021 C 
BRANCH  20  21
ATOM     21  C   UNL d   1      61.547  45.414  50.407  0.00  0.00     0.002 A 
ATOM     22  C   UNL d   1      61.136  44.721  50.224  0.00  0.00     0.000 A 
ATOM     23  C   UNL d   1      60.992  44.522  49.438  0.00  0.00     0.000 A 
ATOM     24  C   UNL d   1      61.258  45.015  48.833  0.00  0.00     0.000 A 
ATOM     25  C   UNL d   1      61.669  45.707  49.013  0.00  0.00     0.000 A 
ATOM     26  C   UNL d   1      61.813  45.906  49.802  0.00  0.00     0.000 A 
ENDBRANCH  20  21
ENDBRANCH  19  20
ENDBRANCH  18  19
ENDBRANCH  15  16
ENDBRANCH  14  15
ENDBRANCH   4  14
BRANCH   9  27
ATOM     27  C   UNL d   1      60.131  49.538  48.962  0.00  0.00     0.039 C 
ATOM     28  C   UNL d   1      60.934  49.707  49.050  0.00  0.00     0.003 C 
ENDBRANCH   9  27
TORSDOF 7
ENDMDL
