MODEL 1
REMARK VINA RESULT:      -5.7      0.000      0.000
REMARK  1 active torsions:
REMARK  status: ('A' for Active; 'I' for Inactive)
REMARK    1  A    between atoms: C_7  and  C_3 
ROOT
ATOM      1  C   UNL d   1      58.113  -0.069  30.186  0.00  0.00     0.179 A 
ATOM      2  N   UNL d   1      57.433  -0.310  30.551  0.00  0.00    -0.221 NA
ATOM      3  C   UNL d   1      57.394   0.034  31.301  0.00  0.00     0.101 A 
ATOM      4  N   UNL d   1      58.503   0.426  30.702  0.00  0.00    -0.282 N 
ATOM      5  C   UNL d   1      58.050   0.481  31.385  0.00  0.00     0.101 A 
ATOM      6  S   UNL d   1      58.580  -0.116  29.502  0.00  0.00    -0.048 SA
ATOM      7  C   UNL d   1      59.207   0.682  30.336  0.00  0.00     0.089 A 
ATOM      8  C   UNL d   1      59.268   0.360  29.604  0.00  0.00     0.057 A 
ENDROOT
BRANCH   3   9
ATOM      9  C   UNL d   1      56.813  -0.039  31.884  0.00  0.00     0.019 A 
ATOM     10  C   UNL d   1      56.435   0.621  32.193  0.00  0.00     0.002 A 
ATOM     11  C   UNL d   1      55.852   0.550  32.779  0.00  0.00     0.011 A 
ATOM     12  C   UNL d   1      55.650  -0.174  33.052  0.00  0.00     0.058 A 
ATOM     13  C   UNL d   1      56.029  -0.871  32.745  0.00  0.00     0.011 A 
ATOM     14 CL   UNL d   1      55.057  -0.248  33.648  0.00  0.00    -0.082 Cl
ATOM     15  C   UNL d   1      56.609  -0.789  32.162  0.00  0.00     0.002 A 
ENDBRANCH   3   9
TORSDOF 1
ENDMDL
MODEL 2
REMARK VINA RESULT:      -4.6      2.588      3.816
REMARK  1 active torsions:
REMARK  status: ('A' for Active; 'I' for Inactive)
REMARK    1  A    between atoms: C_7  and  C_3 
ROOT
ATOM      1  C   UNL d   1      55.345   0.284  33.829  0.00  0.00     0.179 A 
ATOM      2  N   UNL d   1      55.486   0.087  33.059  0.00  0.00    -0.221 NA
ATOM      3  C   UNL d   1      56.295   0.155  32.906  0.00  0.00     0.101 A 
ATOM      4  N   UNL d   1      56.063   0.476  34.165  0.00  0.00    -0.282 N 
ATOM      5  C   UNL d   1      56.639   0.393  33.586  0.00  0.00     0.101 A 
ATOM      6  S   UNL d   1      54.773   0.373  34.424  0.00  0.00    -0.048 SA
ATOM      7  C   UNL d   1      55.931   0.682  34.962  0.00  0.00     0.089 A 
ATOM      8  C   UNL d   1      55.150   0.624  35.135  0.00  0.00     0.057 A 
ENDROOT
BRANCH   3   9
ATOM      9  C   UNL d   1      56.712   0.016  32.207  0.00  0.00     0.019 A 
ATOM     10  C   UNL d   1      57.035   0.635  31.774  0.00  0.00     0.002 A 
ATOM     11  C   UNL d   1      57.455   0.496  31.072  0.00  0.00     0.011 A 
ATOM     12  C   UNL d   1      57.550  -0.252  30.807  0.00  0.00     0.058 A 
ATOM     13  C   UNL d   1      57.224  -0.907  31.240  0.00  0.00     0.011 A 
ATOM     14 CL   UNL d   1      57.977  -0.393  30.092  0.00  0.00    -0.082 Cl
ATOM     15  C   UNL d   1      56.808  -0.759  31.939  0.00  0.00     0.002 A 
ENDBRANCH   3   9
TORSDOF 1
ENDMDL
MODEL 3
REMARK VINA RESULT:      -4.6      2.210      3.667
REMARK  1 active torsions:
REMARK  status: ('A' for Active; 'I' for Inactive)
REMARK    1  A    between atoms: C_7  and  C_3 
ROOT
ATOM      1  C   UNL d   1      56.407  -0.911  32.237  0.00  0.00     0.179 A 
ATOM      2  N   UNL d   1      56.893  -1.072  31.612  0.00  0.00    -0.221 NA
ATOM      3  C   UNL d   1      57.178  -0.362  31.301  0.00  0.00     0.101 A 
ATOM      4  N   UNL d   1      56.384  -0.101  32.323  0.00  0.00    -0.282 N 
ATOM      5  C   UNL d   1      56.863   0.225  31.742  0.00  0.00     0.101 A 
ATOM      6  S   UNL d   1      55.920  -1.227  32.831  0.00  0.00    -0.048 SA
ATOM      7  C   UNL d   1      55.886   0.079  32.967  0.00  0.00     0.089 A 
ATOM      8  C   UNL d   1      55.596  -0.598  33.286  0.00  0.00     0.057 A 
ENDROOT
BRANCH   3   9
ATOM      9  C   UNL d   1      57.688  -0.232  30.665  0.00  0.00     0.019 A 
ATOM     10  C   UNL d   1      58.029  -0.859  30.258  0.00  0.00     0.002 A 
ATOM     11  C   UNL d   1      58.542  -0.730  29.618  0.00  0.00     0.011 A 
ATOM     12  C   UNL d   1      58.711   0.017  29.390  0.00  0.00     0.058 A 
ATOM     13  C   UNL d   1      58.370   0.680  29.797  0.00  0.00     0.011 A 
ATOM     14 CL   UNL d   1      59.233   0.148  28.739  0.00  0.00    -0.082 Cl
ATOM     15  C   UNL d   1      57.859   0.541  30.433  0.00  0.00     0.002 A 
ENDBRANCH   3   9
TORSDOF 1
ENDMDL
MODEL 4
REMARK VINA RESULT:      -3.2     10.021     10.579
REMARK  1 active torsions:
REMARK  status: ('A' for Active; 'I' for Inactive)
REMARK    1  A    between atoms: C_7  and  C_3 
ROOT
ATOM      1  C   UNL d   1      59.845  -8.700  35.098  0.00  0.00     0.179 A 
ATOM      2  N   UNL d   1      60.153  -8.583  34.360  0.00  0.00    -0.221 NA
ATOM      3  C   UNL d   1      59.976  -9.237  33.887  0.00  0.00     0.101 A 
ATOM      4  N   UNL d   1      59.474  -9.426  35.093  0.00  0.00    -0.282 N 
ATOM      5  C   UNL d   1      59.562  -9.746  34.343  0.00  0.00     0.101 A 
ATOM      6  S   UNL d   1      59.748  -8.389  35.861  0.00  0.00    -0.048 SA
ATOM      7  C   UNL d   1      59.152  -9.559  35.851  0.00  0.00     0.089 A 
ATOM      8  C   UNL d   1      59.311  -8.936  36.329  0.00  0.00     0.057 A 
ENDROOT
BRANCH   3   9
ATOM      9  C   UNL d   1      60.167  -9.382  33.096  0.00  0.00     0.019 A 
ATOM     10  C   UNL d   1      60.928  -9.257  32.813  0.00  0.00     0.002 A 
ATOM     11  C   UNL d   1      61.120  -9.403  32.019  0.00  0.00     0.011 A 
ATOM     12  C   UNL d   1      60.559  -9.670  31.516  0.00  0.00     0.058 A 
ATOM     13  C   UNL d   1      59.766  -9.805  31.790  0.00  0.00     0.011 A 
ATOM     14 CL   UNL d   1      60.755  -9.818  30.709  0.00  0.00    -0.082 Cl
ATOM     15  C   UNL d   1      59.583  -9.657  32.583  0.00  0.00     0.002 A 
ENDBRANCH   3   9
TORSDOF 1
ENDMDL
