MODEL 1
REMARK VINA RESULT:      -0.3      0.000      0.000
REMARK  1 active torsions:
REMARK  status: ('A' for Active; 'I' for Inactive)
REMARK    1  A    between atoms: C_5  and  C_1 
ROOT
ATOM      1  C   UNL d   1     -55.082-102.372 -37.416  0.00  0.00     0.169 A 
ATOM      2  N   UNL d   1     -54.874-101.600 -37.240  0.00  0.00    -0.142 NA
ATOM      3  C   UNL d   1     -55.051-102.805 -36.722  0.00  0.00     0.048 A 
ATOM      4  N   UNL d   1     -54.711-101.551 -36.432  0.00  0.00    -0.148 NA
ATOM      5  C   UNL d   1     -54.821-102.301 -36.110  0.00  0.00     0.105 A 
ATOM      6  C   UNL d   1     -54.720-102.510 -35.318  0.00  0.00     0.023 C 
ENDROOT
BRANCH   1   7
ATOM      7  C   UNL d   1     -55.289-102.663 -38.164  0.00  0.00     0.231 C 
ATOM      8  O   UNL d   1     -56.070-102.878 -38.317  0.00  0.00    -0.643 OA
ATOM      9  O   UNL d   1     -54.717-102.736 -38.751  0.00  0.00    -0.643 OA
ENDBRANCH   1   7
TORSDOF 1
ENDMDL
