MODEL 1
REMARK VINA RESULT:      -4.1      0.000      0.000
REMARK  2 active torsions:
REMARK  status: ('A' for Active; 'I' for Inactive)
REMARK    1  A    between atoms: C_7  and  C_3 
REMARK    2  A    between atoms: N_9  and  C_8 
ROOT
ATOM      1  N   UNL d   1     -41.453-123.277 -52.745  0.00  0.00    -0.227 NA
ATOM      2  N   UNL d   1     -42.064-122.002 -52.620  0.00  0.00    -0.227 NA
ATOM      3  C   UNL d   1     -41.755-122.688 -52.262  0.00  0.00     0.162 A 
ATOM      4  C   UNL d   1     -42.056-121.936 -53.443  0.00  0.00     0.085 A 
ATOM      5  C   UNL d   1     -41.442-123.214 -53.578  0.00  0.00     0.085 A 
ATOM      6  C   UNL d   1     -41.745-122.540 -53.929  0.00  0.00     0.035 A 
ATOM      7  C   UNL d   1     -41.746-122.456 -54.762  0.00  0.00     0.003 A 
ATOM      8  C   UNL d   1     -42.370-121.238 -53.806  0.00  0.00     0.019 A 
ATOM      9  C   UNL d   1     -41.134-123.815 -54.054  0.00  0.00     0.019 A 
ATOM     10  C   UNL d   1     -41.124-123.751 -54.884  0.00  0.00     0.002 A 
ATOM     11  C   UNL d   1     -42.360-121.175 -54.639  0.00  0.00     0.002 A 
ATOM     12  C   UNL d   1     -41.427-123.077 -55.235  0.00  0.00     0.000 A 
ATOM     13  C   UNL d   1     -42.052-121.776 -55.115  0.00  0.00     0.000 A 
ENDROOT
BRANCH   3  14
ATOM     14  C   UNL d   1     -41.745-122.791 -51.453  0.00  0.00     0.036 A 
ATOM     15  C   UNL d   1     -42.259-123.325 -51.095  0.00  0.00     0.004 A 
ATOM     16  C   UNL d   1     -42.252-123.432 -50.279  0.00  0.00     0.018 A 
ATOM     17  C   UNL d   1     -41.736-123.008 -49.814  0.00  0.00     0.064 A 
ATOM     18  C   UNL d   1     -41.215-122.467 -50.166  0.00  0.00     0.018 A 
ATOM     19  C   UNL d   1     -41.228-122.367 -50.977  0.00  0.00     0.004 A 
BRANCH  17  20
ATOM     20  N   UNL d   1     -41.729-123.114 -48.998  0.00  0.00    -0.301 N 
ATOM     21  C   UNL d   1     -42.301-122.757 -48.529  0.00  0.00     0.100 C 
ATOM     22  C   UNL d   1     -41.148-123.578 -48.655  0.00  0.00     0.100 C 
ENDBRANCH  17  20
ENDBRANCH   3  14
TORSDOF 2
ENDMDL
MODEL 2
REMARK VINA RESULT:      -2.4      1.043      4.754
REMARK  2 active torsions:
REMARK  status: ('A' for Active; 'I' for Inactive)
REMARK    1  A    between atoms: C_7  and  C_3 
REMARK    2  A    between atoms: N_9  and  C_8 
ROOT
ATOM      1  N   UNL d   1     -41.526-122.959 -50.270  0.00  0.00    -0.227 NA
ATOM      2  N   UNL d   1     -42.817-123.461 -50.579  0.00  0.00    -0.227 NA
ATOM      3  C   UNL d   1     -42.074-123.185 -50.835  0.00  0.00     0.162 A 
ATOM      4  C   UNL d   1     -42.978-123.499 -49.770  0.00  0.00     0.085 A 
ATOM      5  C   UNL d   1     -41.684-122.995 -49.450  0.00  0.00     0.085 A 
ATOM      6  C   UNL d   1     -42.414-123.267 -49.199  0.00  0.00     0.035 A 
ATOM      7  C   UNL d   1     -42.595-123.312 -48.383  0.00  0.00     0.003 A 
ATOM      8  C   UNL d   1     -43.734-123.780 -49.510  0.00  0.00     0.019 A 
ATOM      9  C   UNL d   1     -41.123-122.765 -48.889  0.00  0.00     0.019 A 
ATOM     10  C   UNL d   1     -41.282-122.801 -48.073  0.00  0.00     0.002 A 
ATOM     11  C   UNL d   1     -43.892-123.817 -48.690  0.00  0.00     0.002 A 
ATOM     12  C   UNL d   1     -42.012-123.073 -47.821  0.00  0.00     0.000 A 
ATOM     13  C   UNL d   1     -43.331-123.586 -48.129  0.00  0.00     0.000 A 
ENDROOT
BRANCH   3  14
ATOM     14  C   UNL d   1     -41.878-123.133 -51.625  0.00  0.00     0.036 A 
ATOM     15  C   UNL d   1     -41.687-123.810 -52.052  0.00  0.00     0.004 A 
ATOM     16  C   UNL d   1     -41.488-123.762 -52.848  0.00  0.00     0.018 A 
ATOM     17  C   UNL d   1     -41.478-123.041 -53.227  0.00  0.00     0.064 A 
ATOM     18  C   UNL d   1     -41.669-122.354 -52.805  0.00  0.00     0.018 A 
ATOM     19  C   UNL d   1     -41.865-122.409 -52.013  0.00  0.00     0.004 A 
BRANCH  17  20
ATOM     20  N   UNL d   1     -41.279-122.993 -54.023  0.00  0.00    -0.301 N 
ATOM     21  C   UNL d   1     -41.132-123.675 -54.456  0.00  0.00     0.100 C 
ATOM     22  C   UNL d   1     -41.229-122.260 -54.384  0.00  0.00     0.100 C 
ENDBRANCH  17  20
ENDBRANCH   3  14
TORSDOF 2
ENDMDL
MODEL 3
REMARK VINA RESULT:      -2.0      0.983      4.715
REMARK  2 active torsions:
REMARK  status: ('A' for Active; 'I' for Inactive)
REMARK    1  A    between atoms: C_7  and  C_3 
REMARK    2  A    between atoms: N_9  and  C_8 
ROOT
ATOM      1  N   UNL d   1     -42.556-122.552 -50.932  0.00  0.00    -0.227 NA
ATOM      2  N   UNL d   1     -41.432-123.388 -50.703  0.00  0.00    -0.227 NA
ATOM      3  C   UNL d   1     -41.915-122.963 -51.233  0.00  0.00     0.162 A 
ATOM      4  C   UNL d   1     -41.613-123.382 -49.897  0.00  0.00     0.085 A 
ATOM      5  C   UNL d   1     -42.743-122.543 -50.118  0.00  0.00     0.085 A 
ATOM      6  C   UNL d   1     -42.269-122.960 -49.598  0.00  0.00     0.035 A 
ATOM      7  C   UNL d   1     -42.438-122.966 -48.778  0.00  0.00     0.003 A 
ATOM      8  C   UNL d   1     -41.123-123.814 -49.358  0.00  0.00     0.019 A 
ATOM      9  C   UNL d   1     -43.393-122.124 -49.827  0.00  0.00     0.019 A 
ATOM     10  C   UNL d   1     -43.579-122.116 -49.015  0.00  0.00     0.002 A 
ATOM     11  C   UNL d   1     -41.310-123.805 -48.544  0.00  0.00     0.002 A 
ATOM     12  C   UNL d   1     -43.105-122.534 -48.495  0.00  0.00     0.000 A 
ATOM     13  C   UNL d   1     -41.960-123.387 -48.253  0.00  0.00     0.000 A 
ENDROOT
BRANCH   3  14
ATOM     14  C   UNL d   1     -41.769-122.944 -52.035  0.00  0.00     0.036 A 
ATOM     15  C   UNL d   1     -41.807-123.635 -52.481  0.00  0.00     0.004 A 
ATOM     16  C   UNL d   1     -41.661-123.620 -53.290  0.00  0.00     0.018 A 
ATOM     17  C   UNL d   1     -41.475-122.920 -53.662  0.00  0.00     0.064 A 
ATOM     18  C   UNL d   1     -41.434-122.220 -53.221  0.00  0.00     0.018 A 
ATOM     19  C   UNL d   1     -41.581-122.242 -52.417  0.00  0.00     0.004 A 
BRANCH  17  20
ATOM     20  N   UNL d   1     -41.328-122.906 -54.471  0.00  0.00    -0.301 N 
ATOM     21  C   UNL d   1     -41.127-123.596 -54.869  0.00  0.00     0.100 C 
ATOM     22  C   UNL d   1     -41.383-122.198 -54.880  0.00  0.00     0.100 C 
ENDBRANCH  17  20
ENDBRANCH   3  14
TORSDOF 2
ENDMDL
