MODEL 1
REMARK VINA RESULT:      -7.5      0.000      0.000
REMARK  4 active torsions:
REMARK  status: ('A' for Active; 'I' for Inactive)
REMARK    1  A    between atoms: N_2  and  S_1 
REMARK    2  A    between atoms: C_3  and  S_1 
REMARK       I    between atoms: C_5  and  N_4 
REMARK    3  A    between atoms: O_17  and  C_5 
REMARK    4  A    between atoms: C_18  and  O_17 
ROOT
ATOM      1  N   UNL d   1      53.099  32.589  53.718  0.00  0.00    -0.226 N 
ATOM      2  N   UNL d   1      53.154  30.927  53.577  0.00  0.00    -0.248 N 
ATOM      3  C   UNL d   1      53.174  30.106  53.495  0.00  0.00     0.378 C 
ATOM      4  C   UNL d   1      52.756  32.207  53.065  0.00  0.00     0.111 A 
ATOM      5  C   UNL d   1      53.473  32.127  54.302  0.00  0.00     0.111 A 
ATOM      6  C   UNL d   1      53.500  31.305  54.233  0.00  0.00     0.105 A 
ATOM      7  C   UNL d   1      52.783  31.385  52.996  0.00  0.00     0.105 A 
ATOM      8  O   UNL d   1      52.827  29.743  52.840  0.00  0.00    -0.237 OA
ENDROOT
BRANCH   1   9
ATOM      9  S   UNL d   1      53.072  33.411  53.787  0.00  0.00     0.277 S 
ATOM     10  O   UNL d   1      52.283  33.365  54.023  0.00  0.00    -0.199 OA
ATOM     11  O   UNL d   1      53.876  33.458  53.546  0.00  0.00    -0.199 OA
BRANCH   9  12
ATOM     12  C   UNL d   1      53.039  34.221  53.857  0.00  0.00     0.133 A 
ATOM     13  S   UNL d   1      53.223  34.618  54.514  0.00  0.00    -0.074 SA
ATOM     14  C   UNL d   1      53.119  35.432  54.365  0.00  0.00     0.036 A 
ATOM     15  C   UNL d   1      52.859  35.512  53.575  0.00  0.00     0.008 A 
ATOM     16  C   UNL d   1      52.808  34.776  53.260  0.00  0.00     0.020 A 
ENDBRANCH   9  12
ENDBRANCH   1   9
BRANCH   3  17
ATOM     17  O   UNL d   1      53.543  29.663  54.075  0.00  0.00    -0.257 OA
BRANCH  17  18
ATOM     18  C   UNL d   1      53.296  28.889  54.216  0.00  0.00     0.128 C 
ATOM     19  C   UNL d   1      53.567  28.473  54.863  0.00  0.00     0.029 C 
ENDBRANCH  17  18
ENDBRANCH   3  17
TORSDOF 4
ENDMDL
MODEL 2
REMARK VINA RESULT:      -6.9      2.455      4.250
REMARK  4 active torsions:
REMARK  status: ('A' for Active; 'I' for Inactive)
REMARK    1  A    between atoms: N_2  and  S_1 
REMARK    2  A    between atoms: C_3  and  S_1 
REMARK       I    between atoms: C_5  and  N_4 
REMARK    3  A    between atoms: O_17  and  C_5 
REMARK    4  A    between atoms: C_18  and  O_17 
ROOT
ATOM      1  N   UNL d   1      52.172  33.913  53.419  0.00  0.00    -0.226 N 
ATOM      2  N   UNL d   1      50.687  34.362  52.804  0.00  0.00    -0.248 N 
ATOM      3  C   UNL d   1      49.949  34.590  52.513  0.00  0.00     0.378 C 
ATOM      4  C   UNL d   1      51.620  34.313  53.893  0.00  0.00     0.111 A 
ATOM      5  C   UNL d   1      51.970  33.739  52.629  0.00  0.00     0.111 A 
ATOM      6  C   UNL d   1      51.236  33.961  52.325  0.00  0.00     0.105 A 
ATOM      7  C   UNL d   1      50.886  34.535  53.589  0.00  0.00     0.105 A 
ATOM      8  O   UNL d   1      49.413  34.987  52.999  0.00  0.00    -0.237 OA
ENDROOT
BRANCH   1   9
ATOM      9  S   UNL d   1      52.906  33.691  53.723  0.00  0.00     0.277 S 
ATOM     10  O   UNL d   1      52.670  32.900  53.716  0.00  0.00    -0.199 OA
ATOM     11  O   UNL d   1      53.146  34.496  53.731  0.00  0.00    -0.199 OA
BRANCH   9  12
ATOM     12  C   UNL d   1      53.628  33.465  54.024  0.00  0.00     0.133 A 
ATOM     13  S   UNL d   1      54.138  32.994  53.647  0.00  0.00    -0.074 SA
ATOM     14  C   UNL d   1      54.808  32.894  54.133  0.00  0.00     0.036 A 
ATOM     15  C   UNL d   1      54.680  33.334  54.833  0.00  0.00     0.008 A 
ATOM     16  C   UNL d   1      53.961  33.684  54.770  0.00  0.00     0.020 A 
ENDBRANCH   9  12
ENDBRANCH   1   9
BRANCH   3  17
ATOM     17  O   UNL d   1      49.762  34.415  51.737  0.00  0.00    -0.257 OA
BRANCH  17  18
ATOM     18  C   UNL d   1      48.994  34.538  51.463  0.00  0.00     0.128 C 
ATOM     19  C   UNL d   1      48.812  34.459  50.672  0.00  0.00     0.029 C 
ENDBRANCH  17  18
ENDBRANCH   3  17
TORSDOF 4
ENDMDL
MODEL 3
REMARK VINA RESULT:      -6.8      2.350      3.391
REMARK  4 active torsions:
REMARK  status: ('A' for Active; 'I' for Inactive)
REMARK    1  A    between atoms: N_2  and  S_1 
REMARK    2  A    between atoms: C_3  and  S_1 
REMARK       I    between atoms: C_5  and  N_4 
REMARK    3  A    between atoms: O_17  and  C_5 
REMARK    4  A    between atoms: C_18  and  O_17 
ROOT
ATOM      1  N   UNL d   1      51.593  33.823  53.012  0.00  0.00    -0.226 N 
ATOM      2  N   UNL d   1      53.008  33.315  53.736  0.00  0.00    -0.248 N 
ATOM      3  C   UNL d   1      53.705  33.050  54.089  0.00  0.00     0.378 C 
ATOM      4  C   UNL d   1      51.824  33.026  52.978  0.00  0.00     0.111 A 
ATOM      5  C   UNL d   1      52.082  34.366  53.414  0.00  0.00     0.111 A 
ATOM      6  C   UNL d   1      52.782  34.115  53.772  0.00  0.00     0.105 A 
ATOM      7  C   UNL d   1      52.523  32.775  53.336  0.00  0.00     0.105 A 
ATOM      8  O   UNL d   1      53.919  32.254  54.046  0.00  0.00    -0.237 OA
ENDROOT
BRANCH   1   9
ATOM      9  S   UNL d   1      50.894  34.075  52.654  0.00  0.00     0.277 S 
ATOM     10  O   UNL d   1      50.463  33.793  53.298  0.00  0.00    -0.199 OA
ATOM     11  O   UNL d   1      51.332  34.361  51.997  0.00  0.00    -0.199 OA
BRANCH   9  12
ATOM     12  C   UNL d   1      50.200  34.320  52.306  0.00  0.00     0.133 A 
ATOM     13  S   UNL d   1      49.621  34.700  52.687  0.00  0.00    -0.074 SA
ATOM     14  C   UNL d   1      49.009  34.855  52.144  0.00  0.00     0.036 A 
ATOM     15  C   UNL d   1      49.245  34.547  51.403  0.00  0.00     0.008 A 
ATOM     16  C   UNL d   1      49.972  34.220  51.497  0.00  0.00     0.020 A 
ENDBRANCH   9  12
ENDBRANCH   1   9
BRANCH   3  17
ATOM     17  O   UNL d   1      54.177  33.591  54.481  0.00  0.00    -0.257 OA
BRANCH  17  18
ATOM     18  C   UNL d   1      54.847  33.331  54.885  0.00  0.00     0.128 C 
ATOM     19  C   UNL d   1      55.326  33.856  55.285  0.00  0.00     0.029 C 
ENDBRANCH  17  18
ENDBRANCH   3  17
TORSDOF 4
ENDMDL
MODEL 4
REMARK VINA RESULT:      -6.7      2.565      4.528
REMARK  4 active torsions:
REMARK  status: ('A' for Active; 'I' for Inactive)
REMARK    1  A    between atoms: N_2  and  S_1 
REMARK    2  A    between atoms: C_3  and  S_1 
REMARK       I    between atoms: C_5  and  N_4 
REMARK    3  A    between atoms: O_17  and  C_5 
REMARK    4  A    between atoms: C_18  and  O_17 
ROOT
ATOM      1  N   UNL d   1      51.794  33.643  53.047  0.00  0.00    -0.226 N 
ATOM      2  N   UNL d   1      50.347  34.383  52.669  0.00  0.00    -0.248 N 
ATOM      3  C   UNL d   1      49.633  34.744  52.468  0.00  0.00     0.378 C 
ATOM      4  C   UNL d   1      51.491  33.613  52.274  0.00  0.00     0.111 A 
ATOM      5  C   UNL d   1      51.361  34.051  53.631  0.00  0.00     0.111 A 
ATOM      6  C   UNL d   1      50.646  34.417  53.444  0.00  0.00     0.105 A 
ATOM      7  C   UNL d   1      50.776  33.978  52.088  0.00  0.00     0.105 A 
ATOM      8  O   UNL d   1      49.347  34.703  51.695  0.00  0.00    -0.237 OA
ENDROOT
BRANCH   1   9
ATOM      9  S   UNL d   1      52.510  33.278  53.234  0.00  0.00     0.277 S 
ATOM     10  O   UNL d   1      52.888  34.011  53.220  0.00  0.00    -0.199 OA
ATOM     11  O   UNL d   1      52.125  32.531  53.248  0.00  0.00    -0.199 OA
BRANCH   9  12
ATOM     12  C   UNL d   1      53.219  32.923  53.418  0.00  0.00     0.133 A 
ATOM     13  S   UNL d   1      53.338  32.142  53.422  0.00  0.00    -0.074 SA
ATOM     14  C   UNL d   1      54.130  32.000  53.638  0.00  0.00     0.036 A 
ATOM     15  C   UNL d   1      54.493  32.743  53.766  0.00  0.00     0.008 A 
ATOM     16  C   UNL d   1      53.941  33.309  53.633  0.00  0.00     0.020 A 
ENDBRANCH   9  12
ENDBRANCH   1   9
BRANCH   3  17
ATOM     17  O   UNL d   1      49.217  35.141  53.049  0.00  0.00    -0.257 OA
BRANCH  17  18
ATOM     18  C   UNL d   1      48.528  35.550  52.852  0.00  0.00     0.128 C 
ATOM     19  C   UNL d   1      48.135  36.003  53.405  0.00  0.00     0.029 C 
ENDBRANCH  17  18
ENDBRANCH   3  17
TORSDOF 4
ENDMDL
MODEL 5
REMARK VINA RESULT:      -6.1      1.382      4.366
REMARK  4 active torsions:
REMARK  status: ('A' for Active; 'I' for Inactive)
REMARK    1  A    between atoms: N_2  and  S_1 
REMARK    2  A    between atoms: C_3  and  S_1 
REMARK       I    between atoms: C_5  and  N_4 
REMARK    3  A    between atoms: O_17  and  C_5 
REMARK    4  A    between atoms: C_18  and  O_17 
ROOT
ATOM      1  N   UNL d   1      52.985  32.065  53.537  0.00  0.00    -0.226 N 
ATOM      2  N   UNL d   1      52.866  33.729  53.524  0.00  0.00    -0.248 N 
ATOM      3  C   UNL d   1      52.799  34.551  53.505  0.00  0.00     0.378 C 
ATOM      4  C   UNL d   1      52.538  32.453  52.955  0.00  0.00     0.111 A 
ATOM      5  C   UNL d   1      53.373  32.522  54.116  0.00  0.00     0.111 A 
ATOM      6  C   UNL d   1      53.315  33.345  54.110  0.00  0.00     0.105 A 
ATOM      7  C   UNL d   1      52.480  33.276  52.948  0.00  0.00     0.105 A 
ATOM      8  O   UNL d   1      52.351  34.921  52.919  0.00  0.00    -0.237 OA
ENDROOT
BRANCH   1   9
ATOM      9  S   UNL d   1      53.043  31.242  53.544  0.00  0.00     0.277 S 
ATOM     10  O   UNL d   1      53.709  31.293  54.028  0.00  0.00    -0.199 OA
ATOM     11  O   UNL d   1      52.365  31.189  53.051  0.00  0.00    -0.199 OA
BRANCH   9  12
ATOM     12  C   UNL d   1      53.107  30.430  53.554  0.00  0.00     0.133 A 
ATOM     13  S   UNL d   1      52.895  29.960  52.956  0.00  0.00    -0.074 SA
ATOM     14  C   UNL d   1      53.044  29.171  53.180  0.00  0.00     0.036 A 
ATOM     15  C   UNL d   1      53.362  29.184  53.953  0.00  0.00     0.008 A 
ATOM     16  C   UNL d   1      53.402  29.950  54.186  0.00  0.00     0.020 A 
ENDBRANCH   9  12
ENDBRANCH   1   9
BRANCH   3  17
ATOM     17  O   UNL d   1      53.184  34.989  54.078  0.00  0.00    -0.257 OA
BRANCH  17  18
ATOM     18  C   UNL d   1      52.937  35.760  54.238  0.00  0.00     0.128 C 
ATOM     19  C   UNL d   1      53.313  36.213  54.802  0.00  0.00     0.029 C 
ENDBRANCH  17  18
ENDBRANCH   3  17
TORSDOF 4
ENDMDL
MODEL 6
REMARK VINA RESULT:      -5.0      9.784     10.896
REMARK  4 active torsions:
REMARK  status: ('A' for Active; 'I' for Inactive)
REMARK    1  A    between atoms: N_2  and  S_1 
REMARK    2  A    between atoms: C_3  and  S_1 
REMARK       I    between atoms: C_5  and  N_4 
REMARK    3  A    between atoms: O_17  and  C_5 
REMARK    4  A    between atoms: C_18  and  O_17 
ROOT
ATOM      1  N   UNL d   1      44.866  28.046  57.722  0.00  0.00    -0.226 N 
ATOM      2  N   UNL d   1      44.964  29.452  58.616  0.00  0.00    -0.248 N 
ATOM      3  C   UNL d   1      45.017  30.154  59.046  0.00  0.00     0.378 C 
ATOM      4  C   UNL d   1      45.131  28.752  57.374  0.00  0.00     0.111 A 
ATOM      5  C   UNL d   1      44.650  28.052  58.527  0.00  0.00     0.111 A 
ATOM      6  C   UNL d   1      44.698  28.747  58.969  0.00  0.00     0.105 A 
ATOM      7  C   UNL d   1      45.179  29.447  57.816  0.00  0.00     0.105 A 
ATOM      8  O   UNL d   1      45.282  30.847  58.684  0.00  0.00    -0.237 OA
ENDROOT
BRANCH   1   9
ATOM      9  S   UNL d   1      44.818  27.351  57.280  0.00  0.00     0.277 S 
ATOM     10  O   UNL d   1      44.330  27.732  56.735  0.00  0.00    -0.199 OA
ATOM     11  O   UNL d   1      45.315  26.963  57.835  0.00  0.00    -0.199 OA
BRANCH   9  12
ATOM     12  C   UNL d   1      44.767  26.668  56.839  0.00  0.00     0.133 A 
ATOM     13  S   UNL d   1      44.323  26.591  56.191  0.00  0.00    -0.074 SA
ATOM     14  C   UNL d   1      44.419  25.815  55.901  0.00  0.00     0.036 A 
ATOM     15  C   UNL d   1      44.949  25.419  56.412  0.00  0.00     0.008 A 
ATOM     16  C   UNL d   1      45.164  25.936  56.986  0.00  0.00     0.020 A 
ENDBRANCH   9  12
ENDBRANCH   1   9
BRANCH   3  17
ATOM     17  O   UNL d   1      44.802  30.149  59.834  0.00  0.00    -0.257 OA
BRANCH  17  18
ATOM     18  C   UNL d   1      44.779  30.857  60.257  0.00  0.00     0.128 C 
ATOM     19  C   UNL d   1      44.603  30.865  61.053  0.00  0.00     0.029 C 
ENDBRANCH  17  18
ENDBRANCH   3  17
TORSDOF 4
ENDMDL
