MODEL 1
REMARK VINA RESULT:     -10.7      0.000      0.000
REMARK  5 active torsions:
REMARK  status: ('A' for Active; 'I' for Inactive)
REMARK    1  A    between atoms: N_9  and  C_2 
REMARK    2  A    between atoms: N_8  and  C_3 
REMARK    3  A    between atoms: N_10  and  C_6 
REMARK    4  A    between atoms: C_7  and  C_11 
REMARK    5  A    between atoms: C_13  and  N_10 
ROOT
ATOM      1  N   UNL d   1      53.177  33.295  53.790  0.00  0.00     0.133 NA
ATOM      2  C   UNL d   1      53.849  32.880  54.042  0.00  0.00     0.765 A 
ATOM      3  C   UNL d   1      52.664  32.953  53.241  0.00  0.00     0.765 A 
ATOM      4  N   UNL d   1      54.005  32.124  53.744  0.00  0.00     0.134 NA
ATOM      5  N   UNL d   1      52.819  32.198  52.942  0.00  0.00     0.134 NA
ATOM      6  C   UNL d   1      53.488  31.783  53.192  0.00  0.00     0.780 A 
ENDROOT
BRANCH   6   7
ATOM      7  N   UNL d   1      53.646  31.031  52.898  0.00  0.00    -0.058 NA
BRANCH   7   8
ATOM      8  C   UNL d   1      53.259  30.374  53.210  0.00  0.00     0.100 A 
ATOM      9  C   UNL d   1      53.556  30.014  53.897  0.00  0.00     0.024 A 
ATOM     10  C   UNL d   1      53.168  29.354  54.212  0.00  0.00     0.073 A 
ATOM     11  C   UNL d   1      52.489  29.060  53.840  0.00  0.00     0.004 A 
ATOM     12  C   UNL d   1      52.202  29.425  53.158  0.00  0.00     0.002 A 
ATOM     13  C   UNL d   1      52.583  30.079  52.842  0.00  0.00     0.020 A 
BRANCH  10  14
ATOM     14  C   UNL d   1      53.456  28.996  54.888  0.00  0.00     0.419 C 
ATOM     15  F   UNL d   1      53.883  28.295  54.828  0.00  0.00    -0.166 F 
ATOM     16  F   UNL d   1      53.320  29.332  55.620  0.00  0.00    -0.166 F 
ATOM     17  F   UNL d   1      53.698  28.506  54.270  0.00  0.00    -0.166 F 
ENDBRANCH  10  14
ENDBRANCH   7   8
ENDBRANCH   6   7
BRANCH   3  18
ATOM     18  N   UNL d   1      51.991  33.368  52.988  0.00  0.00    -0.137 N 
ATOM     19  C   UNL d   1      52.045  33.862  52.326  0.00  0.00     0.098 A 
ATOM     20  C   UNL d   1      51.372  34.272  52.080  0.00  0.00     0.021 A 
ATOM     21  C   UNL d   1      50.623  33.696  53.141  0.00  0.00     0.021 A 
ATOM     22  C   UNL d   1      51.282  33.282  53.398  0.00  0.00     0.098 A 
ENDBRANCH   3  18
BRANCH   2  23
ATOM     23  N   UNL d   1      54.366  33.221  54.594  0.00  0.00    -0.137 N 
ATOM     24  C   UNL d   1      54.194  33.168  55.394  0.00  0.00     0.098 A 
ATOM     25  C   UNL d   1      54.704  33.505  55.935  0.00  0.00     0.021 A 
ATOM     26  C   UNL d   1      55.553  33.944  54.882  0.00  0.00     0.021 A 
ATOM     27  C   UNL d   1      55.044  33.607  54.327  0.00  0.00     0.098 A 
ENDBRANCH   2  23
TORSDOF 5
ENDMDL
MODEL 2
REMARK VINA RESULT:     -10.6      0.010      2.551
REMARK  5 active torsions:
REMARK  status: ('A' for Active; 'I' for Inactive)
REMARK    1  A    between atoms: N_9  and  C_2 
REMARK    2  A    between atoms: N_8  and  C_3 
REMARK    3  A    between atoms: N_10  and  C_6 
REMARK    4  A    between atoms: C_7  and  C_11 
REMARK    5  A    between atoms: C_13  and  N_10 
ROOT
ATOM      1  N   UNL d   1      53.175  33.294  53.785  0.00  0.00     0.133 NA
ATOM      2  C   UNL d   1      52.659  32.955  53.231  0.00  0.00     0.765 A 
ATOM      3  C   UNL d   1      53.841  32.878  54.037  0.00  0.00     0.765 A 
ATOM      4  N   UNL d   1      52.814  32.200  52.932  0.00  0.00     0.134 NA
ATOM      5  N   UNL d   1      53.996  32.123  53.737  0.00  0.00     0.134 NA
ATOM      6  C   UNL d   1      53.484  31.783  53.186  0.00  0.00     0.780 A 
ENDROOT
BRANCH   6   7
ATOM      7  N   UNL d   1      53.634  31.032  52.885  0.00  0.00    -0.058 NA
BRANCH   7   8
ATOM      8  C   UNL d   1      53.249  30.375  53.201  0.00  0.00     0.100 A 
ATOM      9  C   UNL d   1      53.552  30.016  53.887  0.00  0.00     0.024 A 
ATOM     10  C   UNL d   1      53.167  29.356  54.205  0.00  0.00     0.073 A 
ATOM     11  C   UNL d   1      52.485  29.062  53.839  0.00  0.00     0.004 A 
ATOM     12  C   UNL d   1      52.192  29.426  53.159  0.00  0.00     0.002 A 
ATOM     13  C   UNL d   1      52.570  30.080  52.840  0.00  0.00     0.020 A 
BRANCH  10  14
ATOM     14  C   UNL d   1      53.459  28.998  54.879  0.00  0.00     0.419 C 
ATOM     15  F   UNL d   1      53.889  28.299  54.816  0.00  0.00    -0.166 F 
ATOM     16  F   UNL d   1      53.327  29.333  55.612  0.00  0.00    -0.166 F 
ATOM     17  F   UNL d   1      53.699  28.510  54.259  0.00  0.00    -0.166 F 
ENDBRANCH  10  14
ENDBRANCH   7   8
ENDBRANCH   6   7
BRANCH   3  18
ATOM     18  N   UNL d   1      54.357  33.217  54.591  0.00  0.00    -0.137 N 
ATOM     19  C   UNL d   1      55.039  33.605  54.326  0.00  0.00     0.098 A 
ATOM     20  C   UNL d   1      55.548  33.940  54.882  0.00  0.00     0.021 A 
ATOM     21  C   UNL d   1      54.699  33.502  55.934  0.00  0.00     0.021 A 
ATOM     22  C   UNL d   1      54.184  33.163  55.394  0.00  0.00     0.098 A 
ENDBRANCH   3  18
BRANCH   2  23
ATOM     23  N   UNL d   1      51.988  33.372  52.977  0.00  0.00    -0.137 N 
ATOM     24  C   UNL d   1      51.283  33.288  53.386  0.00  0.00     0.098 A 
ATOM     25  C   UNL d   1      50.625  33.700  53.134  0.00  0.00     0.021 A 
ATOM     26  C   UNL d   1      51.373  34.273  52.069  0.00  0.00     0.021 A 
ATOM     27  C   UNL d   1      52.044  33.862  52.316  0.00  0.00     0.098 A 
ENDBRANCH   2  23
TORSDOF 5
ENDMDL
MODEL 3
REMARK VINA RESULT:      -8.0      2.541      4.709
REMARK  5 active torsions:
REMARK  status: ('A' for Active; 'I' for Inactive)
REMARK    1  A    between atoms: N_9  and  C_2 
REMARK    2  A    between atoms: N_8  and  C_3 
REMARK    3  A    between atoms: N_10  and  C_6 
REMARK    4  A    between atoms: C_7  and  C_11 
REMARK    5  A    between atoms: C_13  and  N_10 
ROOT
ATOM      1  N   UNL d   1      53.622  32.103  53.869  0.00  0.00     0.133 NA
ATOM      2  C   UNL d   1      53.084  31.825  53.302  0.00  0.00     0.765 A 
ATOM      3  C   UNL d   1      53.800  32.908  53.910  0.00  0.00     0.765 A 
ATOM      4  N   UNL d   1      52.726  32.355  52.778  0.00  0.00     0.134 NA
ATOM      5  N   UNL d   1      53.442  33.438  53.385  0.00  0.00     0.134 NA
ATOM      6  C   UNL d   1      52.906  33.164  52.821  0.00  0.00     0.780 A 
ENDROOT
BRANCH   6   7
ATOM      7  N   UNL d   1      52.547  33.688  52.297  0.00  0.00    -0.058 NA
BRANCH   7   8
ATOM      8  C   UNL d   1      51.815  34.019  52.480  0.00  0.00     0.100 A 
ATOM      9  C   UNL d   1      51.195  33.966  51.929  0.00  0.00     0.024 A 
ATOM     10  C   UNL d   1      50.459  34.298  52.110  0.00  0.00     0.073 A 
ATOM     11  C   UNL d   1      50.348  34.680  52.837  0.00  0.00     0.004 A 
ATOM     12  C   UNL d   1      50.971  34.727  53.377  0.00  0.00     0.002 A 
ATOM     13  C   UNL d   1      51.701  34.399  53.202  0.00  0.00     0.020 A 
BRANCH  10  14
ATOM     14  C   UNL d   1      49.845  34.249  51.573  0.00  0.00     0.419 C 
ATOM     15  F   UNL d   1      49.097  34.019  51.828  0.00  0.00    -0.166 F 
ATOM     16  F   UNL d   1      49.973  34.428  50.787  0.00  0.00    -0.166 F 
ATOM     17  F   UNL d   1      49.511  34.032  52.296  0.00  0.00    -0.166 F 
ENDBRANCH  10  14
ENDBRANCH   7   8
ENDBRANCH   6   7
BRANCH   3  18
ATOM     18  N   UNL d   1      54.338  33.186  54.476  0.00  0.00    -0.137 N 
ATOM     19  C   UNL d   1      54.135  33.152  55.279  0.00  0.00     0.098 A 
ATOM     20  C   UNL d   1      54.676  33.430  55.837  0.00  0.00     0.021 A 
ATOM     21  C   UNL d   1      55.588  33.763  54.801  0.00  0.00     0.021 A 
ATOM     22  C   UNL d   1      55.063  33.491  54.233  0.00  0.00     0.098 A 
ENDBRANCH   3  18
BRANCH   2  23
ATOM     23  N   UNL d   1      52.904  31.016  53.260  0.00  0.00    -0.137 N 
ATOM     24  C   UNL d   1      53.487  30.486  53.034  0.00  0.00     0.098 A 
ATOM     25  C   UNL d   1      53.307  29.690  52.993  0.00  0.00     0.021 A 
ATOM     26  C   UNL d   1      51.972  29.956  53.403  0.00  0.00     0.021 A 
ATOM     27  C   UNL d   1      52.143  30.762  53.447  0.00  0.00     0.098 A 
ENDBRANCH   2  23
TORSDOF 5
ENDMDL
MODEL 4
REMARK VINA RESULT:      -8.0      2.545      4.233
REMARK  5 active torsions:
REMARK  status: ('A' for Active; 'I' for Inactive)
REMARK    1  A    between atoms: N_9  and  C_2 
REMARK    2  A    between atoms: N_8  and  C_3 
REMARK    3  A    between atoms: N_10  and  C_6 
REMARK    4  A    between atoms: C_7  and  C_11 
REMARK    5  A    between atoms: C_13  and  N_10 
ROOT
ATOM      1  N   UNL d   1      53.610  32.108  53.864  0.00  0.00     0.133 NA
ATOM      2  C   UNL d   1      53.788  32.916  53.923  0.00  0.00     0.765 A 
ATOM      3  C   UNL d   1      53.079  31.844  53.290  0.00  0.00     0.765 A 
ATOM      4  N   UNL d   1      53.434  33.456  53.406  0.00  0.00     0.134 NA
ATOM      5  N   UNL d   1      52.724  32.384  52.774  0.00  0.00     0.134 NA
ATOM      6  C   UNL d   1      52.900  33.188  52.830  0.00  0.00     0.780 A 
ENDROOT
BRANCH   6   7
ATOM      7  N   UNL d   1      52.550  33.729  52.318  0.00  0.00    -0.058 NA
BRANCH   7   8
ATOM      8  C   UNL d   1      51.809  34.043  52.492  0.00  0.00     0.100 A 
ATOM      9  C   UNL d   1      51.198  33.984  51.930  0.00  0.00     0.024 A 
ATOM     10  C   UNL d   1      50.454  34.300  52.104  0.00  0.00     0.073 A 
ATOM     11  C   UNL d   1      50.323  34.671  52.833  0.00  0.00     0.004 A 
ATOM     12  C   UNL d   1      50.936  34.724  53.383  0.00  0.00     0.002 A 
ATOM     13  C   UNL d   1      51.675  34.413  53.217  0.00  0.00     0.020 A 
BRANCH  10  14
ATOM     14  C   UNL d   1      49.849  34.245  51.556  0.00  0.00     0.419 C 
ATOM     15  F   UNL d   1      49.093  34.035  51.803  0.00  0.00    -0.166 F 
ATOM     16  F   UNL d   1      49.996  34.399  50.768  0.00  0.00    -0.166 F 
ATOM     17  F   UNL d   1      49.498  34.055  52.278  0.00  0.00    -0.166 F 
ENDBRANCH  10  14
ENDBRANCH   7   8
ENDBRANCH   6   7
BRANCH   3  18
ATOM     18  N   UNL d   1      52.900  31.036  53.232  0.00  0.00    -0.137 N 
ATOM     19  C   UNL d   1      52.146  30.771  53.448  0.00  0.00     0.098 A 
ATOM     20  C   UNL d   1      51.975  29.966  53.387  0.00  0.00     0.021 A 
ATOM     21  C   UNL d   1      53.288  29.715  52.907  0.00  0.00     0.021 A 
ATOM     22  C   UNL d   1      53.474  30.511  52.961  0.00  0.00     0.098 A 
ENDBRANCH   3  18
BRANCH   2  23
ATOM     23  N   UNL d   1      54.322  33.184  54.499  0.00  0.00    -0.137 N 
ATOM     24  C   UNL d   1      54.113  33.145  55.290  0.00  0.00     0.098 A 
ATOM     25  C   UNL d   1      54.640  33.409  55.855  0.00  0.00     0.021 A 
ATOM     26  C   UNL d   1      55.578  33.750  54.842  0.00  0.00     0.021 A 
ATOM     27  C   UNL d   1      55.052  33.485  54.264  0.00  0.00     0.098 A 
ENDBRANCH   2  23
TORSDOF 5
ENDMDL
