MODEL 1
REMARK VINA RESULT:      40.7      0.000      0.000
REMARK  6 active torsions:
REMARK  status: ('A' for Active; 'I' for Inactive)
REMARK    1  A    between atoms: C_7  and  N_1 
REMARK    2  A    between atoms: C_9  and  C_7 
REMARK    3  A    between atoms: C_10  and  C_9 
REMARK       I    between atoms: N_13  and  C_10 
REMARK    4  A    between atoms: C_15  and  N_13 
REMARK    5  A    between atoms: C_18  and  C_15 
REMARK    6  A    between atoms: C_17  and  C_18 
ROOT
ATOM      1  C   UNL d   1     -50.680  26.369  33.347  0.00  0.00     0.090 C 
ENDROOT
BRANCH   1   2
ATOM      2  N   UNL d   1     -51.034  25.616  33.337  0.00  0.00    -0.249 N 
ATOM      3  C   UNL d   1     -50.567  24.946  33.323  0.00  0.00     0.208 A 
ATOM      4  N   UNL d   1     -50.908  24.195  33.313  0.00  0.00    -0.218 NA
ATOM      5  S   UNL d   1     -49.743  25.013  33.319  0.00  0.00    -0.038 SA
ATOM      6  C   UNL d   1     -51.735  24.131  33.316  0.00  0.00     0.088 A 
ATOM      7  C   UNL d   1     -52.205  24.807  33.330  0.00  0.00     0.074 A 
ATOM      8  C   UNL d   1     -52.085  23.384  33.306  0.00  0.00     0.019 A 
ATOM      9  C   UNL d   1     -51.854  25.553  33.340  0.00  0.00     0.268 A 
ATOM     10  C   UNL d   1     -53.028  24.738  33.334  0.00  0.00     0.006 A 
ATOM     11  O   UNL d   1     -52.324  26.230  33.354  0.00  0.00    -0.267 OA
ATOM     12  C   UNL d   1     -53.379  23.991  33.323  0.00  0.00     0.000 A 
ATOM     13  C   UNL d   1     -52.913  23.316  33.310  0.00  0.00     0.002 A 
ENDBRANCH   1   2
BRANCH   1  14
ATOM     14  C   UNL d   1     -49.960  26.473  33.727  0.00  0.00     0.082 C 
BRANCH  14  15
ATOM     15  C   UNL d   1     -49.660  27.236  33.849  0.00  0.00     0.281 C 
ATOM     16  O   UNL d   1     -50.017  27.873  33.471  0.00  0.00    -0.265 OA
ATOM     17  N   UNL d   1     -49.015  27.344  34.344  0.00  0.00    -0.206 NA
BRANCH  17  18
ATOM     18  C   UNL d   1     -48.712  28.114  34.467  0.00  0.00     0.102 C 
BRANCH  18  19
ATOM     19  C   UNL d   1     -48.012  28.228  34.873  0.00  0.00     0.021 C 
BRANCH  19  20
ATOM     20  C   UNL d   1     -47.847  28.937  35.219  0.00  0.00     0.002 A 
ATOM     21  C   UNL d   1     -47.687  29.611  34.759  0.00  0.00     0.000 A 
ATOM     22  C   UNL d   1     -47.518  30.339  35.113  0.00  0.00     0.000 A 
ATOM     23  C   UNL d   1     -47.501  30.422  35.932  0.00  0.00     0.000 A 
ATOM     24  C   UNL d   1     -47.662  29.747  36.392  0.00  0.00     0.000 A 
ATOM     25  C   UNL d   1     -47.833  29.012  36.046  0.00  0.00     0.000 A 
ENDBRANCH  19  20
ENDBRANCH  18  19
ENDBRANCH  17  18
ENDBRANCH  14  15
ENDBRANCH   1  14
TORSDOF 6
ENDMDL
MODEL 2
REMARK VINA RESULT:      41.5      1.007      1.379
REMARK  6 active torsions:
REMARK  status: ('A' for Active; 'I' for Inactive)
REMARK    1  A    between atoms: C_7  and  N_1 
REMARK    2  A    between atoms: C_9  and  C_7 
REMARK    3  A    between atoms: C_10  and  C_9 
REMARK       I    between atoms: N_13  and  C_10 
REMARK    4  A    between atoms: C_15  and  N_13 
REMARK    5  A    between atoms: C_18  and  C_15 
REMARK    6  A    between atoms: C_17  and  C_18 
ROOT
ATOM      1  C   UNL d   1     -50.461  26.669  33.311  0.00  0.00     0.090 C 
ENDROOT
BRANCH   1   2
ATOM      2  N   UNL d   1     -51.100  26.138  33.310  0.00  0.00    -0.249 N 
ATOM      3  C   UNL d   1     -51.867  26.421  33.309  0.00  0.00     0.208 A 
ATOM      4  N   UNL d   1     -52.508  25.902  33.309  0.00  0.00    -0.218 NA
ATOM      5  S   UNL d   1     -52.009  27.236  33.310  0.00  0.00    -0.038 SA
ATOM      6  C   UNL d   1     -52.362  25.086  33.308  0.00  0.00     0.088 A 
ATOM      7  C   UNL d   1     -51.590  24.801  33.308  0.00  0.00     0.074 A 
ATOM      8  C   UNL d   1     -52.997  24.560  33.307  0.00  0.00     0.019 A 
ATOM      9  C   UNL d   1     -50.956  25.328  33.309  0.00  0.00     0.268 A 
ATOM     10  C   UNL d   1     -51.450  23.987  33.307  0.00  0.00     0.006 A 
ATOM     11  O   UNL d   1     -50.182  25.044  33.309  0.00  0.00    -0.267 OA
ATOM     12  C   UNL d   1     -52.084  23.460  33.307  0.00  0.00     0.000 A 
ATOM     13  C   UNL d   1     -52.855  23.741  33.306  0.00  0.00     0.002 A 
ENDBRANCH   1   2
BRANCH   1  14
ATOM     14  C   UNL d   1     -50.114  26.885  34.023  0.00  0.00     0.082 C 
BRANCH  14  15
ATOM     15  C   UNL d   1     -49.426  27.347  34.028  0.00  0.00     0.281 C 
ATOM     16  O   UNL d   1     -48.934  27.343  33.369  0.00  0.00    -0.265 OA
ATOM     17  N   UNL d   1     -49.246  27.799  34.687  0.00  0.00    -0.206 NA
BRANCH  17  18
ATOM     18  C   UNL d   1     -48.551  28.266  34.692  0.00  0.00     0.102 C 
BRANCH  18  19
ATOM     19  C   UNL d   1     -48.228  28.528  35.396  0.00  0.00     0.021 C 
BRANCH  19  20
ATOM     20  C   UNL d   1     -47.884  29.255  35.447  0.00  0.00     0.002 A 
ATOM     21  C   UNL d   1     -47.656  29.570  36.182  0.00  0.00     0.000 A 
ATOM     22  C   UNL d   1     -47.303  30.316  36.233  0.00  0.00     0.000 A 
ATOM     23  C   UNL d   1     -47.165  30.772  35.562  0.00  0.00     0.000 A 
ATOM     24  C   UNL d   1     -47.394  30.454  34.827  0.00  0.00     0.000 A 
ATOM     25  C   UNL d   1     -47.749  29.707  34.763  0.00  0.00     0.000 A 
ENDBRANCH  19  20
ENDBRANCH  18  19
ENDBRANCH  17  18
ENDBRANCH  14  15
ENDBRANCH   1  14
TORSDOF 6
ENDMDL
