MODEL 1
REMARK VINA RESULT:      80.0      0.000      0.000
REMARK  6 active torsions:
REMARK  status: ('A' for Active; 'I' for Inactive)
REMARK    1  A    between atoms: S_5  and  C_2 
REMARK    2  A    between atoms: C_13  and  S_5 
REMARK    3  A    between atoms: N_17  and  C_10 
REMARK    4  A    between atoms: C_24  and  N_17 
REMARK    5  A    between atoms: C_25  and  C_24 
REMARK    6  A    between atoms: C_26  and  C_25 
ROOT
ATOM      1  C   UNL d   1     -50.489  26.343  34.544  0.00  0.00     0.198 A 
ATOM      2  C   UNL d   1     -50.632  25.900  33.873  0.00  0.00     0.227 A 
ATOM      3  N   UNL d   1     -49.844  26.820  34.400  0.00  0.00    -0.192 N 
ATOM      4  N   UNL d   1     -50.876  26.369  35.280  0.00  0.00    -0.205 NA
ATOM      5  N   UNL d   1     -50.068  26.106  33.306  0.00  0.00    -0.115 NA
ATOM      6  N   UNL d   1     -49.584  26.673  33.635  0.00  0.00    -0.058 NA
ATOM      7  C   UNL d   1     -49.572  27.334  34.990  0.00  0.00     0.096 A 
ATOM      8  C   UNL d   1     -49.959  27.360  35.727  0.00  0.00     0.083 A 
ATOM      9  C   UNL d   1     -50.607  26.880  35.869  0.00  0.00     0.172 A 
ATOM     10  S   UNL d   1     -49.567  27.919  36.200  0.00  0.00    -0.082 SA
ATOM     11  C   UNL d   1     -48.944  27.878  35.014  0.00  0.00     0.027 A 
ATOM     12  C   UNL d   1     -48.940  28.238  35.757  0.00  0.00     0.037 A 
ENDROOT
BRANCH   2  13
ATOM     13  S   UNL d   1     -51.233  25.340  33.765  0.00  0.00     0.231 S 
ATOM     14  O   UNL d   1     -51.761  25.968  33.641  0.00  0.00    -0.215 OA
ATOM     15  O   UNL d   1     -50.710  24.713  33.889  0.00  0.00    -0.215 OA
BRANCH  13  16
ATOM     16  C   UNL d   1     -51.868  24.822  33.650  0.00  0.00     0.090 A 
ATOM     17  C   UNL d   1     -52.636  25.117  33.588  0.00  0.00     0.012 A 
ATOM     18  C   UNL d   1     -53.264  24.602  33.474  0.00  0.00     0.007 A 
ATOM     19  C   UNL d   1     -53.133  23.786  33.420  0.00  0.00     0.035 A 
ATOM     20  C   UNL d   1     -52.363  23.493  33.483  0.00  0.00     0.007 A 
ATOM     21 BR   UNL d   1     -53.761  23.271  33.306  0.00  0.00    -0.049 Br
ATOM     22  C   UNL d   1     -51.730  24.008  33.597  0.00  0.00     0.012 A 
ENDBRANCH  13  16
ENDBRANCH   2  13
BRANCH   9  23
ATOM     23  N   UNL d   1     -50.992  26.906  36.601  0.00  0.00    -0.225 NA
BRANCH  23  24
ATOM     24  C   UNL d   1     -51.445  26.264  36.850  0.00  0.00     0.101 C 
BRANCH  24  25
ATOM     25  C   UNL d   1     -51.867  26.308  37.557  0.00  0.00     0.021 C 
BRANCH  25  26
ATOM     26  C   UNL d   1     -52.286  25.655  37.828  0.00  0.00     0.002 C 
ATOM     27  C   UNL d   1     -52.025  25.244  38.491  0.00  0.00     0.000 C 
ATOM     28  C   UNL d   1     -52.971  25.406  37.441  0.00  0.00     0.000 C 
ENDBRANCH  25  26
ENDBRANCH  24  25
ENDBRANCH  23  24
ENDBRANCH   9  23
TORSDOF 6
ENDMDL
MODEL 2
REMARK VINA RESULT:      81.9      1.030      1.449
REMARK  6 active torsions:
REMARK  status: ('A' for Active; 'I' for Inactive)
REMARK    1  A    between atoms: S_5  and  C_2 
REMARK    2  A    between atoms: C_13  and  S_5 
REMARK    3  A    between atoms: N_17  and  C_10 
REMARK    4  A    between atoms: C_24  and  N_17 
REMARK    5  A    between atoms: C_25  and  C_24 
REMARK    6  A    between atoms: C_26  and  C_25 
ROOT
ATOM      1  C   UNL d   1     -49.556  27.265  34.602  0.00  0.00     0.198 A 
ATOM      2  C   UNL d   1     -49.761  26.904  33.898  0.00  0.00     0.227 A 
ATOM      3  N   UNL d   1     -48.947  27.785  34.452  0.00  0.00    -0.192 N 
ATOM      4  N   UNL d   1     -49.858  27.180  35.373  0.00  0.00    -0.205 NA
ATOM      5  N   UNL d   1     -49.271  27.205  33.306  0.00  0.00    -0.115 NA
ATOM      6  N   UNL d   1     -48.771  27.748  33.651  0.00  0.00    -0.058 NA
ATOM      7  C   UNL d   1     -48.627  28.233  35.072  0.00  0.00     0.096 A 
ATOM      8  C   UNL d   1     -48.928  28.148  35.843  0.00  0.00     0.083 A 
ATOM      9  C   UNL d   1     -49.539  27.624  35.991  0.00  0.00     0.172 A 
ATOM     10  S   UNL d   1     -48.503  28.660  36.339  0.00  0.00    -0.082 SA
ATOM     11  C   UNL d   1     -48.017  28.797  35.098  0.00  0.00     0.027 A 
ATOM     12  C   UNL d   1     -47.940  29.060  35.876  0.00  0.00     0.037 A 
ENDROOT
BRANCH   2  13
ATOM     13  S   UNL d   1     -50.351  26.335  33.785  0.00  0.00     0.231 S 
ATOM     14  O   UNL d   1     -49.752  25.769  33.687  0.00  0.00    -0.215 OA
ATOM     15  O   UNL d   1     -50.951  26.895  33.881  0.00  0.00    -0.215 OA
BRANCH  13  16
ATOM     16  C   UNL d   1     -50.902  25.729  33.665  0.00  0.00     0.090 A 
ATOM     17  C   UNL d   1     -51.704  25.910  33.583  0.00  0.00     0.012 A 
ATOM     18  C   UNL d   1     -52.248  25.308  33.464  0.00  0.00     0.007 A 
ATOM     19  C   UNL d   1     -52.000  24.518  33.426  0.00  0.00     0.035 A 
ATOM     20  C   UNL d   1     -51.197  24.340  33.509  0.00  0.00     0.007 A 
ATOM     21 BR   UNL d   1     -52.545  23.916  33.308  0.00  0.00    -0.049 Br
ATOM     22  C   UNL d   1     -50.648  24.943  33.628  0.00  0.00     0.012 A 
ENDBRANCH  13  16
ENDBRANCH   2  13
BRANCH   9  23
ATOM     23  N   UNL d   1     -49.839  27.540  36.758  0.00  0.00    -0.225 NA
BRANCH  23  24
ATOM     24  C   UNL d   1     -50.527  27.103  36.884  0.00  0.00     0.101 C 
BRANCH  24  25
ATOM     25  C   UNL d   1     -50.574  26.587  37.525  0.00  0.00     0.021 C 
BRANCH  25  26
ATOM     26  C   UNL d   1     -51.235  26.595  38.013  0.00  0.00     0.002 C 
ATOM     27  C   UNL d   1     -51.723  25.934  38.058  0.00  0.00     0.000 C 
ATOM     28  C   UNL d   1     -51.418  27.263  38.462  0.00  0.00     0.000 C 
ENDBRANCH  25  26
ENDBRANCH  24  25
ENDBRANCH  23  24
ENDBRANCH   9  23
TORSDOF 6
ENDMDL
