MODEL 1
REMARK VINA RESULT:      45.7      0.000      0.000
REMARK  3 active torsions:
REMARK  status: ('A' for Active; 'I' for Inactive)
REMARK    1  A    between atoms: N_10  and  C_3 
REMARK    2  A    between atoms: C_11  and  C_5 
REMARK    3  A    between atoms: C_12  and  C_9 
ROOT
ATOM      1  N   UNL d   1      45.841 -17.073  42.960  0.00  0.00    -0.196 N 
ATOM      2  C   UNL d   1      46.004 -17.852  42.704  0.00  0.00     0.167 A 
ATOM      3  C   UNL d   1      45.697 -16.936  43.758  0.00  0.00     0.152 A 
ATOM      4  N   UNL d   1      45.972 -16.603  41.613  0.00  0.00    -0.163 NA
ATOM      5  C   UNL d   1      46.147 -17.998  41.916  0.00  0.00     0.055 A 
ATOM      6  N   UNL d   1      46.017 -18.465  43.255  0.00  0.00    -0.227 NA
ATOM      7  C   UNL d   1      45.713 -17.575  44.319  0.00  0.00     0.057 A 
ATOM      8  C   UNL d   1      46.135 -17.382  41.357  0.00  0.00     0.104 A 
ATOM      9  C   UNL d   1      45.873 -18.321  44.046  0.00  0.00     0.086 A 
ATOM     10  C   UNL d   1      46.278 -17.529  40.573  0.00  0.00     0.023 C 
ENDROOT
BRANCH   5  11
ATOM     11  C   UNL d   1      46.312 -18.785  41.657  0.00  0.00     0.004 A 
ATOM     12  C   UNL d   1      46.387 -18.945  40.853  0.00  0.00     0.000 A 
ATOM     13  C   UNL d   1      46.549 -19.720  40.598  0.00  0.00     0.000 A 
ATOM     14  C   UNL d   1      46.633 -20.320  41.152  0.00  0.00     0.000 A 
ATOM     15  C   UNL d   1      46.556 -20.154  41.964  0.00  0.00     0.000 A 
ATOM     16  C   UNL d   1      46.397 -19.388  42.206  0.00  0.00     0.000 A 
ENDBRANCH   5  11
BRANCH   3  17
ATOM     17  N   UNL d   1      45.529 -16.138  44.025  0.00  0.00    -0.289 N 
ATOM     18  C   UNL d   1      44.897 -16.006  44.410  0.00  0.00     0.082 A 
ATOM     19  C   UNL d   1      44.756 -15.298  44.643  0.00  0.00     0.021 A 
ATOM     20  C   UNL d   1      45.863 -14.892  44.108  0.00  0.00     0.021 A 
ATOM     21  C   UNL d   1      46.003 -15.600  43.875  0.00  0.00     0.082 A 
ENDBRANCH   3  17
BRANCH   9  22
ATOM     22  C   UNL d   1      45.888 -18.971  44.623  0.00  0.00     0.018 C 
ATOM     23  C   UNL d   1      45.136 -19.270  44.946  0.00  0.00     0.002 C 
ATOM     24  C   UNL d   1      46.641 -19.315  44.871  0.00  0.00     0.002 C 
ENDBRANCH   9  22
TORSDOF 3
ENDMDL
