MODEL 1
REMARK VINA RESULT:      -5.9      0.000      0.000
REMARK  2 active torsions:
REMARK  status: ('A' for Active; 'I' for Inactive)
REMARK    1  A    between atoms: C_12  and  C_4 
REMARK    2  A    between atoms: C_10  and  C_5 
ROOT
ATOM      1  N   UNL d   1     -48.218  12.815  23.052  0.00  0.00    -0.208 N 
ATOM      2  N   UNL d   1     -47.401  12.679  23.045  0.00  0.00    -0.163 NA
ATOM      3  C   UNL d   1     -48.589  12.125  23.312  0.00  0.00     0.088 A 
ATOM      4  C   UNL d   1     -48.661  13.476  22.855  0.00  0.00     0.183 A 
ATOM      5  C   UNL d   1     -47.267  11.908  23.299  0.00  0.00     0.109 A 
ATOM      6  O   UNL d   1     -49.481  13.449  22.918  0.00  0.00    -0.289 OA
ATOM      7  C   UNL d   1     -47.998  11.563  23.466  0.00  0.00     0.041 A 
ATOM      8  C   UNL d   1     -49.402  12.099  23.375  0.00  0.00     0.041 A 
ATOM      9  C   UNL d   1     -49.855  12.762  23.178  0.00  0.00     0.103 A 
ATOM     10  C   UNL d   1     -49.776  11.412  23.635  0.00  0.00     0.004 A 
ATOM     11  C   UNL d   1     -50.674  12.737  23.241  0.00  0.00     0.025 A 
ATOM     12  C   UNL d   1     -50.595  11.385  23.698  0.00  0.00     0.000 A 
ATOM     13  C   UNL d   1     -51.047  12.050  23.500  0.00  0.00     0.002 A 
ENDROOT
BRANCH   4  14
ATOM     14  C   UNL d   1     -48.287  14.164  22.595  0.00  0.00     0.041 A 
ATOM     15  C   UNL d   1     -48.173  14.279  21.796  0.00  0.00     0.004 A 
ATOM     16  C   UNL d   1     -47.797  14.972  21.530  0.00  0.00     0.000 A 
ATOM     17  C   UNL d   1     -47.542  15.541  22.080  0.00  0.00     0.000 A 
ATOM     18  C   UNL d   1     -47.666  15.410  22.889  0.00  0.00     0.000 A 
ATOM     19  C   UNL d   1     -48.037  14.724  23.149  0.00  0.00     0.004 A 
ENDBRANCH   4  14
BRANCH   5  20
ATOM     20  C   UNL d   1     -46.535  11.540  23.377  0.00  0.00     0.049 A 
ATOM     21  S   UNL d   1     -46.398  10.795  23.695  0.00  0.00    -0.085 SA
ATOM     22  C   UNL d   1     -45.588  10.649  23.664  0.00  0.00     0.035 A 
ATOM     23  C   UNL d   1     -45.220  11.307  23.323  0.00  0.00     0.007 A 
ATOM     24  C   UNL d   1     -45.797  11.859  23.144  0.00  0.00     0.009 A 
ENDBRANCH   5  20
TORSDOF 2
ENDMDL
MODEL 2
REMARK VINA RESULT:      -5.7      8.430      9.824
REMARK  2 active torsions:
REMARK  status: ('A' for Active; 'I' for Inactive)
REMARK    1  A    between atoms: C_12  and  C_4 
REMARK    2  A    between atoms: C_10  and  C_5 
ROOT
ATOM      1  N   UNL d   1     -40.075  14.269  18.426  0.00  0.00    -0.208 N 
ATOM      2  N   UNL d   1     -39.534  13.670  18.607  0.00  0.00    -0.163 NA
ATOM      3  C   UNL d   1     -40.173  14.284  17.606  0.00  0.00     0.088 A 
ATOM      4  C   UNL d   1     -40.484  14.795  18.903  0.00  0.00     0.183 A 
ATOM      5  C   UNL d   1     -39.298  13.315  17.903  0.00  0.00     0.109 A 
ATOM      6  O   UNL d   1     -40.996  15.341  18.560  0.00  0.00    -0.289 OA
ATOM      7  C   UNL d   1     -39.690  13.692  17.283  0.00  0.00     0.041 A 
ATOM      8  C   UNL d   1     -40.681  14.825  17.266  0.00  0.00     0.041 A 
ATOM      9  C   UNL d   1     -41.097  15.359  17.742  0.00  0.00     0.103 A 
ATOM     10  C   UNL d   1     -40.782  14.844  16.449  0.00  0.00     0.004 A 
ATOM     11  C   UNL d   1     -41.609  15.905  17.401  0.00  0.00     0.025 A 
ATOM     12  C   UNL d   1     -41.293  15.389  16.107  0.00  0.00     0.000 A 
ATOM     13  C   UNL d   1     -41.708  15.922  16.585  0.00  0.00     0.002 A 
ENDROOT
BRANCH   4  14
ATOM     14  C   UNL d   1     -40.385  14.778  19.722  0.00  0.00     0.041 A 
ATOM     15  C   UNL d   1     -40.911  14.357  20.180  0.00  0.00     0.004 A 
ATOM     16  C   UNL d   1     -40.813  14.338  21.006  0.00  0.00     0.000 A 
ATOM     17  C   UNL d   1     -40.181  14.747  21.358  0.00  0.00     0.000 A 
ATOM     18  C   UNL d   1     -39.654  15.171  20.878  0.00  0.00     0.000 A 
ATOM     19  C   UNL d   1     -39.753  15.189  20.062  0.00  0.00     0.004 A 
ENDBRANCH   4  14
BRANCH   5  20
ATOM     20  C   UNL d   1     -38.764  12.694  17.825  0.00  0.00     0.049 A 
ATOM     21  S   UNL d   1     -38.451  12.410  17.121  0.00  0.00    -0.085 SA
ATOM     22  C   UNL d   1     -37.942  11.787  17.300  0.00  0.00     0.035 A 
ATOM     23  C   UNL d   1     -37.940  11.684  18.122  0.00  0.00     0.007 A 
ATOM     24  C   UNL d   1     -38.443  12.239  18.451  0.00  0.00     0.009 A 
ENDBRANCH   5  20
TORSDOF 2
ENDMDL
MODEL 3
REMARK VINA RESULT:      -5.4      1.279      3.657
REMARK  2 active torsions:
REMARK  status: ('A' for Active; 'I' for Inactive)
REMARK    1  A    between atoms: C_12  and  C_4 
REMARK    2  A    between atoms: C_10  and  C_5 
ROOT
ATOM      1  N   UNL d   1     -48.077  12.616  23.001  0.00  0.00    -0.208 N 
ATOM      2  N   UNL d   1     -48.277  13.392  22.794  0.00  0.00    -0.163 NA
ATOM      3  C   UNL d   1     -47.256  12.578  23.083  0.00  0.00     0.088 A 
ATOM      4  C   UNL d   1     -48.538  11.949  23.122  0.00  0.00     0.183 A 
ATOM      5  C   UNL d   1     -47.583  13.833  22.749  0.00  0.00     0.109 A 
ATOM      6  O   UNL d   1     -48.178  11.238  23.327  0.00  0.00    -0.289 OA
ATOM      7  C   UNL d   1     -46.951  13.333  22.927  0.00  0.00     0.041 A 
ATOM      8  C   UNL d   1     -46.900  11.872  23.287  0.00  0.00     0.041 A 
ATOM      9  C   UNL d   1     -47.359  11.195  23.410  0.00  0.00     0.103 A 
ATOM     10  C   UNL d   1     -46.081  11.830  23.370  0.00  0.00     0.004 A 
ATOM     11  C   UNL d   1     -47.001  10.484  23.615  0.00  0.00     0.025 A 
ATOM     12  C   UNL d   1     -45.722  11.119  23.575  0.00  0.00     0.000 A 
ATOM     13  C   UNL d   1     -46.183  10.444  23.698  0.00  0.00     0.002 A 
ENDROOT
BRANCH   4  14
ATOM     14  C   UNL d   1     -49.358  11.990  23.039  0.00  0.00     0.041 A 
ATOM     15  C   UNL d   1     -49.821  12.115  23.698  0.00  0.00     0.004 A 
ATOM     16  C   UNL d   1     -50.648  12.156  23.618  0.00  0.00     0.000 A 
ATOM     17  C   UNL d   1     -50.996  12.070  22.868  0.00  0.00     0.000 A 
ATOM     18  C   UNL d   1     -50.512  11.944  22.207  0.00  0.00     0.000 A 
ATOM     19  C   UNL d   1     -49.694  11.903  22.289  0.00  0.00     0.004 A 
ENDBRANCH   4  14
BRANCH   5  20
ATOM     20  C   UNL d   1     -47.524  14.632  22.560  0.00  0.00     0.049 A 
ATOM     21  S   UNL d   1     -46.837  15.082  22.567  0.00  0.00    -0.085 SA
ATOM     22  C   UNL d   1     -47.032  15.849  22.341  0.00  0.00     0.035 A 
ATOM     23  C   UNL d   1     -47.847  15.876  22.193  0.00  0.00     0.007 A 
ATOM     24  C   UNL d   1     -48.155  15.130  22.326  0.00  0.00     0.009 A 
ENDBRANCH   5  20
TORSDOF 2
ENDMDL
MODEL 4
REMARK VINA RESULT:      -5.3      9.156     10.212
REMARK  2 active torsions:
REMARK  status: ('A' for Active; 'I' for Inactive)
REMARK    1  A    between atoms: C_12  and  C_4 
REMARK    2  A    between atoms: C_10  and  C_5 
ROOT
ATOM      1  N   UNL d   1     -39.581  14.132  18.504  0.00  0.00    -0.208 N 
ATOM      2  N   UNL d   1     -39.146  13.939  19.181  0.00  0.00    -0.163 NA
ATOM      3  C   UNL d   1     -40.119  14.725  18.707  0.00  0.00     0.088 A 
ATOM      4  C   UNL d   1     -39.552  13.843  17.738  0.00  0.00     0.183 A 
ATOM      5  C   UNL d   1     -39.413  14.410  19.801  0.00  0.00     0.109 A 
ATOM      6  O   UNL d   1     -40.062  14.146  17.168  0.00  0.00    -0.289 OA
ATOM      7  C   UNL d   1     -40.014  14.897  19.512  0.00  0.00     0.041 A 
ATOM      8  C   UNL d   1     -40.625  15.026  18.142  0.00  0.00     0.041 A 
ATOM      9  C   UNL d   1     -40.601  14.738  17.367  0.00  0.00     0.103 A 
ATOM     10  C   UNL d   1     -41.163  15.618  18.340  0.00  0.00     0.004 A 
ATOM     11  C   UNL d   1     -41.110  15.041  16.797  0.00  0.00     0.025 A 
ATOM     12  C   UNL d   1     -41.673  15.921  17.772  0.00  0.00     0.000 A 
ATOM     13  C   UNL d   1     -41.647  15.632  16.997  0.00  0.00     0.002 A 
ENDROOT
BRANCH   4  14
ATOM     14  C   UNL d   1     -39.013  13.250  17.537  0.00  0.00     0.041 A 
ATOM     15  C   UNL d   1     -38.495  13.373  16.921  0.00  0.00     0.004 A 
ATOM     16  C   UNL d   1     -37.950  12.778  16.716  0.00  0.00     0.000 A 
ATOM     17  C   UNL d   1     -37.940  12.064  17.140  0.00  0.00     0.000 A 
ATOM     18  C   UNL d   1     -38.473  11.953  17.765  0.00  0.00     0.000 A 
ATOM     19  C   UNL d   1     -39.010  12.543  17.965  0.00  0.00     0.004 A 
ENDBRANCH   4  14
BRANCH   5  20
ATOM     20  C   UNL d   1     -39.134  14.402  20.575  0.00  0.00     0.049 A 
ATOM     21  S   UNL d   1     -38.431  14.734  20.840  0.00  0.00    -0.085 SA
ATOM     22  C   UNL d   1     -38.373  14.597  21.650  0.00  0.00     0.035 A 
ATOM     23  C   UNL d   1     -39.045  14.176  21.890  0.00  0.00     0.007 A 
ATOM     24  C   UNL d   1     -39.518  14.053  21.233  0.00  0.00     0.009 A 
ENDBRANCH   5  20
TORSDOF 2
ENDMDL
MODEL 5
REMARK VINA RESULT:      -5.0      1.657      3.258
REMARK  2 active torsions:
REMARK  status: ('A' for Active; 'I' for Inactive)
REMARK    1  A    between atoms: C_12  and  C_4 
REMARK    2  A    between atoms: C_10  and  C_5 
ROOT
ATOM      1  N   UNL d   1     -48.726  13.552  23.013  0.00  0.00    -0.208 N 
ATOM      2  N   UNL d   1     -49.409  13.117  23.185  0.00  0.00    -0.163 NA
ATOM      3  C   UNL d   1     -48.090  13.026  22.985  0.00  0.00     0.088 A 
ATOM      4  C   UNL d   1     -48.609  14.352  22.881  0.00  0.00     0.183 A 
ATOM      5  C   UNL d   1     -49.197  12.326  23.263  0.00  0.00     0.109 A 
ATOM      6  O   UNL d   1     -47.852  14.632  22.719  0.00  0.00    -0.289 OA
ATOM      7  C   UNL d   1     -48.384  12.266  23.140  0.00  0.00     0.041 A 
ATOM      8  C   UNL d   1     -47.339  13.303  22.824  0.00  0.00     0.041 A 
ATOM      9  C   UNL d   1     -47.214  14.110  22.690  0.00  0.00     0.103 A 
ATOM     10  C   UNL d   1     -46.702  12.781  22.795  0.00  0.00     0.004 A 
ATOM     11  C   UNL d   1     -46.459  14.390  22.528  0.00  0.00     0.025 A 
ATOM     12  C   UNL d   1     -45.946  13.060  22.633  0.00  0.00     0.000 A 
ATOM     13  C   UNL d   1     -45.823  13.868  22.499  0.00  0.00     0.002 A 
ENDROOT
BRANCH   4  14
ATOM     14  C   UNL d   1     -49.246  14.876  22.910  0.00  0.00     0.041 A 
ATOM     15  C   UNL d   1     -49.392  15.290  23.596  0.00  0.00     0.004 A 
ATOM     16  C   UNL d   1     -50.034  15.819  23.629  0.00  0.00     0.000 A 
ATOM     17  C   UNL d   1     -50.520  15.922  22.963  0.00  0.00     0.000 A 
ATOM     18  C   UNL d   1     -50.358  15.493  22.272  0.00  0.00     0.000 A 
ATOM     19  C   UNL d   1     -49.724  14.971  22.242  0.00  0.00     0.004 A 
ENDBRANCH   4  14
BRANCH   5  20
ATOM     20  C   UNL d   1     -49.704  11.700  23.433  0.00  0.00     0.049 A 
ATOM     21  S   UNL d   1     -50.518  11.749  23.531  0.00  0.00    -0.085 SA
ATOM     22  C   UNL d   1     -50.801  10.993  23.694  0.00  0.00     0.035 A 
ATOM     23  C   UNL d   1     -50.158  10.471  23.698  0.00  0.00     0.007 A 
ATOM     24  C   UNL d   1     -49.480  10.900  23.538  0.00  0.00     0.009 A 
ENDBRANCH   5  20
TORSDOF 2
ENDMDL
MODEL 6
REMARK VINA RESULT:      -5.0      1.991      3.375
REMARK  2 active torsions:
REMARK  status: ('A' for Active; 'I' for Inactive)
REMARK    1  A    between atoms: C_12  and  C_4 
REMARK    2  A    between atoms: C_10  and  C_5 
ROOT
ATOM      1  N   UNL d   1     -48.397  13.395  23.068  0.00  0.00    -0.208 N 
ATOM      2  N   UNL d   1     -48.641  14.179  22.964  0.00  0.00    -0.163 NA
ATOM      3  C   UNL d   1     -49.064  12.942  23.250  0.00  0.00     0.088 A 
ATOM      4  C   UNL d   1     -47.658  13.044  23.021  0.00  0.00     0.183 A 
ATOM      5  C   UNL d   1     -49.455  14.212  23.080  0.00  0.00     0.109 A 
ATOM      6  O   UNL d   1     -47.582  12.236  23.155  0.00  0.00    -0.289 OA
ATOM      7  C   UNL d   1     -49.719  13.451  23.256  0.00  0.00     0.041 A 
ATOM      8  C   UNL d   1     -48.988  12.141  23.383  0.00  0.00     0.041 A 
ATOM      9  C   UNL d   1     -48.244  11.781  23.336  0.00  0.00     0.103 A 
ATOM     10  C   UNL d   1     -49.651  11.686  23.564  0.00  0.00     0.004 A 
ATOM     11  C   UNL d   1     -48.167  10.974  23.470  0.00  0.00     0.025 A 
ATOM     12  C   UNL d   1     -49.575  10.879  23.698  0.00  0.00     0.000 A 
ATOM     13  C   UNL d   1     -48.830  10.521  23.651  0.00  0.00     0.002 A 
ENDROOT
BRANCH   4  14
ATOM     14  C   UNL d   1     -46.993  13.499  22.840  0.00  0.00     0.041 A 
ATOM     15  C   UNL d   1     -46.591  13.875  23.440  0.00  0.00     0.004 A 
ATOM     16  C   UNL d   1     -45.920  14.334  23.261  0.00  0.00     0.000 A 
ATOM     17  C   UNL d   1     -45.665  14.405  22.473  0.00  0.00     0.000 A 
ATOM     18  C   UNL d   1     -46.085  14.016  21.873  0.00  0.00     0.000 A 
ATOM     19  C   UNL d   1     -46.748  13.563  22.054  0.00  0.00     0.004 A 
ENDBRANCH   4  14
BRANCH   5  20
ATOM     20  C   UNL d   1     -49.928  14.884  23.030  0.00  0.00     0.049 A 
ATOM     21  S   UNL d   1     -50.269  15.285  23.661  0.00  0.00    -0.085 SA
ATOM     22  C   UNL d   1     -50.695  15.922  23.358  0.00  0.00     0.035 A 
ATOM     23  C   UNL d   1     -50.618  15.916  22.534  0.00  0.00     0.007 A 
ATOM     24  C   UNL d   1     -50.147  15.280  22.325  0.00  0.00     0.009 A 
ENDBRANCH   5  20
TORSDOF 2
ENDMDL
MODEL 7
REMARK VINA RESULT:      -4.9      7.675      9.602
REMARK  2 active torsions:
REMARK  status: ('A' for Active; 'I' for Inactive)
REMARK    1  A    between atoms: C_12  and  C_4 
REMARK    2  A    between atoms: C_10  and  C_5 
ROOT
ATOM      1  N   UNL d   1     -39.539  14.309  20.505  0.00  0.00    -0.208 N 
ATOM      2  N   UNL d   1     -39.471  14.202  21.323  0.00  0.00    -0.163 NA
ATOM      3  C   UNL d   1     -38.836  14.053  20.155  0.00  0.00     0.088 A 
ATOM      4  C   UNL d   1     -40.148  14.604  20.044  0.00  0.00     0.183 A 
ATOM      5  C   UNL d   1     -38.729  13.882  21.479  0.00  0.00     0.109 A 
ATOM      6  O   UNL d   1     -40.057  14.645  19.227  0.00  0.00    -0.289 OA
ATOM      7  C   UNL d   1     -38.334  13.788  20.761  0.00  0.00     0.041 A 
ATOM      8  C   UNL d   1     -38.745  14.093  19.345  0.00  0.00     0.041 A 
ATOM      9  C   UNL d   1     -39.357  14.391  18.874  0.00  0.00     0.103 A 
ATOM     10  C   UNL d   1     -38.046  13.839  18.993  0.00  0.00     0.004 A 
ATOM     11  C   UNL d   1     -39.267  14.432  18.058  0.00  0.00     0.025 A 
ATOM     12  C   UNL d   1     -37.955  13.880  18.177  0.00  0.00     0.000 A 
ATOM     13  C   UNL d   1     -38.568  14.177  17.707  0.00  0.00     0.002 A 
ENDROOT
BRANCH   4  14
ATOM     14  C   UNL d   1     -40.850  14.860  20.395  0.00  0.00     0.041 A 
ATOM     15  C   UNL d   1     -41.405  14.309  20.626  0.00  0.00     0.004 A 
ATOM     16  C   UNL d   1     -42.113  14.563  20.981  0.00  0.00     0.000 A 
ATOM     17  C   UNL d   1     -42.250  15.374  21.097  0.00  0.00     0.000 A 
ATOM     18  C   UNL d   1     -41.677  15.922  20.857  0.00  0.00     0.000 A 
ATOM     19  C   UNL d   1     -40.977  15.668  20.507  0.00  0.00     0.004 A 
ENDBRANCH   4  14
BRANCH   5  20
ATOM     20  C   UNL d   1     -38.428  13.687  22.220  0.00  0.00     0.049 A 
ATOM     21  S   UNL d   1     -38.284  14.210  22.837  0.00  0.00    -0.085 SA
ATOM     22  C   UNL d   1     -37.985  13.779  23.473  0.00  0.00     0.035 A 
ATOM     23  C   UNL d   1     -37.945  12.983  23.249  0.00  0.00     0.007 A 
ATOM     24  C   UNL d   1     -38.216  12.920  22.479  0.00  0.00     0.009 A 
ENDBRANCH   5  20
TORSDOF 2
ENDMDL
MODEL 8
REMARK VINA RESULT:      -4.4      7.502      9.480
REMARK  2 active torsions:
REMARK  status: ('A' for Active; 'I' for Inactive)
REMARK    1  A    between atoms: C_12  and  C_4 
REMARK    2  A    between atoms: C_10  and  C_5 
ROOT
ATOM      1  N   UNL d   1     -40.271  14.747  20.164  0.00  0.00    -0.208 N 
ATOM      2  N   UNL d   1     -40.587  14.618  19.410  0.00  0.00    -0.163 NA
ATOM      3  C   UNL d   1     -39.547  15.134  20.073  0.00  0.00     0.088 A 
ATOM      4  C   UNL d   1     -40.551  14.561  20.911  0.00  0.00     0.183 A 
ATOM      5  C   UNL d   1     -40.062  14.924  18.855  0.00  0.00     0.109 A 
ATOM      6  O   UNL d   1     -40.107  14.762  21.574  0.00  0.00    -0.289 OA
ATOM      7  C   UNL d   1     -39.419  15.243  19.260  0.00  0.00     0.041 A 
ATOM      8  C   UNL d   1     -39.106  15.334  20.730  0.00  0.00     0.041 A 
ATOM      9  C   UNL d   1     -39.384  15.149  21.487  0.00  0.00     0.103 A 
ATOM     10  C   UNL d   1     -38.383  15.720  20.644  0.00  0.00     0.004 A 
ATOM     11  C   UNL d   1     -38.941  15.349  22.150  0.00  0.00     0.025 A 
ATOM     12  C   UNL d   1     -37.940  15.921  21.306  0.00  0.00     0.000 A 
ATOM     13  C   UNL d   1     -38.219  15.735  22.062  0.00  0.00     0.002 A 
ENDROOT
BRANCH   4  14
ATOM     14  C   UNL d   1     -41.275  14.175  20.999  0.00  0.00     0.041 A 
ATOM     15  C   UNL d   1     -41.293  13.360  21.018  0.00  0.00     0.004 A 
ATOM     16  C   UNL d   1     -42.021  12.966  21.107  0.00  0.00     0.000 A 
ATOM     17  C   UNL d   1     -42.723  13.406  21.175  0.00  0.00     0.000 A 
ATOM     18  C   UNL d   1     -42.688  14.234  21.154  0.00  0.00     0.000 A 
ATOM     19  C   UNL d   1     -41.967  14.620  21.066  0.00  0.00     0.004 A 
ENDBRANCH   4  14
BRANCH   5  20
ATOM     20  C   UNL d   1     -40.157  14.915  18.037  0.00  0.00     0.049 A 
ATOM     21  S   UNL d   1     -40.622  15.431  17.598  0.00  0.00    -0.085 SA
ATOM     22  C   UNL d   1     -40.555  15.222  16.804  0.00  0.00     0.035 A 
ATOM     23  C   UNL d   1     -40.044  14.572  16.750  0.00  0.00     0.007 A 
ATOM     24  C   UNL d   1     -39.796  14.378  17.505  0.00  0.00     0.009 A 
ENDBRANCH   5  20
TORSDOF 2
ENDMDL
MODEL 9
REMARK VINA RESULT:      -4.3      8.070      9.694
REMARK  2 active torsions:
REMARK  status: ('A' for Active; 'I' for Inactive)
REMARK    1  A    between atoms: C_12  and  C_4 
REMARK    2  A    between atoms: C_10  and  C_5 
ROOT
ATOM      1  N   UNL d   1     -39.535  14.341  20.149  0.00  0.00    -0.208 N 
ATOM      2  N   UNL d   1     -38.942  13.946  19.729  0.00  0.00    -0.163 NA
ATOM      3  C   UNL d   1     -40.073  14.648  19.602  0.00  0.00     0.088 A 
ATOM      4  C   UNL d   1     -39.648  14.457  20.952  0.00  0.00     0.183 A 
ATOM      5  C   UNL d   1     -39.111  14.007  18.926  0.00  0.00     0.109 A 
ATOM      6  O   UNL d   1     -40.303  14.882  21.214  0.00  0.00    -0.289 OA
ATOM      7  C   UNL d   1     -39.808  14.440  18.844  0.00  0.00     0.041 A 
ATOM      8  C   UNL d   1     -40.721  15.070  19.862  0.00  0.00     0.041 A 
ATOM      9  C   UNL d   1     -40.841  15.190  20.672  0.00  0.00     0.103 A 
ATOM     10  C   UNL d   1     -41.260  15.378  19.319  0.00  0.00     0.004 A 
ATOM     11  C   UNL d   1     -41.495  15.615  20.934  0.00  0.00     0.025 A 
ATOM     12  C   UNL d   1     -41.914  15.803  19.581  0.00  0.00     0.000 A 
ATOM     13  C   UNL d   1     -42.032  15.922  20.391  0.00  0.00     0.002 A 
ENDROOT
BRANCH   4  14
ATOM     14  C   UNL d   1     -39.110  14.149  21.497  0.00  0.00     0.041 A 
ATOM     15  C   UNL d   1     -39.214  13.391  21.777  0.00  0.00     0.004 A 
ATOM     16  C   UNL d   1     -38.673  13.077  22.326  0.00  0.00     0.000 A 
ATOM     17  C   UNL d   1     -38.032  13.538  22.584  0.00  0.00     0.000 A 
ATOM     18  C   UNL d   1     -37.939  14.308  22.291  0.00  0.00     0.000 A 
ATOM     19  C   UNL d   1     -38.476  14.615  21.748  0.00  0.00     0.004 A 
ENDBRANCH   4  14
BRANCH   5  20
ATOM     20  C   UNL d   1     -38.666  13.694  18.309  0.00  0.00     0.049 A 
ATOM     21  S   UNL d   1     -38.431  14.092  17.630  0.00  0.00    -0.085 SA
ATOM     22  C   UNL d   1     -37.997  13.570  17.164  0.00  0.00     0.035 A 
ATOM     23  C   UNL d   1     -37.963  12.841  17.556  0.00  0.00     0.007 A 
ATOM     24  C   UNL d   1     -38.372  12.911  18.261  0.00  0.00     0.009 A 
ENDBRANCH   5  20
TORSDOF 2
ENDMDL
