MODEL 1
REMARK VINA RESULT:      77.4      0.000      0.000
REMARK  2 active torsions:
REMARK  status: ('A' for Active; 'I' for Inactive)
REMARK    1  A    between atoms: C_6  and  C_2 
REMARK    2  A    between atoms: C_7  and  C_3 
ROOT
ATOM      1  N   UNL d   1      56.580  48.778  51.268  0.00  0.00    -0.243 NA
ATOM      2  C   UNL d   1      57.110  48.690  50.644  0.00  0.00     0.104 A 
ATOM      3  C   UNL d   1      58.364  49.254  51.197  0.00  0.00     0.033 A 
ATOM      4  S   UNL d   1      58.141  49.479  51.955  0.00  0.00    -0.085 SA
ATOM      5  C   UNL d   1      57.916  48.911  50.628  0.00  0.00     0.028 A 
ATOM      6  C   UNL d   1      56.718  49.102  52.016  0.00  0.00     0.087 A 
ATOM      7  C   UNL d   1      57.418  49.416  52.324  0.00  0.00     0.047 A 
ATOM      8  C   UNL d   1      56.035  49.080  52.465  0.00  0.00     0.020 A 
ATOM      9  C   UNL d   1      57.427  49.705  53.078  0.00  0.00     0.008 A 
ATOM     10  C   UNL d   1      56.746  49.695  53.557  0.00  0.00     0.001 A 
ATOM     11  C   UNL d   1      56.049  49.382  53.251  0.00  0.00     0.002 A 
ENDROOT
BRANCH   3  12
ATOM     12  C   UNL d   1      59.151  49.401  50.998  0.00  0.00     0.034 A 
ATOM     13  C   UNL d   1      59.367  49.514  50.195  0.00  0.00     0.141 A 
ATOM     14  F   UNL d   1      58.792  49.479  49.612  0.00  0.00    -0.204 F 
ATOM     15  C   UNL d   1      60.148  49.659  50.002  0.00  0.00     0.030 A 
ATOM     16  C   UNL d   1      60.711  49.693  50.581  0.00  0.00     0.002 A 
ATOM     17  C   UNL d   1      60.522  49.584  51.386  0.00  0.00     0.000 A 
ATOM     18  C   UNL d   1      59.735  49.437  51.585  0.00  0.00     0.003 A 
ENDBRANCH   3  12
BRANCH   2  19
ATOM     19  C   UNL d   1      56.800  48.344  49.963  0.00  0.00     0.118 A 
ATOM     20  O   UNL d   1      56.274  48.691  49.430  0.00  0.00    -0.304 OA
ATOM     21  C   UNL d   1      56.118  48.135  48.833  0.00  0.00     0.123 A 
ATOM     22  C   UNL d   1      56.544  47.445  48.995  0.00  0.00     0.029 A 
ATOM     23  C   UNL d   1      56.964  47.575  49.692  0.00  0.00     0.028 A 
ENDBRANCH   2  19
TORSDOF 2
ENDMDL
