MODEL 1
REMARK VINA RESULT:      -2.3      0.000      0.000
REMARK  4 active torsions:
REMARK  status: ('A' for Active; 'I' for Inactive)
REMARK    1  A    between atoms: C_2  and  C_1 
REMARK    2  A    between atoms: C_6  and  C_2 
REMARK    3  A    between atoms: C_9  and  C_6 
REMARK    4  A    between atoms: O_18  and  C_12 
ROOT
ATOM      1  C   UNL d   1      32.619  18.650 -23.081  0.00  0.00     0.199 C 
ATOM      2  O   UNL d   1      31.910  18.987 -23.016  0.00  0.00    -0.286 OA
ENDROOT
BRANCH   1   3
ATOM      3  C   UNL d   1      32.612  17.860 -23.527  0.00  0.00     0.078 A 
ATOM      4  C   UNL d   1      32.283  17.865 -24.284  0.00  0.00     0.202 A 
ATOM      5  C   UNL d   1      32.267  17.110 -24.736  0.00  0.00     0.084 A 
ATOM      6  O   UNL d   1      31.979  18.557 -24.607  0.00  0.00    -0.286 OA
ATOM      7  C   UNL d   1      32.583  16.406 -24.392  0.00  0.00     0.199 A 
ATOM      8  C   UNL d   1      32.902  16.434 -23.640  0.00  0.00     0.042 A 
ATOM      9  O   UNL d   1      32.559  15.680 -24.844  0.00  0.00    -0.286 OA
ATOM     10  C   UNL d   1      32.921  17.172 -23.191  0.00  0.00     0.010 A 
ENDBRANCH   1   3
BRANCH   1  11
ATOM     11  C   UNL d   1      33.241  18.912 -22.822  0.00  0.00     0.042 C 
BRANCH  11  12
ATOM     12  C   UNL d   1      33.229  19.584 -22.381  0.00  0.00     0.003 A 
ATOM     13  C   UNL d   1      33.210  19.543 -21.580  0.00  0.00     0.002 A 
ATOM     14  C   UNL d   1      33.197  20.247 -21.114  0.00  0.00     0.024 A 
ATOM     15  C   UNL d   1      33.205  20.989 -21.464  0.00  0.00     0.094 A 
ATOM     16  C   UNL d   1      33.226  21.035 -22.273  0.00  0.00     0.024 A 
ATOM     17  C   UNL d   1      33.238  20.361 -22.740  0.00  0.00     0.002 A 
BRANCH  15  18
ATOM     18  O   UNL d   1      33.193  21.703 -20.995  0.00  0.00    -0.328 OA
ATOM     19  C   UNL d   1      32.494  22.119 -20.883  0.00  0.00     0.181 C 
ENDBRANCH  15  18
ENDBRANCH  11  12
ENDBRANCH   1  11
TORSDOF 4
ENDMDL
MODEL 2
REMARK VINA RESULT:      -2.3      2.836      3.927
REMARK  4 active torsions:
REMARK  status: ('A' for Active; 'I' for Inactive)
REMARK    1  A    between atoms: C_2  and  C_1 
REMARK    2  A    between atoms: C_6  and  C_2 
REMARK    3  A    between atoms: C_9  and  C_6 
REMARK    4  A    between atoms: O_18  and  C_12 
ROOT
ATOM      1  C   UNL d   1      30.084  17.265 -24.482  0.00  0.00     0.199 C 
ATOM      2  O   UNL d   1      29.893  17.899 -24.910  0.00  0.00    -0.286 OA
ENDROOT
BRANCH   1   3
ATOM      3  C   UNL d   1      29.371  16.776 -24.210  0.00  0.00     0.078 A 
ATOM      4  C   UNL d   1      28.710  17.196 -23.951  0.00  0.00     0.202 A 
ATOM      5  C   UNL d   1      28.005  16.741 -23.682  0.00  0.00     0.084 A 
ATOM      6  O   UNL d   1      28.708  18.018 -23.944  0.00  0.00    -0.286 OA
ATOM      7  C   UNL d   1      28.020  15.896 -23.694  0.00  0.00     0.199 A 
ATOM      8  C   UNL d   1      28.690  15.509 -23.956  0.00  0.00     0.042 A 
ATOM      9  O   UNL d   1      27.328  15.469 -23.430  0.00  0.00    -0.286 OA
ATOM     10  C   UNL d   1      29.385  15.950 -24.222  0.00  0.00     0.010 A 
ENDBRANCH   1   3
BRANCH   1  11
ATOM     11  C   UNL d   1      30.753  17.058 -24.301  0.00  0.00     0.042 C 
BRANCH  11  12
ATOM     12  C   UNL d   1      31.352  17.593 -24.342  0.00  0.00     0.003 A 
ATOM     13  C   UNL d   1      31.605  17.866 -25.052  0.00  0.00     0.002 A 
ATOM     14  C   UNL d   1      32.234  18.427 -25.097  0.00  0.00     0.024 A 
ATOM     15  C   UNL d   1      32.604  18.708 -24.421  0.00  0.00     0.094 A 
ATOM     16  C   UNL d   1      32.352  18.434 -23.700  0.00  0.00     0.024 A 
ATOM     17  C   UNL d   1      31.742  17.889 -23.639  0.00  0.00     0.002 A 
BRANCH  15  18
ATOM     18  O   UNL d   1      33.241  19.275 -24.463  0.00  0.00    -0.328 OA
ATOM     19  C   UNL d   1      33.158  19.967 -24.897  0.00  0.00     0.181 C 
ENDBRANCH  15  18
ENDBRANCH  11  12
ENDBRANCH   1  11
TORSDOF 4
ENDMDL
MODEL 3
REMARK VINA RESULT:      -2.1      3.900      5.428
REMARK  4 active torsions:
REMARK  status: ('A' for Active; 'I' for Inactive)
REMARK    1  A    between atoms: C_2  and  C_1 
REMARK    2  A    between atoms: C_6  and  C_2 
REMARK    3  A    between atoms: C_9  and  C_6 
REMARK    4  A    between atoms: O_18  and  C_12 
ROOT
ATOM      1  C   UNL d   1      32.784  22.675 -20.209  0.00  0.00     0.199 C 
ATOM      2  O   UNL d   1      32.490  21.986 -19.966  0.00  0.00    -0.286 OA
ENDROOT
BRANCH   1   3
ATOM      3  C   UNL d   1      32.861  22.746 -21.110  0.00  0.00     0.078 A 
ATOM      4  C   UNL d   1      32.982  22.045 -21.528  0.00  0.00     0.202 A 
ATOM      5  C   UNL d   1      33.059  22.090 -22.404  0.00  0.00     0.084 A 
ATOM      6  O   UNL d   1      33.029  21.324 -21.137  0.00  0.00    -0.286 OA
ATOM      7  C   UNL d   1      33.008  22.838 -22.794  0.00  0.00     0.199 A 
ATOM      8  C   UNL d   1      32.888  23.515 -22.351  0.00  0.00     0.042 A 
ATOM      9  O   UNL d   1      33.085  22.866 -23.645  0.00  0.00    -0.286 OA
ATOM     10  C   UNL d   1      32.811  23.477 -21.491  0.00  0.00     0.010 A 
ENDBRANCH   1   3
BRANCH   1  11
ATOM     11  C   UNL d   1      32.986  23.226 -19.786  0.00  0.00     0.042 C 
BRANCH  11  12
ATOM     12  C   UNL d   1      32.876  23.170 -18.992  0.00  0.00     0.003 A 
ATOM     13  C   UNL d   1      32.415  23.702 -18.608  0.00  0.00     0.002 A 
ATOM     14  C   UNL d   1      32.299  23.646 -17.774  0.00  0.00     0.024 A 
ATOM     15  C   UNL d   1      32.650  23.050 -17.333  0.00  0.00     0.094 A 
ATOM     16  C   UNL d   1      33.117  22.510 -17.717  0.00  0.00     0.024 A 
ATOM     17  C   UNL d   1      33.241  22.550 -18.527  0.00  0.00     0.002 A 
BRANCH  15  18
ATOM     18  O   UNL d   1      32.534  22.991 -16.489  0.00  0.00    -0.328 OA
ATOM     19  C   UNL d   1      33.155  23.127 -15.970  0.00  0.00     0.181 C 
ENDBRANCH  15  18
ENDBRANCH  11  12
ENDBRANCH   1  11
TORSDOF 4
ENDMDL
MODEL 4
REMARK VINA RESULT:      -2.0      1.509      2.647
REMARK  4 active torsions:
REMARK  status: ('A' for Active; 'I' for Inactive)
REMARK    1  A    between atoms: C_2  and  C_1 
REMARK    2  A    between atoms: C_6  and  C_2 
REMARK    3  A    between atoms: C_9  and  C_6 
REMARK    4  A    between atoms: O_18  and  C_12 
ROOT
ATOM      1  C   UNL d   1      32.903  20.678 -21.922  0.00  0.00     0.199 C 
ATOM      2  O   UNL d   1      32.488  20.360 -21.332  0.00  0.00    -0.286 OA
ENDROOT
BRANCH   1   3
ATOM      3  C   UNL d   1      32.994  20.136 -22.643  0.00  0.00     0.078 A 
ATOM      4  C   UNL d   1      32.947  19.323 -22.504  0.00  0.00     0.202 A 
ATOM      5  C   UNL d   1      33.033  18.778 -23.190  0.00  0.00     0.084 A 
ATOM      6  O   UNL d   1      32.823  19.032 -21.746  0.00  0.00    -0.286 OA
ATOM      7  C   UNL d   1      33.159  19.091 -23.964  0.00  0.00     0.199 A 
ATOM      8  C   UNL d   1      33.201  19.900 -24.069  0.00  0.00     0.042 A 
ATOM      9  O   UNL d   1      33.240  18.548 -24.620  0.00  0.00    -0.286 OA
ATOM     10  C   UNL d   1      33.118  20.441 -23.399  0.00  0.00     0.010 A 
ENDBRANCH   1   3
BRANCH   1  11
ATOM     11  C   UNL d   1      33.201  21.337 -21.927  0.00  0.00     0.042 C 
BRANCH  11  12
ATOM     12  C   UNL d   1      32.984  21.869 -21.365  0.00  0.00     0.003 A 
ATOM     13  C   UNL d   1      33.226  21.779 -20.606  0.00  0.00     0.002 A 
ATOM     14  C   UNL d   1      33.000  22.337 -20.014  0.00  0.00     0.024 A 
ATOM     15  C   UNL d   1      32.528  22.983 -20.195  0.00  0.00     0.094 A 
ATOM     16  C   UNL d   1      32.281  23.078 -20.961  0.00  0.00     0.024 A 
ATOM     17  C   UNL d   1      32.492  22.546 -21.548  0.00  0.00     0.002 A 
BRANCH  15  18
ATOM     18  O   UNL d   1      32.298  23.549 -19.598  0.00  0.00    -0.328 OA
ATOM     19  C   UNL d   1      32.488  23.426 -18.809  0.00  0.00     0.181 C 
ENDBRANCH  15  18
ENDBRANCH  11  12
ENDBRANCH   1  11
TORSDOF 4
ENDMDL
MODEL 5
REMARK VINA RESULT:      -1.9      0.988      1.725
REMARK  4 active torsions:
REMARK  status: ('A' for Active; 'I' for Inactive)
REMARK    1  A    between atoms: C_2  and  C_1 
REMARK    2  A    between atoms: C_6  and  C_2 
REMARK    3  A    between atoms: C_9  and  C_6 
REMARK    4  A    between atoms: O_18  and  C_12 
ROOT
ATOM      1  C   UNL d   1      32.865  19.590 -22.438  0.00  0.00     0.199 C 
ATOM      2  O   UNL d   1      32.395  19.342 -21.857  0.00  0.00    -0.286 OA
ENDROOT
BRANCH   1   3
ATOM      3  C   UNL d   1      32.912  19.020 -23.142  0.00  0.00     0.078 A 
ATOM      4  C   UNL d   1      33.103  18.236 -22.972  0.00  0.00     0.202 A 
ATOM      5  C   UNL d   1      33.154  17.665 -23.640  0.00  0.00     0.084 A 
ATOM      6  O   UNL d   1      33.241  17.994 -22.199  0.00  0.00    -0.286 OA
ATOM      7  C   UNL d   1      33.010  17.927 -24.431  0.00  0.00     0.199 A 
ATOM      8  C   UNL d   1      32.823  18.711 -24.566  0.00  0.00     0.042 A 
ATOM      9  O   UNL d   1      33.064  17.361 -25.069  0.00  0.00    -0.286 OA
ATOM     10  C   UNL d   1      32.771  19.276 -23.914  0.00  0.00     0.010 A 
ENDBRANCH   1   3
BRANCH   1  11
ATOM     11  C   UNL d   1      33.241  20.208 -22.449  0.00  0.00     0.042 C 
BRANCH  11  12
ATOM     12  C   UNL d   1      33.075  20.777 -21.906  0.00  0.00     0.003 A 
ATOM     13  C   UNL d   1      32.746  21.472 -22.135  0.00  0.00     0.002 A 
ATOM     14  C   UNL d   1      32.571  22.071 -21.567  0.00  0.00     0.024 A 
ATOM     15  C   UNL d   1      32.730  21.962 -20.770  0.00  0.00     0.094 A 
ATOM     16  C   UNL d   1      33.062  21.261 -20.534  0.00  0.00     0.024 A 
ATOM     17  C   UNL d   1      33.239  20.669 -21.073  0.00  0.00     0.002 A 
BRANCH  15  18
ATOM     18  O   UNL d   1      32.554  22.567 -20.192  0.00  0.00    -0.328 OA
ATOM     19  C   UNL d   1      32.154  23.250 -20.410  0.00  0.00     0.181 C 
ENDBRANCH  15  18
ENDBRANCH  11  12
ENDBRANCH   1  11
TORSDOF 4
ENDMDL
MODEL 6
REMARK VINA RESULT:      -1.2      1.564      2.296
REMARK  4 active torsions:
REMARK  status: ('A' for Active; 'I' for Inactive)
REMARK    1  A    between atoms: C_2  and  C_1 
REMARK    2  A    between atoms: C_6  and  C_2 
REMARK    3  A    between atoms: C_9  and  C_6 
REMARK    4  A    between atoms: O_18  and  C_12 
ROOT
ATOM      1  C   UNL d   1      31.957  17.464 -24.411  0.00  0.00     0.199 C 
ATOM      2  O   UNL d   1      32.128  17.814 -25.096  0.00  0.00    -0.286 OA
ENDROOT
BRANCH   1   3
ATOM      3  C   UNL d   1      31.207  16.955 -24.434  0.00  0.00     0.078 A 
ATOM      4  C   UNL d   1      31.311  16.149 -24.577  0.00  0.00     0.202 A 
ATOM      5  C   UNL d   1      30.596  15.635 -24.604  0.00  0.00     0.084 A 
ATOM      6  O   UNL d   1      32.061  15.833 -24.691  0.00  0.00    -0.286 OA
ATOM      7  C   UNL d   1      29.830  15.972 -24.484  0.00  0.00     0.199 A 
ATOM      8  C   UNL d   1      29.761  16.774 -24.345  0.00  0.00     0.042 A 
ATOM      9  O   UNL d   1      29.146  15.460 -24.513  0.00  0.00    -0.286 OA
ATOM     10  C   UNL d   1      30.459  17.283 -24.318  0.00  0.00     0.010 A 
ENDBRANCH   1   3
BRANCH   1  11
ATOM     11  C   UNL d   1      32.337  17.518 -23.798  0.00  0.00     0.042 C 
BRANCH  11  12
ATOM     12  C   UNL d   1      32.555  18.246 -23.535  0.00  0.00     0.003 A 
ATOM     13  C   UNL d   1      32.537  18.417 -22.752  0.00  0.00     0.002 A 
ATOM     14  C   UNL d   1      32.765  19.180 -22.473  0.00  0.00     0.024 A 
ATOM     15  C   UNL d   1      33.010  19.767 -22.991  0.00  0.00     0.094 A 
ATOM     16  C   UNL d   1      33.029  19.599 -23.784  0.00  0.00     0.024 A 
ATOM     17  C   UNL d   1      32.811  18.862 -24.071  0.00  0.00     0.002 A 
BRANCH  15  18
ATOM     18  O   UNL d   1      33.241  20.541 -22.712  0.00  0.00    -0.328 OA
ATOM     19  C   UNL d   1      32.857  20.889 -22.076  0.00  0.00     0.181 C 
ENDBRANCH  15  18
ENDBRANCH  11  12
ENDBRANCH   1  11
TORSDOF 4
ENDMDL
MODEL 7
REMARK VINA RESULT:      -1.1      2.956      4.955
REMARK  4 active torsions:
REMARK  status: ('A' for Active; 'I' for Inactive)
REMARK    1  A    between atoms: C_2  and  C_1 
REMARK    2  A    between atoms: C_6  and  C_2 
REMARK    3  A    between atoms: C_9  and  C_6 
REMARK    4  A    between atoms: O_18  and  C_12 
ROOT
ATOM      1  C   UNL d   1      30.805  16.871 -24.215  0.00  0.00     0.199 C 
ATOM      2  O   UNL d   1      30.781  16.239 -24.686  0.00  0.00    -0.286 OA
ENDROOT
BRANCH   1   3
ATOM      3  C   UNL d   1      31.430  17.484 -24.454  0.00  0.00     0.078 A 
ATOM      4  C   UNL d   1      32.217  17.290 -24.302  0.00  0.00     0.202 A 
ATOM      5  C   UNL d   1      32.840  17.870 -24.525  0.00  0.00     0.084 A 
ATOM      6  O   UNL d   1      32.414  16.573 -23.950  0.00  0.00    -0.286 OA
ATOM      7  C   UNL d   1      32.624  18.603 -24.885  0.00  0.00     0.199 A 
ATOM      8  C   UNL d   1      31.835  18.766 -25.023  0.00  0.00     0.042 A 
ATOM      9  O   UNL d   1      33.240  19.156 -25.096  0.00  0.00    -0.286 OA
ATOM     10  C   UNL d   1      31.218  18.200 -24.806  0.00  0.00     0.010 A 
ENDBRANCH   1   3
BRANCH   1  11
ATOM     11  C   UNL d   1      30.387  16.989 -23.638  0.00  0.00     0.042 C 
BRANCH  11  12
ATOM     12  C   UNL d   1      29.675  16.620 -23.588  0.00  0.00     0.003 A 
ATOM     13  C   UNL d   1      29.037  16.914 -23.976  0.00  0.00     0.002 A 
ATOM     14  C   UNL d   1      28.288  16.528 -23.925  0.00  0.00     0.024 A 
ATOM     15  C   UNL d   1      28.190  15.845 -23.480  0.00  0.00     0.094 A 
ATOM     16  C   UNL d   1      28.831  15.545 -23.086  0.00  0.00     0.024 A 
ATOM     17  C   UNL d   1      29.566  15.908 -23.125  0.00  0.00     0.002 A 
BRANCH  15  18
ATOM     18  O   UNL d   1      27.433  15.453 -23.427  0.00  0.00    -0.328 OA
ATOM     19  C   UNL d   1      26.757  15.871 -23.221  0.00  0.00     0.181 C 
ENDBRANCH  15  18
ENDBRANCH  11  12
ENDBRANCH   1  11
TORSDOF 4
ENDMDL
MODEL 8
REMARK VINA RESULT:      -1.0      1.706      4.294
REMARK  4 active torsions:
REMARK  status: ('A' for Active; 'I' for Inactive)
REMARK    1  A    between atoms: C_2  and  C_1 
REMARK    2  A    between atoms: C_6  and  C_2 
REMARK    3  A    between atoms: C_9  and  C_6 
REMARK    4  A    between atoms: O_18  and  C_12 
ROOT
ATOM      1  C   UNL d   1      32.719  18.618 -23.795  0.00  0.00     0.199 C 
ATOM      2  O   UNL d   1      32.773  18.513 -23.016  0.00  0.00    -0.286 OA
ENDROOT
BRANCH   1   3
ATOM      3  C   UNL d   1      32.854  19.474 -24.063  0.00  0.00     0.078 A 
ATOM      4  C   UNL d   1      32.964  20.035 -23.469  0.00  0.00     0.202 A 
ATOM      5  C   UNL d   1      33.097  20.873 -23.706  0.00  0.00     0.084 A 
ATOM      6  O   UNL d   1      32.950  19.818 -22.676  0.00  0.00    -0.286 OA
ATOM      7  C   UNL d   1      33.109  21.082 -24.524  0.00  0.00     0.199 A 
ATOM      8  C   UNL d   1      32.997  20.502 -25.089  0.00  0.00     0.042 A 
ATOM      9  O   UNL d   1      33.239  21.899 -24.738  0.00  0.00    -0.286 OA
ATOM     10  C   UNL d   1      32.866  19.678 -24.863  0.00  0.00     0.010 A 
ENDBRANCH   1   3
BRANCH   1  11
ATOM     11  C   UNL d   1      32.576  18.105 -24.285  0.00  0.00     0.042 C 
BRANCH  11  12
ATOM     12  C   UNL d   1      32.136  17.468 -24.069  0.00  0.00     0.003 A 
ATOM     13  C   UNL d   1      31.366  17.413 -24.289  0.00  0.00     0.002 A 
ATOM     14  C   UNL d   1      30.902  16.746 -24.063  0.00  0.00     0.024 A 
ATOM     15  C   UNL d   1      31.220  16.137 -23.615  0.00  0.00     0.094 A 
ATOM     16  C   UNL d   1      31.998  16.188 -23.390  0.00  0.00     0.024 A 
ATOM     17  C   UNL d   1      32.463  16.830 -23.602  0.00  0.00     0.002 A 
BRANCH  15  18
ATOM     18  O   UNL d   1      30.753  15.460 -23.385  0.00  0.00    -0.328 OA
ATOM     19  C   UNL d   1      30.123  15.543 -22.865  0.00  0.00     0.181 C 
ENDBRANCH  15  18
ENDBRANCH  11  12
ENDBRANCH   1  11
TORSDOF 4
ENDMDL
MODEL 9
REMARK VINA RESULT:      -0.4      1.555      1.823
REMARK  4 active torsions:
REMARK  status: ('A' for Active; 'I' for Inactive)
REMARK    1  A    between atoms: C_2  and  C_1 
REMARK    2  A    between atoms: C_6  and  C_2 
REMARK    3  A    between atoms: C_9  and  C_6 
REMARK    4  A    between atoms: O_18  and  C_12 
ROOT
ATOM      1  C   UNL d   1      32.432  18.548 -24.340  0.00  0.00     0.199 C 
ATOM      2  O   UNL d   1      31.905  18.838 -24.848  0.00  0.00    -0.286 OA
ENDROOT
BRANCH   1   3
ATOM      3  C   UNL d   1      32.196  17.750 -23.980  0.00  0.00     0.078 A 
ATOM      4  C   UNL d   1      31.539  17.374 -24.308  0.00  0.00     0.202 A 
ATOM      5  C   UNL d   1      31.291  16.598 -23.974  0.00  0.00     0.084 A 
ATOM      6  O   UNL d   1      31.125  17.717 -24.931  0.00  0.00    -0.286 OA
ATOM      7  C   UNL d   1      31.725  16.258 -23.333  0.00  0.00     0.199 A 
ATOM      8  C   UNL d   1      32.372  16.655 -23.030  0.00  0.00     0.042 A 
ATOM      9  O   UNL d   1      31.472  15.504 -23.020  0.00  0.00    -0.286 OA
ATOM     10  C   UNL d   1      32.620  17.417 -23.354  0.00  0.00     0.010 A 
ENDBRANCH   1   3
BRANCH   1  11
ATOM     11  C   UNL d   1      33.058  18.857 -24.151  0.00  0.00     0.042 C 
BRANCH  11  12
ATOM     12  C   UNL d   1      33.101  19.659 -24.106  0.00  0.00     0.003 A 
ATOM     13  C   UNL d   1      33.052  20.029 -23.396  0.00  0.00     0.002 A 
ATOM     14  C   UNL d   1      33.097  20.870 -23.347  0.00  0.00     0.024 A 
ATOM     15  C   UNL d   1      33.191  21.332 -24.018  0.00  0.00     0.094 A 
ATOM     16  C   UNL d   1      33.241  20.963 -24.738  0.00  0.00     0.024 A 
ATOM     17  C   UNL d   1      33.199  20.146 -24.803  0.00  0.00     0.002 A 
BRANCH  15  18
ATOM     18  O   UNL d   1      33.237  22.184 -23.971  0.00  0.00    -0.328 OA
ATOM     19  C   UNL d   1      32.871  22.590 -23.358  0.00  0.00     0.181 C 
ENDBRANCH  15  18
ENDBRANCH  11  12
ENDBRANCH   1  11
TORSDOF 4
ENDMDL
