MODEL 1
REMARK VINA RESULT:      -5.5      0.000      0.000
REMARK  6 active torsions:
REMARK  status: ('A' for Active; 'I' for Inactive)
REMARK    1  A    between atoms: S_2  and  C_1 
REMARK    2  A    between atoms: N_3  and  S_2 
REMARK    3  A    between atoms: C_17  and  N_3 
REMARK    4  A    between atoms: C_4  and  C_12 
REMARK    5  A    between atoms: O_20  and  C_4 
REMARK    6  A    between atoms: C_23  and  O_20 
ROOT
ATOM      1  S   UNL d   1      57.039  -0.129  31.835  0.00  0.00     0.153 S 
ATOM      2  O   UNL d   1      57.644  -0.507  32.211  0.00  0.00    -0.232 OA
ENDROOT
BRANCH   1   3
ATOM      3  C   UNL d   1      56.564  -0.296  32.336  0.00  0.00     0.108 A 
ATOM      4  C   UNL d   1      56.785   0.395  32.471  0.00  0.00     0.023 A 
ATOM      5  C   UNL d   1      56.365   0.672  33.169  0.00  0.00     0.024 A 
ATOM      6  C   UNL d   1      55.841   0.446  33.698  0.00  0.00     0.009 A 
ATOM      7  C   UNL d   1      56.519   0.156  32.665  0.00  0.00    -0.027 A 
ATOM      8  C   UNL d   1      55.588  -0.342  33.546  0.00  0.00     0.024 A 
ATOM      9  C   UNL d   1      55.913  -0.602  32.978  0.00  0.00     0.023 A 
ATOM     10  C   UNL d   1      55.746  -0.923  32.997  0.00  0.00    -0.027 A 
ATOM     11  C   UNL d   1      56.261  -0.701  32.478  0.00  0.00    -0.012 A 
ATOM     12  C   UNL d   1      56.679  -1.001  31.769  0.00  0.00    -0.013 A 
ENDBRANCH   1   3
BRANCH   1  13
ATOM     13  N   UNL d   1      57.179   0.256  31.109  0.00  0.00    -0.185 NA
BRANCH  13  14
ATOM     14  C   UNL d   1      57.913   0.151  30.717  0.00  0.00     0.091 A 
ATOM     15  C   UNL d   1      57.954  -0.373  30.049  0.00  0.00     0.020 A 
ATOM     16  C   UNL d   1      58.643  -0.471  29.681  0.00  0.00     0.007 A 
ATOM     17  C   UNL d   1      59.318  -0.073  29.938  0.00  0.00     0.064 A 
ATOM     18  C   UNL d   1      59.291   0.439  30.586  0.00  0.00     0.007 A 
ATOM     19  C   UNL d   1      58.576   0.541  30.968  0.00  0.00     0.020 A 
BRANCH  17  20
ATOM     20  C   UNL d   1      60.055  -0.189  29.531  0.00  0.00     0.300 C 
ATOM     21  O   UNL d   1      60.406   0.447  29.147  0.00  0.00    -0.259 OA
BRANCH  20  22
ATOM     22  O   UNL d   1      60.394  -0.937  29.535  0.00  0.00    -0.271 OA
BRANCH  22  23
ATOM     23  C   UNL d   1      60.898  -1.136  28.905  0.00  0.00     0.126 C 
ATOM     24  C   UNL d   1      61.123  -1.931  28.816  0.00  0.00     0.029 C 
ENDBRANCH  22  23
ENDBRANCH  20  22
ENDBRANCH  17  20
ENDBRANCH  13  14
ENDBRANCH   1  13
TORSDOF 6
ENDMDL
MODEL 2
REMARK VINA RESULT:      -5.2      0.824      1.272
REMARK  6 active torsions:
REMARK  status: ('A' for Active; 'I' for Inactive)
REMARK    1  A    between atoms: S_2  and  C_1 
REMARK    2  A    between atoms: N_3  and  S_2 
REMARK    3  A    between atoms: C_17  and  N_3 
REMARK    4  A    between atoms: C_4  and  C_12 
REMARK    5  A    between atoms: O_20  and  C_4 
REMARK    6  A    between atoms: C_23  and  O_20 
ROOT
ATOM      1  S   UNL d   1      56.712   0.124  32.333  0.00  0.00     0.153 S 
ATOM      2  O   UNL d   1      57.407  -0.169  32.616  0.00  0.00    -0.232 OA
ENDROOT
BRANCH   1   3
ATOM      3  C   UNL d   1      56.451   0.251  32.981  0.00  0.00     0.108 A 
ATOM      4  C   UNL d   1      55.967  -0.186  32.637  0.00  0.00     0.023 A 
ATOM      5  C   UNL d   1      55.316  -0.336  33.179  0.00  0.00     0.024 A 
ATOM      6  C   UNL d   1      55.069  -0.170  33.899  0.00  0.00     0.009 A 
ATOM      7  C   UNL d   1      55.964  -0.025  33.010  0.00  0.00    -0.027 A 
ATOM      8  C   UNL d   1      55.619   0.329  34.294  0.00  0.00     0.024 A 
ATOM      9  C   UNL d   1      56.168   0.473  33.877  0.00  0.00     0.023 A 
ATOM     10  C   UNL d   1      56.335   0.679  34.122  0.00  0.00    -0.027 A 
ATOM     11  C   UNL d   1      56.578   0.516  33.417  0.00  0.00    -0.012 A 
ATOM     12  C   UNL d   1      57.249   0.680  32.878  0.00  0.00    -0.013 A 
ENDBRANCH   1   3
BRANCH   1  13
ATOM     13  N   UNL d   1      56.583   0.162  31.510  0.00  0.00    -0.185 NA
BRANCH  13  14
ATOM     14  C   UNL d   1      57.223   0.044  30.983  0.00  0.00     0.091 A 
ATOM     15  C   UNL d   1      57.463  -0.749  30.793  0.00  0.00     0.020 A 
ATOM     16  C   UNL d   1      58.064  -0.860  30.298  0.00  0.00     0.007 A 
ATOM     17  C   UNL d   1      58.460  -0.217  29.965  0.00  0.00     0.064 A 
ATOM     18  C   UNL d   1      58.237   0.559  30.142  0.00  0.00     0.007 A 
ATOM     19  C   UNL d   1      57.612   0.674  30.656  0.00  0.00     0.020 A 
BRANCH  17  20
ATOM     20  C   UNL d   1      59.108  -0.352  29.432  0.00  0.00     0.300 C 
ATOM     21  O   UNL d   1      59.017  -0.891  28.818  0.00  0.00    -0.259 OA
BRANCH  20  22
ATOM     22  O   UNL d   1      59.806   0.063  29.548  0.00  0.00    -0.271 OA
BRANCH  22  23
ATOM     23  C   UNL d   1      60.454  -0.129  29.065  0.00  0.00     0.126 C 
ATOM     24  C   UNL d   1      61.130   0.355  29.099  0.00  0.00     0.029 C 
ENDBRANCH  22  23
ENDBRANCH  20  22
ENDBRANCH  17  20
ENDBRANCH  13  14
ENDBRANCH   1  13
TORSDOF 6
ENDMDL
