MODEL 1
REMARK VINA RESULT:      -0.8      0.000      0.000
REMARK  8 active torsions:
REMARK  status: ('A' for Active; 'I' for Inactive)
REMARK    1  A    between atoms: C_7  and  N_1 
REMARK    2  A    between atoms: C_23  and  C_5 
REMARK    3  A    between atoms: C_22  and  C_6 
REMARK    4  A    between atoms: C_8  and  C_7 
REMARK       I    between atoms: N_10  and  C_8 
REMARK    5  A    between atoms: C_9  and  C_13 
REMARK    6  A    between atoms: O_19  and  C_9 
REMARK    7  A    between atoms: C_18  and  N_10 
REMARK    8  A    between atoms: C_24  and  O_19 
ROOT
ATOM      1  C   UNL d   1     -41.453-122.413 -52.021  0.00  0.00     0.297 C 
ATOM      2  N   UNL d   1     -41.252-122.143 -51.265  0.00  0.00    -0.207 NA
ATOM      3  O   UNL d   1     -41.985-123.038 -52.104  0.00  0.00    -0.264 OA
ENDROOT
BRANCH   1   4
ATOM      4  C   UNL d   1     -41.131-122.068 -52.687  0.00  0.00     0.148 C 
BRANCH   4   5
ATOM      5  N   UNL d   1     -41.502-122.155 -53.419  0.00  0.00    -0.235 N 
ATOM      6  C   UNL d   1     -41.498-122.893 -53.796  0.00  0.00     0.273 A 
ATOM      7  C   UNL d   1     -41.864-122.979 -54.521  0.00  0.00     0.086 A 
ATOM      8  O   UNL d   1     -41.123-123.537 -53.438  0.00  0.00    -0.266 OA
ATOM      9  S   UNL d   1     -42.238-122.347 -54.883  0.00  0.00    -0.077 SA
ATOM     10  C   UNL d   1     -42.244-121.615 -54.513  0.00  0.00     0.086 A 
ATOM     11  C   UNL d   1     -41.878-121.511 -53.781  0.00  0.00     0.273 A 
ATOM     12  O   UNL d   1     -41.883-120.778 -53.407  0.00  0.00    -0.266 OA
BRANCH   7  13
ATOM     13  C   UNL d   1     -41.859-123.721 -54.899  0.00  0.00     0.011 C 
ATOM     14  C   UNL d   1     -41.465-123.815 -55.618  0.00  0.00     0.001 C 
ENDBRANCH   7  13
BRANCH  10  15
ATOM     15  C   UNL d   1     -42.618-120.973 -54.871  0.00  0.00     0.011 C 
ATOM     16  C   UNL d   1     -42.559-120.868 -55.688  0.00  0.00     0.001 C 
ENDBRANCH  10  15
ENDBRANCH   4   5
ENDBRANCH   1   4
BRANCH   2  17
ATOM     17  C   UNL d   1     -41.582-122.497 -50.595  0.00  0.00     0.085 A 
ATOM     18  C   UNL d   1     -41.155-123.066 -50.176  0.00  0.00     0.019 A 
ATOM     19  C   UNL d   1     -41.497-123.409 -49.512  0.00  0.00     0.007 A 
ATOM     20  C   UNL d   1     -42.247-123.198 -49.264  0.00  0.00     0.064 A 
ATOM     21  C   UNL d   1     -42.671-122.629 -49.685  0.00  0.00     0.007 A 
ATOM     22  C   UNL d   1     -42.341-122.274 -50.355  0.00  0.00     0.019 A 
BRANCH  20  23
ATOM     23  C   UNL d   1     -42.582-123.550 -48.594  0.00  0.00     0.300 C 
ATOM     24  O   UNL d   1     -43.400-123.654 -48.552  0.00  0.00    -0.259 OA
BRANCH  23  25
ATOM     25  O   UNL d   1     -42.109-123.794 -47.977  0.00  0.00    -0.271 OA
BRANCH  25  26
ATOM     26  C   UNL d   1     -42.289-123.594 -47.200  0.00  0.00     0.126 C 
ATOM     27  C   UNL d   1     -41.721-123.289 -46.702  0.00  0.00     0.029 C 
ENDBRANCH  25  26
ENDBRANCH  23  25
ENDBRANCH  20  23
ENDBRANCH   2  17
TORSDOF 8
ENDMDL
MODEL 2
REMARK VINA RESULT:       0.6      1.731      5.575
REMARK  8 active torsions:
REMARK  status: ('A' for Active; 'I' for Inactive)
REMARK    1  A    between atoms: C_7  and  N_1 
REMARK    2  A    between atoms: C_23  and  C_5 
REMARK    3  A    between atoms: C_22  and  C_6 
REMARK    4  A    between atoms: C_8  and  C_7 
REMARK       I    between atoms: N_10  and  C_8 
REMARK    5  A    between atoms: C_9  and  C_13 
REMARK    6  A    between atoms: O_19  and  C_9 
REMARK    7  A    between atoms: C_18  and  N_10 
REMARK    8  A    between atoms: C_24  and  O_19 
ROOT
ATOM      1  C   UNL d   1     -42.203-122.084 -50.955  0.00  0.00     0.297 C 
ATOM      2  N   UNL d   1     -41.609-121.732 -51.411  0.00  0.00    -0.207 NA
ATOM      3  O   UNL d   1     -42.743-122.597 -51.311  0.00  0.00    -0.264 OA
ENDROOT
BRANCH   1   4
ATOM      4  C   UNL d   1     -42.262-121.928 -50.156  0.00  0.00     0.148 C 
BRANCH   4   5
ATOM      5  N   UNL d   1     -42.450-122.535 -49.629  0.00  0.00    -0.235 N 
ATOM      6  C   UNL d   1     -41.878-122.808 -49.095  0.00  0.00     0.273 A 
ATOM      7  C   UNL d   1     -42.064-123.408 -48.573  0.00  0.00     0.086 A 
ATOM      8  O   UNL d   1     -41.123-122.471 -49.092  0.00  0.00    -0.266 OA
ATOM      9  S   UNL d   1     -42.810-123.748 -48.569  0.00  0.00    -0.077 SA
ATOM     10  C   UNL d   1     -43.378-123.481 -49.096  0.00  0.00     0.086 A 
ATOM     11  C   UNL d   1     -43.206-122.875 -49.629  0.00  0.00     0.273 A 
ATOM     12  O   UNL d   1     -43.775-122.605 -50.160  0.00  0.00    -0.266 OA
BRANCH   7  13
ATOM     13  C   UNL d   1     -41.489-123.681 -48.037  0.00  0.00     0.011 C 
ATOM     14  C   UNL d   1     -41.271-123.213 -47.393  0.00  0.00     0.001 C 
ENDBRANCH   7  13
BRANCH  10  15
ATOM     15  C   UNL d   1     -44.131-123.817 -49.098  0.00  0.00     0.011 C 
ATOM     16  C   UNL d   1     -44.594-123.790 -48.416  0.00  0.00     0.001 C 
ENDBRANCH  10  15
ENDBRANCH   4   5
ENDBRANCH   1   4
BRANCH   2  17
ATOM     17  C   UNL d   1     -41.555-121.894 -52.220  0.00  0.00     0.085 A 
ATOM     18  C   UNL d   1     -41.687-121.294 -52.771  0.00  0.00     0.019 A 
ATOM     19  C   UNL d   1     -41.631-121.470 -53.571  0.00  0.00     0.007 A 
ATOM     20  C   UNL d   1     -41.447-122.225 -53.828  0.00  0.00     0.064 A 
ATOM     21  C   UNL d   1     -41.316-122.823 -53.274  0.00  0.00     0.007 A 
ATOM     22  C   UNL d   1     -41.369-122.661 -52.465  0.00  0.00     0.019 A 
BRANCH  20  23
ATOM     23  C   UNL d   1     -41.392-122.393 -54.637  0.00  0.00     0.300 C 
ATOM     24  O   UNL d   1     -41.323-123.176 -54.888  0.00  0.00    -0.259 OA
BRANCH  23  25
ATOM     25  O   UNL d   1     -41.407-121.789 -55.184  0.00  0.00    -0.271 OA
BRANCH  25  26
ATOM     26  C   UNL d   1     -41.598-121.934 -55.970  0.00  0.00     0.126 C 
ATOM     27  C   UNL d   1     -41.866-121.336 -56.455  0.00  0.00     0.029 C 
ENDBRANCH  25  26
ENDBRANCH  23  25
ENDBRANCH  20  23
ENDBRANCH   2  17
TORSDOF 8
ENDMDL
MODEL 3
REMARK VINA RESULT:       1.2      1.716      5.618
REMARK  8 active torsions:
REMARK  status: ('A' for Active; 'I' for Inactive)
REMARK    1  A    between atoms: C_7  and  N_1 
REMARK    2  A    between atoms: C_23  and  C_5 
REMARK    3  A    between atoms: C_22  and  C_6 
REMARK    4  A    between atoms: C_8  and  C_7 
REMARK       I    between atoms: N_10  and  C_8 
REMARK    5  A    between atoms: C_9  and  C_13 
REMARK    6  A    between atoms: O_19  and  C_9 
REMARK    7  A    between atoms: C_18  and  N_10 
REMARK    8  A    between atoms: C_24  and  O_19 
ROOT
ATOM      1  C   UNL d   1     -41.771-122.444 -50.738  0.00  0.00     0.297 C 
ATOM      2  N   UNL d   1     -41.124-122.429 -51.254  0.00  0.00    -0.207 NA
ATOM      3  O   UNL d   1     -42.536-122.497 -51.042  0.00  0.00    -0.264 OA
ENDROOT
BRANCH   1   4
ATOM      4  C   UNL d   1     -41.660-122.405 -49.930  0.00  0.00     0.148 C 
BRANCH   4   5
ATOM      5  N   UNL d   1     -42.185-122.789 -49.422  0.00  0.00    -0.235 N 
ATOM      6  C   UNL d   1     -42.985-122.851 -49.626  0.00  0.00     0.273 A 
ATOM      7  C   UNL d   1     -43.504-123.231 -49.123  0.00  0.00     0.086 A 
ATOM      8  O   UNL d   1     -43.255-122.529 -50.338  0.00  0.00    -0.266 OA
ATOM      9  S   UNL d   1     -43.246-123.554 -48.416  0.00  0.00    -0.077 SA
ATOM     10  C   UNL d   1     -42.454-123.495 -48.209  0.00  0.00     0.086 A 
ATOM     11  C   UNL d   1     -41.917-123.114 -48.707  0.00  0.00     0.273 A 
ATOM     12  O   UNL d   1     -41.123-123.053 -48.502  0.00  0.00    -0.266 OA
BRANCH   7  13
ATOM     13  C   UNL d   1     -44.308-123.293 -49.330  0.00  0.00     0.011 C 
ATOM     14  C   UNL d   1     -44.822-123.736 -48.861  0.00  0.00     0.001 C 
ENDBRANCH   7  13
BRANCH  10  15
ATOM     15  C   UNL d   1     -42.187-123.817 -47.499  0.00  0.00     0.011 C 
ATOM     16  C   UNL d   1     -42.440-123.496 -46.782  0.00  0.00     0.001 C 
ENDBRANCH  10  15
ENDBRANCH   4   5
ENDBRANCH   1   4
BRANCH   2  17
ATOM     17  C   UNL d   1     -41.244-122.469 -52.071  0.00  0.00     0.085 A 
ATOM     18  C   UNL d   1     -41.436-121.786 -52.494  0.00  0.00     0.019 A 
ATOM     19  C   UNL d   1     -41.552-121.842 -53.305  0.00  0.00     0.007 A 
ATOM     20  C   UNL d   1     -41.480-122.556 -53.697  0.00  0.00     0.064 A 
ATOM     21  C   UNL d   1     -41.288-123.236 -53.271  0.00  0.00     0.007 A 
ATOM     22  C   UNL d   1     -41.168-123.197 -52.454  0.00  0.00     0.019 A 
BRANCH  20  23
ATOM     23  C   UNL d   1     -41.599-122.601 -54.515  0.00  0.00     0.300 C 
ATOM     24  O   UNL d   1     -41.143-123.120 -54.966  0.00  0.00    -0.259 OA
BRANCH  23  25
ATOM     25  O   UNL d   1     -42.162-122.136 -54.875  0.00  0.00    -0.271 OA
BRANCH  25  26
ATOM     26  C   UNL d   1     -42.165-122.026 -55.690  0.00  0.00     0.126 C 
ATOM     27  C   UNL d   1     -42.784-121.649 -56.062  0.00  0.00     0.029 C 
ENDBRANCH  25  26
ENDBRANCH  23  25
ENDBRANCH  20  23
ENDBRANCH   2  17
TORSDOF 8
ENDMDL
