MODEL 1
REMARK VINA RESULT:      -7.6      0.000      0.000
REMARK  4 active torsions:
REMARK  status: ('A' for Active; 'I' for Inactive)
REMARK    1  A    between atoms: N_2  and  S_1 
REMARK    2  A    between atoms: C_3  and  S_1 
REMARK    3  A    between atoms: O_15  and  C_11 
REMARK    4  A    between atoms: O_17  and  C_13 
ROOT
ATOM      1  C   UNL d   1     -48.660  13.904  22.748  0.00  0.00     0.128 A 
ATOM      2  C   UNL d   1     -48.799  14.636  23.111  0.00  0.00     0.039 A 
ATOM      3  C   UNL d   1     -49.191  13.612  22.196  0.00  0.00     0.106 A 
ATOM      4  C   UNL d   1     -49.865  14.053  22.004  0.00  0.00     0.027 A 
ATOM      5  C   UNL d   1     -49.467  15.070  22.918  0.00  0.00     0.095 A 
ATOM      6  C   UNL d   1     -50.003  14.778  22.363  0.00  0.00     0.026 A 
ENDROOT
BRANCH   1   7
ATOM      7  S   UNL d   1     -47.987  13.461  22.939  0.00  0.00     0.274 S 
ATOM      8  O   UNL d   1     -47.601  13.746  22.270  0.00  0.00    -0.199 OA
ATOM      9  O   UNL d   1     -48.375  13.175  23.609  0.00  0.00    -0.199 OA
BRANCH   7  10
ATOM     10  N   UNL d   1     -47.328  13.022  23.134  0.00  0.00    -0.213 N 
ATOM     11  C   UNL d   1     -46.581  13.300  23.139  0.00  0.00     0.157 A 
ATOM     12  N   UNL d   1     -46.066  12.678  23.370  0.00  0.00    -0.224 NA
ATOM     13  C   UNL d   1     -46.272  14.047  22.963  0.00  0.00     0.041 C 
ATOM     14  C   UNL d   1     -46.545  12.024  23.501  0.00  0.00     0.120 A 
ATOM     15  C   UNL d   1     -47.344  12.248  23.350  0.00  0.00     0.114 A 
ENDBRANCH   7  10
ENDBRANCH   1   7
BRANCH   3  16
ATOM     16  O   UNL d   1     -49.052  12.880  21.833  0.00  0.00    -0.327 OA
ATOM     17  C   UNL d   1     -49.608  12.574  21.311  0.00  0.00     0.181 C 
ENDBRANCH   3  16
BRANCH   5  18
ATOM     18  O   UNL d   1     -49.606  15.800  23.279  0.00  0.00    -0.328 OA
ATOM     19  C   UNL d   1     -50.304  15.922  23.698  0.00  0.00     0.181 C 
ENDBRANCH   5  18
TORSDOF 4
ENDMDL
MODEL 2
REMARK VINA RESULT:      -7.4      1.451      3.151
REMARK  4 active torsions:
REMARK  status: ('A' for Active; 'I' for Inactive)
REMARK    1  A    between atoms: N_2  and  S_1 
REMARK    2  A    between atoms: C_3  and  S_1 
REMARK    3  A    between atoms: O_15  and  C_11 
REMARK    4  A    between atoms: O_17  and  C_13 
ROOT
ATOM      1  C   UNL d   1     -47.840  13.349  22.804  0.00  0.00     0.128 A 
ATOM      2  C   UNL d   1     -47.094  12.987  22.815  0.00  0.00     0.039 A 
ATOM      3  C   UNL d   1     -47.901  14.160  22.708  0.00  0.00     0.106 A 
ATOM      4  C   UNL d   1     -47.215  14.615  22.622  0.00  0.00     0.027 A 
ATOM      5  C   UNL d   1     -46.417  13.440  22.730  0.00  0.00     0.095 A 
ATOM      6  C   UNL d   1     -46.476  14.257  22.633  0.00  0.00     0.026 A 
ENDROOT
BRANCH   1   7
ATOM      7  S   UNL d   1     -48.528  12.896  22.890  0.00  0.00     0.274 S 
ATOM      8  O   UNL d   1     -48.557  13.078  23.692  0.00  0.00    -0.199 OA
ATOM      9  O   UNL d   1     -48.499  12.713  22.085  0.00  0.00    -0.199 OA
BRANCH   7  10
ATOM     10  N   UNL d   1     -49.206  12.448  22.965  0.00  0.00    -0.213 N 
ATOM     11  C   UNL d   1     -49.242  11.735  23.321  0.00  0.00     0.157 A 
ATOM     12  N   UNL d   1     -50.034  11.458  23.283  0.00  0.00    -0.224 NA
ATOM     13  C   UNL d   1     -48.662  11.274  23.687  0.00  0.00     0.041 C 
ATOM     14  C   UNL d   1     -50.459  12.040  22.889  0.00  0.00     0.120 A 
ATOM     15  C   UNL d   1     -49.929  12.666  22.690  0.00  0.00     0.114 A 
ENDBRANCH   7  10
ENDBRANCH   1   7
BRANCH   3  16
ATOM     16  O   UNL d   1     -48.647  14.522  22.697  0.00  0.00    -0.327 OA
ATOM     17  C   UNL d   1     -48.704  15.331  22.565  0.00  0.00     0.181 C 
ENDBRANCH   3  16
BRANCH   5  18
ATOM     18  O   UNL d   1     -45.674  13.079  22.741  0.00  0.00    -0.328 OA
ATOM     19  C   UNL d   1     -45.120  13.268  22.161  0.00  0.00     0.181 C 
ENDBRANCH   5  18
TORSDOF 4
ENDMDL
MODEL 3
REMARK VINA RESULT:      -7.3      1.370      3.304
REMARK  4 active torsions:
REMARK  status: ('A' for Active; 'I' for Inactive)
REMARK    1  A    between atoms: N_2  and  S_1 
REMARK    2  A    between atoms: C_3  and  S_1 
REMARK    3  A    between atoms: O_15  and  C_11 
REMARK    4  A    between atoms: O_17  and  C_13 
ROOT
ATOM      1  C   UNL d   1     -47.981  13.420  22.770  0.00  0.00     0.128 A 
ATOM      2  C   UNL d   1     -47.250  13.766  22.588  0.00  0.00     0.039 A 
ATOM      3  C   UNL d   1     -48.009  12.701  23.161  0.00  0.00     0.106 A 
ATOM      4  C   UNL d   1     -47.304  12.322  23.373  0.00  0.00     0.027 A 
ATOM      5  C   UNL d   1     -46.553  13.389  22.799  0.00  0.00     0.095 A 
ATOM      6  C   UNL d   1     -46.579  12.665  23.193  0.00  0.00     0.026 A 
ENDROOT
BRANCH   1   7
ATOM      7  S   UNL d   1     -48.687  13.796  22.559  0.00  0.00     0.274 S 
ATOM      8  O   UNL d   1     -48.779  14.073  23.329  0.00  0.00    -0.199 OA
ATOM      9  O   UNL d   1     -48.596  13.519  21.787  0.00  0.00    -0.199 OA
BRANCH   7  10
ATOM     10  N   UNL d   1     -49.383  14.164  22.342  0.00  0.00    -0.213 N 
ATOM     11  C   UNL d   1     -49.575  14.916  22.524  0.00  0.00     0.157 A 
ATOM     12  N   UNL d   1     -50.332  15.084  22.202  0.00  0.00    -0.224 NA
ATOM     13  C   UNL d   1     -49.170  15.500  22.947  0.00  0.00     0.041 C 
ATOM     14  C   UNL d   1     -50.575  14.397  21.823  0.00  0.00     0.120 A 
ATOM     15  C   UNL d   1     -49.968  13.817  21.916  0.00  0.00     0.114 A 
ENDBRANCH   7  10
ENDBRANCH   1   7
BRANCH   3  16
ATOM     16  O   UNL d   1     -48.740  12.356  23.343  0.00  0.00    -0.327 OA
ATOM     17  C   UNL d   1     -48.762  11.614  23.698  0.00  0.00     0.181 C 
ENDBRANCH   3  16
BRANCH   5  18
ATOM     18  O   UNL d   1     -45.825  13.733  22.618  0.00  0.00    -0.328 OA
ATOM     19  C   UNL d   1     -45.263  13.302  22.199  0.00  0.00     0.181 C 
ENDBRANCH   5  18
TORSDOF 4
ENDMDL
MODEL 4
REMARK VINA RESULT:      -7.2      1.161      2.082
REMARK  4 active torsions:
REMARK  status: ('A' for Active; 'I' for Inactive)
REMARK    1  A    between atoms: N_2  and  S_1 
REMARK    2  A    between atoms: C_3  and  S_1 
REMARK    3  A    between atoms: O_15  and  C_11 
REMARK    4  A    between atoms: O_17  and  C_13 
ROOT
ATOM      1  C   UNL d   1     -48.505  13.167  22.830  0.00  0.00     0.128 A 
ATOM      2  C   UNL d   1     -48.958  12.477  22.909  0.00  0.00     0.039 A 
ATOM      3  C   UNL d   1     -48.872  13.898  22.804  0.00  0.00     0.106 A 
ATOM      4  C   UNL d   1     -49.698  13.944  22.856  0.00  0.00     0.027 A 
ATOM      5  C   UNL d   1     -49.775  12.526  22.960  0.00  0.00     0.095 A 
ATOM      6  C   UNL d   1     -50.147  13.262  22.933  0.00  0.00     0.026 A 
ENDROOT
BRANCH   1   7
ATOM      7  S   UNL d   1     -47.680  13.123  22.778  0.00  0.00     0.274 S 
ATOM      8  O   UNL d   1     -47.611  13.341  23.569  0.00  0.00    -0.199 OA
ATOM      9  O   UNL d   1     -47.749  12.905  21.985  0.00  0.00    -0.199 OA
BRANCH   7  10
ATOM     10  N   UNL d   1     -46.868  13.078  22.717  0.00  0.00    -0.213 N 
ATOM     11  C   UNL d   1     -46.408  12.576  23.133  0.00  0.00     0.157 A 
ATOM     12  N   UNL d   1     -45.607  12.702  22.912  0.00  0.00    -0.224 NA
ATOM     13  C   UNL d   1     -46.593  12.002  23.698  0.00  0.00     0.041 C 
ATOM     14  C   UNL d   1     -45.619  13.300  22.349  0.00  0.00     0.120 A 
ATOM     15  C   UNL d   1     -46.421  13.535  22.230  0.00  0.00     0.114 A 
ENDBRANCH   7  10
ENDBRANCH   1   7
BRANCH   3  16
ATOM     16  O   UNL d   1     -48.419  14.588  22.725  0.00  0.00    -0.327 OA
ATOM     17  C   UNL d   1     -48.795  15.313  22.634  0.00  0.00     0.181 C 
ENDBRANCH   3  16
BRANCH   5  18
ATOM     18  O   UNL d   1     -50.227  11.839  23.038  0.00  0.00    -0.328 OA
ATOM     19  C   UNL d   1     -50.770  11.776  23.653  0.00  0.00     0.181 C 
ENDBRANCH   5  18
TORSDOF 4
ENDMDL
MODEL 5
REMARK VINA RESULT:      -6.7      1.017      1.990
REMARK  4 active torsions:
REMARK  status: ('A' for Active; 'I' for Inactive)
REMARK    1  A    between atoms: N_2  and  S_1 
REMARK    2  A    between atoms: C_3  and  S_1 
REMARK    3  A    between atoms: O_15  and  C_11 
REMARK    4  A    between atoms: O_17  and  C_13 
ROOT
ATOM      1  C   UNL d   1     -48.733  13.976  22.792  0.00  0.00     0.128 A 
ATOM      2  C   UNL d   1     -49.509  14.267  22.793  0.00  0.00     0.039 A 
ATOM      3  C   UNL d   1     -48.102  14.490  22.699  0.00  0.00     0.106 A 
ATOM      4  C   UNL d   1     -48.244  15.300  22.606  0.00  0.00     0.027 A 
ATOM      5  C   UNL d   1     -49.647  15.070  22.700  0.00  0.00     0.095 A 
ATOM      6  C   UNL d   1     -49.013  15.589  22.606  0.00  0.00     0.026 A 
ENDROOT
BRANCH   1   7
ATOM      7  S   UNL d   1     -48.589  13.166  22.886  0.00  0.00     0.274 S 
ATOM      8  O   UNL d   1     -48.704  13.231  23.698  0.00  0.00    -0.199 OA
ATOM      9  O   UNL d   1     -48.473  13.100  22.071  0.00  0.00    -0.199 OA
BRANCH   7  10
ATOM     10  N   UNL d   1     -48.445  12.367  22.968  0.00  0.00    -0.213 N 
ATOM     11  C   UNL d   1     -48.875  11.790  22.626  0.00  0.00     0.157 A 
ATOM     12  N   UNL d   1     -48.550  11.048  22.847  0.00  0.00    -0.224 NA
ATOM     13  C   UNL d   1     -49.537  11.819  22.130  0.00  0.00     0.041 C 
ATOM     14  C   UNL d   1     -47.910  11.216  23.333  0.00  0.00     0.120 A 
ATOM     15  C   UNL d   1     -47.848  12.055  23.407  0.00  0.00     0.114 A 
ENDBRANCH   7  10
ENDBRANCH   1   7
BRANCH   3  16
ATOM     16  O   UNL d   1     -47.326  14.198  22.699  0.00  0.00    -0.327 OA
ATOM     17  C   UNL d   1     -46.695  14.723  22.646  0.00  0.00     0.181 C 
ENDBRANCH   3  16
BRANCH   5  18
ATOM     18  O   UNL d   1     -50.420  15.361  22.701  0.00  0.00    -0.328 OA
ATOM     19  C   UNL d   1     -50.701  15.770  23.357  0.00  0.00     0.181 C 
ENDBRANCH   5  18
TORSDOF 4
ENDMDL
