MODEL 1
REMARK VINA RESULT:      -5.6      0.000      0.000
REMARK  4 active torsions:
REMARK  status: ('A' for Active; 'I' for Inactive)
REMARK    1  A    between atoms: C_2  and  C_1 
REMARK    2  A    between atoms: C_6  and  C_2 
REMARK    3  A    between atoms: C_9  and  C_6 
REMARK    4  A    between atoms: O_18  and  C_12 
ROOT
ATOM      1  C   UNL d   1     -41.829-123.093 -50.411  0.00  0.00     0.199 C 
ATOM      2  O   UNL d   1     -42.533-123.138 -50.761  0.00  0.00    -0.286 OA
ENDROOT
BRANCH   1   3
ATOM      3  C   UNL d   1     -41.862-123.165 -49.507  0.00  0.00     0.078 A 
ATOM      4  C   UNL d   1     -42.587-123.000 -49.148  0.00  0.00     0.202 A 
ATOM      5  C   UNL d   1     -42.642-123.063 -48.272  0.00  0.00     0.084 A 
ATOM      6  O   UNL d   1     -43.240-122.783 -49.598  0.00  0.00    -0.286 OA
ATOM      7  C   UNL d   1     -41.963-123.288 -47.822  0.00  0.00     0.199 A 
ATOM      8  C   UNL d   1     -41.260-123.444 -48.207  0.00  0.00     0.042 A 
ATOM      9  O   UNL d   1     -42.033-123.345 -46.972  0.00  0.00    -0.286 OA
ATOM     10  C   UNL d   1     -41.199-123.384 -49.068  0.00  0.00     0.010 A 
ENDBRANCH   1   3
BRANCH   1  11
ATOM     11  C   UNL d   1     -41.193-123.003 -50.742  0.00  0.00     0.042 C 
BRANCH  11  12
ATOM     12  C   UNL d   1     -41.176-122.913 -51.540  0.00  0.00     0.003 A 
ATOM     13  C   UNL d   1     -41.193-122.180 -51.866  0.00  0.00     0.002 A 
ATOM     14  C   UNL d   1     -41.175-122.083 -52.705  0.00  0.00     0.024 A 
ATOM     15  C   UNL d   1     -41.140-122.730 -53.208  0.00  0.00     0.094 A 
ATOM     16  C   UNL d   1     -41.123-123.472 -52.883  0.00  0.00     0.024 A 
ATOM     17  C   UNL d   1     -41.139-123.584 -52.070  0.00  0.00     0.002 A 
BRANCH  15  18
ATOM     18  O   UNL d   1     -41.123-122.634 -54.057  0.00  0.00    -0.328 OA
ATOM     19  C   UNL d   1     -41.815-122.505 -54.479  0.00  0.00     0.181 C 
ENDBRANCH  15  18
ENDBRANCH  11  12
ENDBRANCH   1  11
TORSDOF 4
ENDMDL
MODEL 2
REMARK VINA RESULT:      -5.1      0.836      1.421
REMARK  4 active torsions:
REMARK  status: ('A' for Active; 'I' for Inactive)
REMARK    1  A    between atoms: C_2  and  C_1 
REMARK    2  A    between atoms: C_6  and  C_2 
REMARK    3  A    between atoms: C_9  and  C_6 
REMARK    4  A    between atoms: O_18  and  C_12 
ROOT
ATOM      1  C   UNL d   1     -41.660-122.662 -51.533  0.00  0.00     0.199 C 
ATOM      2  O   UNL d   1     -42.271-122.198 -51.711  0.00  0.00    -0.286 OA
ENDROOT
BRANCH   1   3
ATOM      3  C   UNL d   1     -41.667-122.969 -50.680  0.00  0.00     0.078 A 
ATOM      4  C   UNL d   1     -42.242-122.656 -50.178  0.00  0.00     0.202 A 
ATOM      5  C   UNL d   1     -42.267-122.940 -49.345  0.00  0.00     0.084 A 
ATOM      6  O   UNL d   1     -42.777-122.094 -50.448  0.00  0.00    -0.286 OA
ATOM      7  C   UNL d   1     -41.710-123.518 -49.080  0.00  0.00     0.199 A 
ATOM      8  C   UNL d   1     -41.153-123.808 -49.602  0.00  0.00     0.042 A 
ATOM      9  O   UNL d   1     -41.747-123.783 -48.268  0.00  0.00    -0.286 OA
ATOM     10  C   UNL d   1     -41.123-123.533 -50.421  0.00  0.00     0.010 A 
ENDBRANCH   1   3
BRANCH   1  11
ATOM     11  C   UNL d   1     -41.123-122.849 -51.979  0.00  0.00     0.042 C 
BRANCH  11  12
ATOM     12  C   UNL d   1     -41.230-122.779 -52.773  0.00  0.00     0.003 A 
ATOM     13  C   UNL d   1     -41.429-123.419 -53.214  0.00  0.00     0.002 A 
ATOM     14  C   UNL d   1     -41.542-123.347 -54.047  0.00  0.00     0.024 A 
ATOM     15  C   UNL d   1     -41.453-122.627 -54.429  0.00  0.00     0.094 A 
ATOM     16  C   UNL d   1     -41.252-121.977 -53.988  0.00  0.00     0.024 A 
ATOM     17  C   UNL d   1     -41.138-122.030 -53.177  0.00  0.00     0.002 A 
BRANCH  15  18
ATOM     18  O   UNL d   1     -41.567-122.552 -55.272  0.00  0.00    -0.328 OA
ATOM     19  C   UNL d   1     -42.130-122.037 -55.575  0.00  0.00     0.181 C 
ENDBRANCH  15  18
ENDBRANCH  11  12
ENDBRANCH   1  11
TORSDOF 4
ENDMDL
MODEL 3
REMARK VINA RESULT:      -4.8      0.874      4.439
REMARK  4 active torsions:
REMARK  status: ('A' for Active; 'I' for Inactive)
REMARK    1  A    between atoms: C_2  and  C_1 
REMARK    2  A    between atoms: C_6  and  C_2 
REMARK    3  A    between atoms: C_9  and  C_6 
REMARK    4  A    between atoms: O_18  and  C_12 
ROOT
ATOM      1  C   UNL d   1     -41.407-122.957 -51.146  0.00  0.00     0.199 C 
ATOM      2  O   UNL d   1     -41.123-122.275 -50.872  0.00  0.00    -0.286 OA
ENDROOT
BRANCH   1   3
ATOM      3  C   UNL d   1     -41.361-123.040 -52.048  0.00  0.00     0.078 A 
ATOM      4  C   UNL d   1     -41.530-122.365 -52.491  0.00  0.00     0.202 A 
ATOM      5  C   UNL d   1     -41.492-122.422 -53.369  0.00  0.00     0.084 A 
ATOM      6  O   UNL d   1     -41.730-121.657 -52.123  0.00  0.00    -0.286 OA
ATOM      7  C   UNL d   1     -41.285-123.155 -53.735  0.00  0.00     0.199 A 
ATOM      8  C   UNL d   1     -41.123-123.805 -53.268  0.00  0.00     0.042 A 
ATOM      9  O   UNL d   1     -41.252-123.194 -54.588  0.00  0.00    -0.286 OA
ATOM     10  C   UNL d   1     -41.159-123.756 -52.406  0.00  0.00     0.010 A 
ENDBRANCH   1   3
BRANCH   1  11
ATOM     11  C   UNL d   1     -41.687-123.493 -50.749  0.00  0.00     0.042 C 
BRANCH  11  12
ATOM     12  C   UNL d   1     -41.765-123.393 -49.955  0.00  0.00     0.003 A 
ATOM     13  C   UNL d   1     -41.132-123.479 -49.471  0.00  0.00     0.002 A 
ATOM     14  C   UNL d   1     -41.212-123.374 -48.637  0.00  0.00     0.024 A 
ATOM     15  C   UNL d   1     -41.934-123.182 -48.299  0.00  0.00     0.094 A 
ATOM     16  C   UNL d   1     -42.577-123.094 -48.785  0.00  0.00     0.024 A 
ATOM     17  C   UNL d   1     -42.516-123.193 -49.597  0.00  0.00     0.002 A 
BRANCH  15  18
ATOM     18  O   UNL d   1     -42.018-123.076 -47.456  0.00  0.00    -0.328 OA
ATOM     19  C   UNL d   1     -41.357-123.001 -46.975  0.00  0.00     0.181 C 
ENDBRANCH  15  18
ENDBRANCH  11  12
ENDBRANCH   1  11
TORSDOF 4
ENDMDL
