MODEL 1
REMARK VINA RESULT:      -0.0      0.000      0.000
REMARK  4 active torsions:
REMARK  status: ('A' for Active; 'I' for Inactive)
REMARK    1  A    between atoms: C_4  and  C_1 
REMARK       I    between atoms: N_7  and  C_4 
REMARK    2  A    between atoms: C_8  and  N_7 
REMARK    3  A    between atoms: O_21  and  C_13 
REMARK    4  A    between atoms: O_22  and  C_16 
ROOT
ATOM      1  C   UNL d   1      57.995   0.223  29.253  0.00  0.00     0.263 C 
ATOM      2  N   UNL d   1      57.821   0.682  29.975  0.00  0.00    -0.209 NA
ATOM      3  O   UNL d   1      57.585   0.355  28.491  0.00  0.00    -0.270 OA
ENDROOT
BRANCH   1   4
ATOM      4  C   UNL d   1      58.558  -0.375  29.214  0.00  0.00     0.113 A 
ATOM      5  C   UNL d   1      59.907  -1.030  28.871  0.00  0.00     0.025 A 
ATOM      6  C   UNL d   1      59.140  -0.972  29.168  0.00  0.00     0.074 A 
ATOM      7  C   UNL d   1      60.312  -1.729  28.930  0.00  0.00     0.002 C 
ATOM      8  C   UNL d   1      60.418  -0.527  28.498  0.00  0.00     0.002 C 
ATOM      9  C   UNL d   1      59.555  -1.684  29.227  0.00  0.00     0.012 C 
ATOM     10  C   UNL d   1      59.294  -0.224  28.863  0.00  0.00    -0.023 A 
ATOM     11  C   UNL d   1      58.610  -1.476  29.549  0.00  0.00     0.172 A 
ATOM     12  C   UNL d   1      58.733   0.351  28.908  0.00  0.00    -0.018 A 
ATOM     13  C   UNL d   1      58.049  -0.884  29.588  0.00  0.00     0.024 A 
ATOM     14  O   UNL d   1      58.649  -2.276  29.790  0.00  0.00    -0.291 OA
ENDBRANCH   1   4
BRANCH   2  15
ATOM     15  C   UNL d   1      58.258   0.512  30.711  0.00  0.00     0.108 A 
ATOM     16  C   UNL d   1      59.120   0.676  30.740  0.00  0.00     0.045 A 
ATOM     17  C   UNL d   1      59.560   0.506  31.480  0.00  0.00     0.096 A 
ATOM     18  C   UNL d   1      59.134   0.172  32.184  0.00  0.00     0.026 A 
ATOM     19  C   UNL d   1      58.274   0.016  32.131  0.00  0.00     0.028 A 
ATOM     20  C   UNL d   1      57.834   0.187  31.391  0.00  0.00     0.112 A 
BRANCH  17  21
ATOM     21  O   UNL d   1      60.415   0.663  31.525  0.00  0.00    -0.328 OA
ATOM     22  C   UNL d   1      60.820   0.682  32.299  0.00  0.00     0.181 C 
ENDBRANCH  17  21
BRANCH  20  23
ATOM     23  O   UNL d   1      56.973   0.031  31.338  0.00  0.00    -0.327 OA
ATOM     24  C   UNL d   1      56.560  -0.301  32.036  0.00  0.00     0.181 C 
ENDBRANCH  20  23
ENDBRANCH   2  15
TORSDOF 4
ENDMDL
MODEL 2
REMARK VINA RESULT:       0.8      1.069      3.271
REMARK  4 active torsions:
REMARK  status: ('A' for Active; 'I' for Inactive)
REMARK    1  A    between atoms: C_4  and  C_1 
REMARK       I    between atoms: N_7  and  C_4 
REMARK    2  A    between atoms: C_8  and  N_7 
REMARK    3  A    between atoms: O_21  and  C_13 
REMARK    4  A    between atoms: O_22  and  C_16 
ROOT
ATOM      1  C   UNL d   1      58.197   0.138  29.110  0.00  0.00     0.263 C 
ATOM      2  N   UNL d   1      58.794  -0.248  28.603  0.00  0.00    -0.209 NA
ATOM      3  O   UNL d   1      57.585   0.681  28.800  0.00  0.00    -0.270 OA
ENDROOT
BRANCH   1   4
ATOM      4  C   UNL d   1      58.150   0.032  29.924  0.00  0.00     0.113 A 
ATOM      5  C   UNL d   1      57.591  -0.509  31.250  0.00  0.00     0.025 A 
ATOM      6  C   UNL d   1      58.088  -0.086  30.749  0.00  0.00     0.074 A 
ATOM      7  C   UNL d   1      57.709  -0.487  32.051  0.00  0.00     0.002 C 
ATOM      8  C   UNL d   1      56.949  -0.991  31.152  0.00  0.00     0.002 C 
ATOM      9  C   UNL d   1      58.208  -0.064  31.565  0.00  0.00     0.012 C 
ATOM     10  C   UNL d   1      57.554  -0.451  30.240  0.00  0.00    -0.023 A 
ATOM     11  C   UNL d   1      58.743   0.408  30.837  0.00  0.00     0.172 A 
ATOM     12  C   UNL d   1      57.613  -0.338  29.446  0.00  0.00    -0.018 A 
ATOM     13  C   UNL d   1      58.792   0.515  30.029  0.00  0.00     0.024 A 
ATOM     14  O   UNL d   1      59.172   0.680  31.501  0.00  0.00    -0.291 OA
ENDBRANCH   1   4
BRANCH   2  15
ATOM     15  C   UNL d   1      59.385  -0.782  28.961  0.00  0.00     0.108 A 
ATOM     16  C   UNL d   1      59.149  -1.604  29.156  0.00  0.00     0.045 A 
ATOM     17  C   UNL d   1      59.743  -2.142  29.516  0.00  0.00     0.096 A 
ATOM     18  C   UNL d   1      60.566  -1.852  29.676  0.00  0.00     0.026 A 
ATOM     19  C   UNL d   1      60.778  -1.027  29.473  0.00  0.00     0.028 A 
ATOM     20  C   UNL d   1      60.184  -0.489  29.113  0.00  0.00     0.112 A 
BRANCH  17  21
ATOM     21  O   UNL d   1      59.525  -2.961  29.716  0.00  0.00    -0.328 OA
ATOM     22  C   UNL d   1      59.434  -3.560  29.086  0.00  0.00     0.181 C 
ENDBRANCH  17  21
BRANCH  20  23
ATOM     23  O   UNL d   1      60.396   0.337  28.909  0.00  0.00    -0.327 OA
ATOM     24  C   UNL d   1      61.133   0.485  28.459  0.00  0.00     0.181 C 
ENDBRANCH  20  23
ENDBRANCH   2  15
TORSDOF 4
ENDMDL
MODEL 3
REMARK VINA RESULT:       1.1      0.988      2.181
REMARK  4 active torsions:
REMARK  status: ('A' for Active; 'I' for Inactive)
REMARK    1  A    between atoms: C_4  and  C_1 
REMARK       I    between atoms: N_7  and  C_4 
REMARK    2  A    between atoms: C_8  and  N_7 
REMARK    3  A    between atoms: O_21  and  C_13 
REMARK    4  A    between atoms: O_22  and  C_16 
ROOT
ATOM      1  C   UNL d   1      59.952   0.041  29.167  0.00  0.00     0.263 C 
ATOM      2  N   UNL d   1      59.848   0.682  29.751  0.00  0.00    -0.209 NA
ATOM      3  O   UNL d   1      60.457   0.121  28.455  0.00  0.00    -0.270 OA
ENDROOT
BRANCH   1   4
ATOM      4  C   UNL d   1      59.592  -0.695  29.224  0.00  0.00     0.113 A 
ATOM      5  C   UNL d   1      59.460  -2.182  29.593  0.00  0.00     0.025 A 
ATOM      6  C   UNL d   1      59.239  -1.449  29.289  0.00  0.00     0.074 A 
ATOM      7  C   UNL d   1      58.948  -2.808  29.554  0.00  0.00     0.002 C 
ATOM      8  C   UNL d   1      60.118  -2.478  29.958  0.00  0.00     0.002 C 
ATOM      9  C   UNL d   1      58.718  -2.088  29.250  0.00  0.00     0.012 C 
ATOM     10  C   UNL d   1      59.999  -1.325  29.577  0.00  0.00    -0.023 A 
ATOM     11  C   UNL d   1      58.573  -1.136  28.916  0.00  0.00     0.172 A 
ATOM     12  C   UNL d   1      60.339  -0.599  29.514  0.00  0.00    -0.018 A 
ATOM     13  C   UNL d   1      58.929  -0.404  28.858  0.00  0.00     0.024 A 
ATOM     14  O   UNL d   1      57.834  -1.458  28.694  0.00  0.00    -0.291 OA
ENDBRANCH   1   4
BRANCH   2  15
ATOM     15  C   UNL d   1      59.334   0.554  30.445  0.00  0.00     0.108 A 
ATOM     16  C   UNL d   1      58.474   0.429  30.319  0.00  0.00     0.045 A 
ATOM     17  C   UNL d   1      57.957   0.301  31.016  0.00  0.00     0.096 A 
ATOM     18  C   UNL d   1      58.305   0.297  31.833  0.00  0.00     0.026 A 
ATOM     19  C   UNL d   1      59.165   0.424  31.934  0.00  0.00     0.028 A 
ATOM     20  C   UNL d   1      59.682   0.553  31.236  0.00  0.00     0.112 A 
BRANCH  17  21
ATOM     21  O   UNL d   1      57.102   0.176  30.908  0.00  0.00    -0.328 OA
ATOM     22  C   UNL d   1      56.633  -0.223  31.528  0.00  0.00     0.181 C 
ENDBRANCH  17  21
BRANCH  20  23
ATOM     23  O   UNL d   1      60.544   0.679  31.337  0.00  0.00    -0.327 OA
ATOM     24  C   UNL d   1      60.884   0.651  32.144  0.00  0.00     0.181 C 
ENDBRANCH  20  23
ENDBRANCH   2  15
TORSDOF 4
ENDMDL
MODEL 4
REMARK VINA RESULT:       2.4      1.594      3.002
REMARK  4 active torsions:
REMARK  status: ('A' for Active; 'I' for Inactive)
REMARK    1  A    between atoms: C_4  and  C_1 
REMARK       I    between atoms: N_7  and  C_4 
REMARK    2  A    between atoms: C_8  and  N_7 
REMARK    3  A    between atoms: O_21  and  C_13 
REMARK    4  A    between atoms: O_22  and  C_16 
ROOT
ATOM      1  C   UNL d   1      58.329  -1.894  28.864  0.00  0.00     0.263 C 
ATOM      2  N   UNL d   1      59.153  -2.086  28.645  0.00  0.00    -0.209 NA
ATOM      3  O   UNL d   1      57.634  -2.262  28.480  0.00  0.00    -0.270 OA
ENDROOT
BRANCH   1   4
ATOM      4  C   UNL d   1      58.124  -1.353  29.448  0.00  0.00     0.113 A 
ATOM      5  C   UNL d   1      57.729   0.010  30.039  0.00  0.00     0.025 A 
ATOM      6  C   UNL d   1      57.915  -0.792  30.030  0.00  0.00     0.074 A 
ATOM      7  C   UNL d   1      57.548   0.377  30.738  0.00  0.00     0.002 C 
ATOM      8  C   UNL d   1      57.670   0.593  29.482  0.00  0.00     0.002 C 
ATOM      9  C   UNL d   1      57.731  -0.417  30.742  0.00  0.00     0.012 C 
ATOM     10  C   UNL d   1      57.971  -0.565  29.241  0.00  0.00    -0.023 A 
ATOM     11  C   UNL d   1      57.977  -1.395  30.590  0.00  0.00     0.172 A 
ATOM     12  C   UNL d   1      58.172  -1.105  28.681  0.00  0.00    -0.018 A 
ATOM     13  C   UNL d   1      58.181  -1.934  30.012  0.00  0.00     0.024 A 
ATOM     14  O   UNL d   1      57.870  -1.423  31.419  0.00  0.00    -0.291 OA
ENDBRANCH   1   4
BRANCH   2  15
ATOM     15  C   UNL d   1      59.813  -1.691  29.058  0.00  0.00     0.108 A 
ATOM     16  C   UNL d   1      59.951  -0.837  28.917  0.00  0.00     0.045 A 
ATOM     17  C   UNL d   1      60.615  -0.440  29.332  0.00  0.00     0.096 A 
ATOM     18  C   UNL d   1      61.133  -0.902  29.885  0.00  0.00     0.026 A 
ATOM     19  C   UNL d   1      60.976  -1.754  30.011  0.00  0.00     0.028 A 
ATOM     20  C   UNL d   1      60.312  -2.151  29.595  0.00  0.00     0.112 A 
BRANCH  17  21
ATOM     21  O   UNL d   1      60.766   0.408  29.203  0.00  0.00    -0.328 OA
ATOM     22  C   UNL d   1      61.133   0.682  28.458  0.00  0.00     0.181 C 
ENDBRANCH  17  21
BRANCH  20  23
ATOM     23  O   UNL d   1      60.153  -3.004  29.721  0.00  0.00    -0.327 OA
ATOM     24  C   UNL d   1      60.832  -3.549  29.819  0.00  0.00     0.181 C 
ENDBRANCH  20  23
ENDBRANCH   2  15
TORSDOF 4
ENDMDL
