MODEL 1
REMARK VINA RESULT:      43.9      0.000      0.000
REMARK  4 active torsions:
REMARK  status: ('A' for Active; 'I' for Inactive)
REMARK    1  A    between atoms: C_8  and  C_1 
REMARK    2  A    between atoms: C_14  and  C_5 
REMARK    3  A    between atoms: O_16  and  C_8 
REMARK    4  A    between atoms: C_21  and  O_16 
ROOT
ATOM      1  C   UNL d   1     -58.481 -98.811 -45.581  0.00  0.00     0.106 A 
ATOM      2  C   UNL d   1     -57.995 -98.806 -46.248  0.00  0.00     0.208 A 
ATOM      3  C   UNL d   1     -57.320 -98.791 -44.735  0.00  0.00     0.061 A 
ATOM      4  C   UNL d   1     -56.834 -98.786 -45.402  0.00  0.00     0.101 A 
ATOM      5  C   UNL d   1     -58.139 -98.804 -44.812  0.00  0.00     0.014 A 
ATOM      6  O   UNL d   1     -57.165 -98.793 -46.150  0.00  0.00    -0.288 OA
ATOM      7  C   UNL d   1     -57.002 -98.784 -43.984  0.00  0.00     0.194 A 
ATOM      8  C   UNL d   1     -56.028 -98.773 -45.321  0.00  0.00     0.002 A 
ATOM      9  C   UNL d   1     -55.701 -98.766 -44.576  0.00  0.00     0.042 A 
ATOM     10  C   UNL d   1     -56.187 -98.771 -43.909  0.00  0.00     0.019 A 
ATOM     11  O   UNL d   1     -57.485 -98.789 -43.321  0.00  0.00    -0.287 OA
ATOM     12  N   UNL d   1     -58.343 -98.814 -47.008  0.00  0.00    -0.121 N 
ATOM     13  C   UNL d   1     -55.158 -98.755 -43.954  0.00  0.00     0.009 C 
ATOM     14  C   UNL d   1     -54.932 -98.755 -44.918  0.00  0.00     0.009 C 
ENDROOT
BRANCH   5  15
ATOM     15  C   UNL d   1     -58.622 -98.809 -44.149  0.00  0.00     0.000 A 
ATOM     16  C   UNL d   1     -59.437 -98.755 -44.229  0.00  0.00     0.000 A 
ATOM     17  C   UNL d   1     -59.902 -98.763 -43.541  0.00  0.00     0.000 A 
ATOM     18  C   UNL d   1     -59.580 -98.821 -42.799  0.00  0.00     0.000 A 
ATOM     19  C   UNL d   1     -58.767 -98.874 -42.716  0.00  0.00     0.000 A 
ATOM     20  C   UNL d   1     -58.279 -98.869 -43.386  0.00  0.00     0.000 A 
ENDBRANCH   5  15
BRANCH   1  21
ATOM     21  C   UNL d   1     -59.318 -98.824 -45.671  0.00  0.00     0.304 C 
ATOM     22  O   UNL d   1     -59.784 -98.898 -45.031  0.00  0.00    -0.259 OA
BRANCH  21  23
ATOM     23  O   UNL d   1     -59.640 -98.761 -46.421  0.00  0.00    -0.271 OA
BRANCH  23  24
ATOM     24  C   UNL d   1     -59.829 -99.294 -46.725  0.00  0.00     0.126 C 
ATOM     25  C   UNL d   1     -59.756 -99.381 -47.565  0.00  0.00     0.029 C 
ENDBRANCH  23  24
ENDBRANCH  21  23
ENDBRANCH   1  21
TORSDOF 4
ENDMDL
