MODEL 1
REMARK VINA RESULT:      11.5      0.000      0.000
REMARK  2 active torsions:
REMARK  status: ('A' for Active; 'I' for Inactive)
REMARK    1  A    between atoms: C_4  and  C_1 
REMARK    2  A    between atoms: C_8  and  C_4 
ROOT
ATOM      1  C   UNL d   1      45.580 -13.752  44.405  0.00  0.00     0.139 A 
ATOM      2  O   UNL d   1      44.899 -14.213  44.510  0.00  0.00    -0.304 OA
ATOM      3  C   UNL d   1      46.236 -14.215  44.491  0.00  0.00     0.030 A 
ATOM      4  C   UNL d   1      45.158 -14.985  44.666  0.00  0.00     0.100 A 
ATOM      5  C   UNL d   1      45.981 -14.986  44.654  0.00  0.00     0.025 A 
ATOM      6  C   UNL d   1      44.737 -15.685  44.817  0.00  0.00     0.025 A 
ATOM      7  C   UNL d   1      46.405 -15.688  44.793  0.00  0.00     0.002 A 
ATOM      8  C   UNL d   1      45.160 -16.380  44.954  0.00  0.00     0.002 A 
ATOM      9  C   UNL d   1      45.983 -16.382  44.943  0.00  0.00     0.000 A 
ENDROOT
BRANCH   1  10
ATOM     10  C   UNL d   1      45.579 -12.927  44.234  0.00  0.00     0.218 C 
ATOM     11  O   UNL d   1      45.855 -12.379  44.796  0.00  0.00    -0.284 OA
BRANCH  10  12
ATOM     12  C   UNL d   1      45.305 -12.645  43.508  0.00  0.00     0.041 A 
ATOM     13  C   UNL d   1      44.503 -12.449  43.438  0.00  0.00     0.003 A 
ATOM     14  C   UNL d   1      44.224 -12.166  42.708  0.00  0.00     0.000 A 
ATOM     15  C   UNL d   1      44.734 -12.081  42.069  0.00  0.00     0.000 A 
ATOM     16  C   UNL d   1      45.534 -12.279  42.147  0.00  0.00     0.000 A 
ATOM     17  C   UNL d   1      45.815 -12.561  42.869  0.00  0.00     0.003 A 
ENDBRANCH  10  12
ENDBRANCH   1  10
TORSDOF 2
ENDMDL
