MODEL 1
REMARK VINA RESULT:      42.7      0.000      0.000
REMARK  8 active torsions:
REMARK  status: ('A' for Active; 'I' for Inactive)
REMARK    1  A    between atoms: C_9  and  N_1 
REMARK    2  A    between atoms: C_7  and  C_2 
REMARK    3  A    between atoms: C_6  and  C_4 
REMARK    4  A    between atoms: C_8  and  C_12 
REMARK       I    between atoms: N_25  and  C_8 
REMARK    5  A    between atoms: N_11  and  C_26 
REMARK    6  A    between atoms: C_30  and  N_25 
REMARK    7  A    between atoms: C_26  and  C_27 
REMARK    8  A    between atoms: C_27  and  C_30 
ROOT
ATOM      1  C   UNL d   1      44.817 -16.732  38.208  0.00  0.00     0.083 A 
ATOM      2  C   UNL d   1      45.671 -17.649  39.281  0.00  0.00     0.058 A 
ATOM      3  C   UNL d   1      45.369 -17.276  37.929  0.00  0.00     0.019 A 
ATOM      4  C   UNL d   1      44.688 -16.643  39.018  0.00  0.00     0.019 A 
ATOM      5  C   UNL d   1      45.111 -17.097  39.554  0.00  0.00     0.006 A 
ATOM      6  C   UNL d   1      45.792 -17.731  38.460  0.00  0.00     0.006 A 
ENDROOT
BRANCH   1   7
ATOM      7  N   UNL d   1      44.385 -16.269  37.673  0.00  0.00    -0.229 N 
ATOM      8  C   UNL d   1      44.675 -15.645  37.221  0.00  0.00     0.090 A 
ATOM      9  C   UNL d   1      44.054 -15.344  36.770  0.00  0.00     0.044 A 
ATOM     10  C   UNL d   1      43.381 -15.790  36.950  0.00  0.00     0.174 A 
ATOM     11  N   UNL d   1      43.595 -16.354  37.505  0.00  0.00    -0.161 NA
BRANCH   8  12
ATOM     12  C   UNL d   1      45.425 -15.307  37.158  0.00  0.00     0.047 A 
ATOM     13  S   UNL d   1      46.244 -15.467  37.160  0.00  0.00    -0.085 SA
ATOM     14  C   UNL d   1      46.647 -14.749  37.054  0.00  0.00     0.035 A 
ATOM     15  C   UNL d   1      46.083 -14.157  36.988  0.00  0.00     0.007 A 
ATOM     16  C   UNL d   1      45.340 -14.486  37.050  0.00  0.00     0.009 A 
ENDBRANCH   8  12
BRANCH  10  17
ATOM     17  C   UNL d   1      42.626 -15.683  36.627  0.00  0.00     0.437 C 
ATOM     18  F   UNL d   1      42.231 -14.951  36.386  0.00  0.00    -0.164 F 
ATOM     19  F   UNL d   1      42.020 -16.273  36.437  0.00  0.00    -0.164 F 
ATOM     20  F   UNL d   1      41.937 -15.585  36.331  0.00  0.00    -0.164 F 
ENDBRANCH  10  17
ENDBRANCH   1   7
BRANCH   2  21
ATOM     21  C   UNL d   1      46.098 -18.109  39.818  0.00  0.00     0.279 C 
ATOM     22  O   UNL d   1      46.602 -18.696  39.543  0.00  0.00    -0.265 OA
ATOM     23  N   UNL d   1      46.015 -17.974  40.627  0.00  0.00    -0.206 NA
BRANCH  23  24
ATOM     24  C   UNL d   1      46.441 -18.432  41.161  0.00  0.00     0.104 C 
BRANCH  24  25
ATOM     25  C   UNL d   1      46.083 -18.699  41.859  0.00  0.00     0.040 C 
BRANCH  25  26
ATOM     26  C   UNL d   1      46.414 -19.312  42.290  0.00  0.00     0.082 C 
BRANCH  26  27
ATOM     27  N   UNL d   1      46.373 -19.319  43.116  0.00  0.00    -0.299 N 
ATOM     28  C   UNL d   1      46.274 -20.035  43.516  0.00  0.00     0.107 A 
ATOM     29  C   UNL d   1      46.235 -20.031  44.339  0.00  0.00     0.142 A 
ATOM     30  O   UNL d   1      46.294 -19.326  44.756  0.00  0.00    -0.300 OA
ATOM     31  C   UNL d   1      46.392 -18.616  44.351  0.00  0.00     0.142 A 
ATOM     32  C   UNL d   1      46.433 -18.607  43.522  0.00  0.00     0.107 A 
ENDBRANCH  26  27
ENDBRANCH  25  26
ENDBRANCH  24  25
ENDBRANCH  23  24
ENDBRANCH   2  21
TORSDOF 8
ENDMDL
