MODEL 1
REMARK VINA RESULT:      -5.3      0.000      0.000
REMARK  3 active torsions:
REMARK  status: ('A' for Active; 'I' for Inactive)
REMARK    1  A    between atoms: S_11  and  C_7 
REMARK    2  A    between atoms: C_12  and  S_11 
REMARK    3  A    between atoms: C_14  and  C_12 
ROOT
ATOM      1  N   UNL d   1      59.226   0.632  30.040  0.00  0.00    -0.167 N 
ATOM      2  C   UNL d   1      58.656   0.609  29.451  0.00  0.00     0.220 A 
ATOM      3  C   UNL d   1      60.033   0.656  29.850  0.00  0.00     0.301 A 
ATOM      4  S   UNL d   1      57.916   0.588  29.819  0.00  0.00    -0.019 SA
ATOM      5  N   UNL d   1      58.852   0.625  30.768  0.00  0.00    -0.147 NA
ATOM      6  N   UNL d   1      58.881   0.611  28.659  0.00  0.00    -0.121 NA
ATOM      7  C   UNL d   1      58.041   0.598  30.631  0.00  0.00     0.163 A 
ATOM      8  N   UNL d   1      59.676   0.635  28.456  0.00  0.00    -0.141 NA
ATOM      9  C   UNL d   1      60.250   0.658  29.049  0.00  0.00     0.161 A 
ATOM     10  O   UNL d   1      60.600   0.678  30.437  0.00  0.00    -0.263 OA
ATOM     11  C   UNL d   1      61.048   0.682  28.851  0.00  0.00     0.028 C 
ENDROOT
BRANCH   7  12
ATOM     12  S   UNL d   1      57.451   0.583  31.208  0.00  0.00    -0.059 SA
BRANCH  12  13
ATOM     13  C   UNL d   1      57.237  -0.124  31.565  0.00  0.00     0.037 C 
BRANCH  13  14
ATOM     14  C   UNL d   1      56.631  -0.132  32.129  0.00  0.00     0.006 A 
ATOM     15  C   UNL d   1      56.345  -0.850  32.416  0.00  0.00     0.001 A 
ATOM     16  C   UNL d   1      55.746  -0.867  32.975  0.00  0.00     0.000 A 
ATOM     17  C   UNL d   1      55.463  -1.579  33.258  0.00  0.00     0.000 C 
ATOM     18  C   UNL d   1      55.424  -0.158  33.255  0.00  0.00     0.000 A 
ATOM     19  C   UNL d   1      55.707   0.563  32.971  0.00  0.00     0.000 A 
ATOM     20  C   UNL d   1      56.310   0.578  32.409  0.00  0.00     0.001 A 
ENDBRANCH  13  14
ENDBRANCH  12  13
ENDBRANCH   7  12
TORSDOF 3
ENDMDL
MODEL 2
REMARK VINA RESULT:      -5.2      1.267      1.310
REMARK  3 active torsions:
REMARK  status: ('A' for Active; 'I' for Inactive)
REMARK    1  A    between atoms: S_11  and  C_7 
REMARK    2  A    between atoms: C_12  and  S_11 
REMARK    3  A    between atoms: C_14  and  C_12 
ROOT
ATOM      1  N   UNL d   1      58.622  -0.662  29.803  0.00  0.00    -0.167 N 
ATOM      2  C   UNL d   1      58.850   0.125  29.762  0.00  0.00     0.220 A 
ATOM      3  C   UNL d   1      59.022  -1.244  29.369  0.00  0.00     0.301 A 
ATOM      4  S   UNL d   1      58.346   0.558  30.254  0.00  0.00    -0.019 SA
ATOM      5  N   UNL d   1      57.985  -0.724  30.313  0.00  0.00    -0.147 NA
ATOM      6  N   UNL d   1      59.483   0.346  29.284  0.00  0.00    -0.121 NA
ATOM      7  C   UNL d   1      57.814   0.031  30.592  0.00  0.00     0.163 A 
ATOM      8  N   UNL d   1      59.889  -0.220  28.848  0.00  0.00    -0.141 NA
ATOM      9  C   UNL d   1      59.659  -1.011  28.890  0.00  0.00     0.161 A 
ATOM     10  O   UNL d   1      58.795  -2.028  29.411  0.00  0.00    -0.263 OA
ATOM     11  C   UNL d   1      60.062  -1.582  28.455  0.00  0.00     0.028 C 
ENDROOT
BRANCH   7  12
ATOM     12  S   UNL d   1      57.213   0.229  31.121  0.00  0.00    -0.059 SA
BRANCH  12  13
ATOM     13  C   UNL d   1      57.283   0.047  31.918  0.00  0.00     0.037 C 
BRANCH  13  14
ATOM     14  C   UNL d   1      56.605  -0.003  32.389  0.00  0.00     0.006 A 
ATOM     15  C   UNL d   1      56.328  -0.740  32.635  0.00  0.00     0.001 A 
ATOM     16  C   UNL d   1      55.657  -0.799  33.101  0.00  0.00     0.000 A 
ATOM     17  C   UNL d   1      55.383  -1.529  33.344  0.00  0.00     0.000 C 
ATOM     18  C   UNL d   1      55.252  -0.115  33.328  0.00  0.00     0.000 A 
ATOM     19  C   UNL d   1      55.525   0.625  33.085  0.00  0.00     0.000 A 
ATOM     20  C   UNL d   1      56.200   0.682  32.616  0.00  0.00     0.001 A 
ENDBRANCH  13  14
ENDBRANCH  12  13
ENDBRANCH   7  12
TORSDOF 3
ENDMDL
MODEL 3
REMARK VINA RESULT:      -4.0      2.442      4.795
REMARK  3 active torsions:
REMARK  status: ('A' for Active; 'I' for Inactive)
REMARK    1  A    between atoms: S_11  and  C_7 
REMARK    2  A    between atoms: C_12  and  S_11 
REMARK    3  A    between atoms: C_14  and  C_12 
ROOT
ATOM      1  N   UNL d   1      56.462   0.465  32.824  0.00  0.00    -0.167 N 
ATOM      2  C   UNL d   1      57.195   0.615  33.161  0.00  0.00     0.220 A 
ATOM      3  C   UNL d   1      55.787   0.379  33.297  0.00  0.00     0.301 A 
ATOM      4  S   UNL d   1      57.746   0.670  32.548  0.00  0.00    -0.019 SA
ATOM      5  N   UNL d   1      56.550   0.427  32.011  0.00  0.00    -0.147 NA
ATOM      6  N   UNL d   1      57.267   0.682  33.979  0.00  0.00    -0.121 NA
ATOM      7  C   UNL d   1      57.345   0.554  31.840  0.00  0.00     0.163 A 
ATOM      8  N   UNL d   1      56.606   0.599  34.459  0.00  0.00    -0.141 NA
ATOM      9  C   UNL d   1      55.869   0.448  34.120  0.00  0.00     0.161 A 
ATOM     10  O   UNL d   1      55.057   0.230  32.961  0.00  0.00    -0.263 OA
ATOM     11  C   UNL d   1      55.204   0.364  34.597  0.00  0.00     0.028 C 
ENDROOT
BRANCH   7  12
ATOM     12  S   UNL d   1      57.684   0.562  31.088  0.00  0.00    -0.059 SA
BRANCH  12  13
ATOM     13  C   UNL d   1      57.909  -0.138  30.725  0.00  0.00     0.037 C 
BRANCH  13  14
ATOM     14  C   UNL d   1      58.241  -0.119  29.967  0.00  0.00     0.006 A 
ATOM     15  C   UNL d   1      58.495  -0.819  29.612  0.00  0.00     0.001 A 
ATOM     16  C   UNL d   1      58.824  -0.809  28.862  0.00  0.00     0.000 A 
ATOM     17  C   UNL d   1      59.076  -1.503  28.511  0.00  0.00     0.000 C 
ATOM     18  C   UNL d   1      58.904  -0.093  28.455  0.00  0.00     0.000 A 
ATOM     19  C   UNL d   1      58.651   0.609  28.807  0.00  0.00     0.000 A 
ATOM     20  C   UNL d   1      58.320   0.598  29.561  0.00  0.00     0.001 A 
ENDBRANCH  13  14
ENDBRANCH  12  13
ENDBRANCH   7  12
TORSDOF 3
ENDMDL
MODEL 4
REMARK VINA RESULT:      -3.7      2.147      2.255
REMARK  3 active torsions:
REMARK  status: ('A' for Active; 'I' for Inactive)
REMARK    1  A    between atoms: S_11  and  C_7 
REMARK    2  A    between atoms: C_12  and  S_11 
REMARK    3  A    between atoms: C_14  and  C_12 
ROOT
ATOM      1  N   UNL d   1      59.347  -1.803  29.447  0.00  0.00    -0.167 N 
ATOM      2  C   UNL d   1      59.785  -1.125  29.299  0.00  0.00     0.220 A 
ATOM      3  C   UNL d   1      59.601  -2.541  29.169  0.00  0.00     0.301 A 
ATOM      4  S   UNL d   1      59.387  -0.490  29.647  0.00  0.00    -0.019 SA
ATOM      5  N   UNL d   1      58.684  -1.598  29.881  0.00  0.00    -0.147 NA
ATOM      6  N   UNL d   1      60.486  -1.172  28.870  0.00  0.00    -0.121 NA
ATOM      7  C   UNL d   1      58.709  -0.784  30.005  0.00  0.00     0.163 A 
ATOM      8  N   UNL d   1      60.749  -1.897  28.588  0.00  0.00    -0.141 NA
ATOM      9  C   UNL d   1      60.308  -2.579  28.736  0.00  0.00     0.161 A 
ATOM     10  O   UNL d   1      59.164  -3.216  29.316  0.00  0.00    -0.263 OA
ATOM     11  C   UNL d   1      60.568  -3.307  28.456  0.00  0.00     0.028 C 
ENDROOT
BRANCH   7  12
ATOM     12  S   UNL d   1      58.150  -0.339  30.417  0.00  0.00    -0.059 SA
BRANCH  12  13
ATOM     13  C   UNL d   1      57.449  -0.682  30.668  0.00  0.00     0.037 C 
BRANCH  13  14
ATOM     14  C   UNL d   1      57.073  -0.398  31.349  0.00  0.00     0.006 A 
ATOM     15  C   UNL d   1      56.660  -0.917  31.838  0.00  0.00     0.001 A 
ATOM     16  C   UNL d   1      56.286  -0.644  32.514  0.00  0.00     0.000 A 
ATOM     17  C   UNL d   1      55.877  -1.160  32.998  0.00  0.00     0.000 C 
ATOM     18  C   UNL d   1      56.321   0.158  32.709  0.00  0.00     0.000 A 
ATOM     19  C   UNL d   1      56.733   0.682  32.223  0.00  0.00     0.000 A 
ATOM     20  C   UNL d   1      57.109   0.406  31.543  0.00  0.00     0.001 A 
ENDBRANCH  13  14
ENDBRANCH  12  13
ENDBRANCH   7  12
TORSDOF 3
ENDMDL
MODEL 5
REMARK VINA RESULT:      -3.3     10.086     10.443
REMARK  3 active torsions:
REMARK  status: ('A' for Active; 'I' for Inactive)
REMARK    1  A    between atoms: S_11  and  C_7 
REMARK    2  A    between atoms: C_12  and  S_11 
REMARK    3  A    between atoms: C_14  and  C_12 
ROOT
ATOM      1  N   UNL d   1      58.497  -9.817  31.598  0.00  0.00    -0.167 N 
ATOM      2  C   UNL d   1      59.260  -9.817  31.296  0.00  0.00     0.220 A 
ATOM      3  C   UNL d   1      57.840  -9.816  31.092  0.00  0.00     0.301 A 
ATOM      4  S   UNL d   1      59.782  -9.818  31.937  0.00  0.00    -0.019 SA
ATOM      5  N   UNL d   1      58.538  -9.817  32.415  0.00  0.00    -0.147 NA
ATOM      6  N   UNL d   1      59.382  -9.817  30.482  0.00  0.00    -0.121 NA
ATOM      7  C   UNL d   1      59.334  -9.818  32.625  0.00  0.00     0.163 A 
ATOM      8  N   UNL d   1      58.741  -9.817  29.969  0.00  0.00    -0.141 NA
ATOM      9  C   UNL d   1      57.973  -9.816  30.272  0.00  0.00     0.161 A 
ATOM     10  O   UNL d   1      57.081  -9.816  31.392  0.00  0.00    -0.263 OA
ATOM     11  C   UNL d   1      57.328  -9.816  29.762  0.00  0.00     0.028 C 
ENDROOT
BRANCH   7  12
ATOM     12  S   UNL d   1      59.632  -9.818  33.394  0.00  0.00    -0.059 SA
BRANCH  12  13
ATOM     13  C   UNL d   1      59.869  -9.117  33.748  0.00  0.00     0.037 C 
BRANCH  13  14
ATOM     14  C   UNL d   1      60.013  -9.098  34.563  0.00  0.00     0.006 A 
ATOM     15  C   UNL d   1      59.585  -8.582  35.045  0.00  0.00     0.001 A 
ATOM     16  C   UNL d   1      59.721  -8.557  35.852  0.00  0.00     0.000 A 
ATOM     17  C   UNL d   1      59.297  -8.046  36.328  0.00  0.00     0.000 C 
ATOM     18  C   UNL d   1      60.293  -9.050  36.190  0.00  0.00     0.000 A 
ATOM     19  C   UNL d   1      60.723  -9.567  35.712  0.00  0.00     0.000 A 
ATOM     20  C   UNL d   1      60.585  -9.592  34.900  0.00  0.00     0.001 A 
ENDBRANCH  13  14
ENDBRANCH  12  13
ENDBRANCH   7  12
TORSDOF 3
ENDMDL
MODEL 6
REMARK VINA RESULT:      -2.5     10.108     10.572
REMARK  3 active torsions:
REMARK  status: ('A' for Active; 'I' for Inactive)
REMARK    1  A    between atoms: S_11  and  C_7 
REMARK    2  A    between atoms: C_12  and  S_11 
REMARK    3  A    between atoms: C_14  and  C_12 
ROOT
ATOM      1  N   UNL d   1      59.730  -8.870  34.647  0.00  0.00    -0.167 N 
ATOM      2  C   UNL d   1      59.204  -9.310  35.098  0.00  0.00     0.220 A 
ATOM      3  C   UNL d   1      60.303  -8.392  35.008  0.00  0.00     0.301 A 
ATOM      4  S   UNL d   1      58.711  -9.721  34.578  0.00  0.00    -0.019 SA
ATOM      5  N   UNL d   1      59.571  -9.002  33.855  0.00  0.00    -0.147 NA
ATOM      6  N   UNL d   1      59.240  -9.280  35.920  0.00  0.00    -0.121 NA
ATOM      7  C   UNL d   1      58.940  -9.529  33.812  0.00  0.00     0.163 A 
ATOM      8  N   UNL d   1      59.803  -8.811  36.291  0.00  0.00    -0.141 NA
ATOM      9  C   UNL d   1      60.331  -8.368  35.838  0.00  0.00     0.161 A 
ATOM     10  O   UNL d   1      60.826  -7.954  34.559  0.00  0.00    -0.263 OA
ATOM     11  C   UNL d   1      60.897  -7.896  36.205  0.00  0.00     0.028 C 
ENDROOT
BRANCH   7  12
ATOM     12  S   UNL d   1      58.595  -9.817  33.121  0.00  0.00    -0.059 SA
BRANCH  12  13
ATOM     13  C   UNL d   1      58.834  -9.535  32.388  0.00  0.00     0.037 C 
BRANCH  13  14
ATOM     14  C   UNL d   1      58.340  -9.630  31.731  0.00  0.00     0.006 A 
ATOM     15  C   UNL d   1      58.666  -9.672  30.974  0.00  0.00     0.001 A 
ATOM     16  C   UNL d   1      58.184  -9.765  30.318  0.00  0.00     0.000 A 
ATOM     17  C   UNL d   1      58.507  -9.807  29.569  0.00  0.00     0.000 C 
ATOM     18  C   UNL d   1      57.364  -9.818  30.413  0.00  0.00     0.000 A 
ATOM     19  C   UNL d   1      57.034  -9.776  31.168  0.00  0.00     0.000 A 
ATOM     20  C   UNL d   1      57.520  -9.682  31.827  0.00  0.00     0.001 A 
ENDBRANCH  13  14
ENDBRANCH  12  13
ENDBRANCH   7  12
TORSDOF 3
ENDMDL
