MODEL 1
REMARK VINA RESULT:      56.4      0.000      0.000
REMARK  5 active torsions:
REMARK  status: ('A' for Active; 'I' for Inactive)
REMARK    1  A    between atoms: C_7  and  C_1 
REMARK    2  A    between atoms: C_13  and  C_2 
REMARK    3  A    between atoms: C_12  and  N_3 
REMARK    4  A    between atoms: C_4  and  C_7 
REMARK    5  A    between atoms: O_17  and  C_13 
ROOT
ATOM      1  N   UNL d   1     -51.667  25.184  33.309  0.00  0.00    -0.305 N 
ATOM      2  C   UNL d   1     -50.825  26.219  33.308  0.00  0.00     0.018 A 
ATOM      3  C   UNL d   1     -50.904  24.887  33.310  0.00  0.00     0.064 A 
ATOM      4  C   UNL d   1     -51.628  26.009  33.308  0.00  0.00     0.064 A 
ATOM      5  C   UNL d   1     -50.377  25.535  33.309  0.00  0.00     0.019 A 
ATOM      6  C   UNL d   1     -50.689  24.094  33.312  0.00  0.00     0.019 C 
ATOM      7  C   UNL d   1     -52.268  26.531  33.306  0.00  0.00     0.019 C 
ENDROOT
BRANCH   2   8
ATOM      8  C   UNL d   1     -50.525  26.991  33.306  0.00  0.00     0.006 C 
BRANCH   8   9
ATOM      9  C   UNL d   1     -49.853  27.172  33.740  0.00  0.00     0.065 A 
ATOM     10  C   UNL d   1     -49.645  27.922  34.015  0.00  0.00     0.086 A 
ATOM     11  C   UNL d   1     -48.927  27.855  34.425  0.00  0.00     0.090 A 
ATOM     12  C   UNL d   1     -48.525  28.469  34.788  0.00  0.00     0.021 C 
ATOM     13  N   UNL d   1     -48.691  27.065  34.403  0.00  0.00    -0.208 NA
ATOM     14  C   UNL d   1     -49.264  26.639  33.978  0.00  0.00     0.279 A 
ATOM     15  O   UNL d   1     -49.255  25.836  33.819  0.00  0.00    -0.265 OA
BRANCH  10  16
ATOM     16  C   UNL d   1     -50.074  28.617  33.905  0.00  0.00     0.297 C 
ATOM     17  O   UNL d   1     -50.854  28.592  33.623  0.00  0.00    -0.259 OA
BRANCH  16  18
ATOM     18  O   UNL d   1     -49.734  29.354  34.073  0.00  0.00    -0.296 OA
ATOM     19  C   UNL d   1     -50.147  30.052  33.924  0.00  0.00     0.185 C 
ENDBRANCH  16  18
ENDBRANCH  10  16
ENDBRANCH   8   9
ENDBRANCH   2   8
BRANCH   1  20
ATOM     20  C   UNL d   1     -52.356  24.727  33.310  0.00  0.00     0.092 A 
ATOM     21  C   UNL d   1     -52.308  23.919  33.312  0.00  0.00     0.156 A 
ATOM     22  F   UNL d   1     -51.572  23.547  33.313  0.00  0.00    -0.203 F 
ATOM     23  C   UNL d   1     -53.000  23.454  33.312  0.00  0.00     0.031 A 
ATOM     24  C   UNL d   1     -53.739  23.838  33.310  0.00  0.00     0.002 A 
ATOM     25  C   UNL d   1     -53.779  24.663  33.308  0.00  0.00     0.002 A 
ATOM     26  C   UNL d   1     -53.087  25.107  33.308  0.00  0.00     0.020 A 
ENDBRANCH   1  20
TORSDOF 5
ENDMDL
