MODEL 1
REMARK VINA RESULT:      -3.9      0.000      0.000
REMARK  6 active torsions:
REMARK  status: ('A' for Active; 'I' for Inactive)
REMARK    1  A    between atoms: N_7  and  C_1 
REMARK    2  A    between atoms: S_2  and  C_14 
REMARK    3  A    between atoms: N_9  and  S_2 
REMARK       I    between atoms: C_11  and  N_7 
REMARK       I    between atoms: C_10  and  N_8 
REMARK    4  A    between atoms: O_27  and  C_10 
REMARK    5  A    between atoms: C_19  and  C_11 
REMARK    6  A    between atoms: C_30  and  O_27 
ROOT
ATOM      1  C   UNL d   1     -44.356  12.850  21.907  0.00  0.00     0.099 A 
ATOM      2  C   UNL d   1     -43.695  12.384  22.071  0.00  0.00     0.091 A 
ATOM      3  C   UNL d   1     -43.260  13.463  21.413  0.00  0.00     0.049 A 
ATOM      4  C   UNL d   1     -43.023  12.757  21.769  0.00  0.00     0.021 A 
ATOM      5  S   UNL d   1     -44.084  13.529  21.494  0.00  0.00    -0.068 SA
ATOM      6  N   UNL d   1     -41.896  13.749  21.061  0.00  0.00    -0.251 N 
ATOM      7  C   UNL d   1     -41.339  14.243  20.709  0.00  0.00     0.378 C 
ATOM      8  C   UNL d   1     -42.697  13.963  21.057  0.00  0.00     0.091 A 
ATOM      9  C   UNL d   1     -43.694  11.663  22.468  0.00  0.00     0.103 C 
ATOM     10  N   UNL d   1     -43.707  10.949  22.864  0.00  0.00    -0.191 NA
ATOM     11  C   UNL d   1     -42.221  12.549  21.770  0.00  0.00     0.020 A 
ATOM     12  C   UNL d   1     -41.665  13.045  21.417  0.00  0.00     0.085 A 
ATOM     13  O   UNL d   1     -41.566  14.949  20.352  0.00  0.00    -0.237 OA
ENDROOT
BRANCH   1  14
ATOM     14  N   UNL d   1     -45.140  12.675  22.116  0.00  0.00    -0.316 N 
ATOM     15  C   UNL d   1     -45.664  13.292  22.316  0.00  0.00     0.258 C 
ATOM     16  O   UNL d   1     -45.395  14.075  22.305  0.00  0.00    -0.267 OA
ATOM     17  H   UNL d   1     -45.667  12.329  22.237  0.00  0.00     0.169 HD
BRANCH  15  18
ATOM     18  C   UNL d   1     -46.447  13.117  22.525  0.00  0.00     0.056 A 
ATOM     19  C   UNL d   1     -47.021  13.070  21.936  0.00  0.00     0.005 A 
ATOM     20  C   UNL d   1     -47.809  12.895  22.136  0.00  0.00     0.013 A 
ATOM     21  C   UNL d   1     -48.008  12.768  22.933  0.00  0.00     0.104 A 
ATOM     22  C   UNL d   1     -47.421  12.817  23.519  0.00  0.00     0.013 A 
ATOM     23  C   UNL d   1     -46.643  12.991  23.319  0.00  0.00     0.005 A 
BRANCH  21  24
ATOM     24  S   UNL d   1     -48.795  12.592  23.137  0.00  0.00     0.271 S 
ATOM     25  O   UNL d   1     -48.535  11.824  23.328  0.00  0.00    -0.200 OA
ATOM     26  O   UNL d   1     -49.049  13.354  22.948  0.00  0.00    -0.200 OA
BRANCH  24  27
ATOM     27  N   UNL d   1     -49.574  12.415  23.341  0.00  0.00    -0.229 N 
ATOM     28  C   UNL d   1     -49.900  11.651  23.392  0.00  0.00     0.092 A 
ATOM     29  C   UNL d   1     -50.688  11.728  23.611  0.00  0.00     0.021 A 
ATOM     30  C   UNL d   1     -50.859  12.529  23.696  0.00  0.00     0.021 A 
ATOM     31  C   UNL d   1     -50.170  12.950  23.529  0.00  0.00     0.092 A 
ENDBRANCH  24  27
ENDBRANCH  21  24
ENDBRANCH  15  18
ENDBRANCH   1  14
BRANCH   7  32
ATOM     32  O   UNL d   1     -40.534  14.022  20.716  0.00  0.00    -0.257 OA
BRANCH  32  33
ATOM     33  C   UNL d   1     -39.974  14.547  20.442  0.00  0.00     0.128 C 
ATOM     34  C   UNL d   1     -39.191  14.309  20.379  0.00  0.00     0.029 C 
ENDBRANCH  32  33
ENDBRANCH   7  32
TORSDOF 6
ENDMDL
MODEL 2
REMARK VINA RESULT:      -3.2      1.245      7.147
REMARK  6 active torsions:
REMARK  status: ('A' for Active; 'I' for Inactive)
REMARK    1  A    between atoms: N_7  and  C_1 
REMARK    2  A    between atoms: S_2  and  C_14 
REMARK    3  A    between atoms: N_9  and  S_2 
REMARK       I    between atoms: C_11  and  N_7 
REMARK       I    between atoms: C_10  and  N_8 
REMARK    4  A    between atoms: O_27  and  C_10 
REMARK    5  A    between atoms: C_19  and  C_11 
REMARK    6  A    between atoms: C_30  and  O_27 
ROOT
ATOM      1  C   UNL d   1     -45.804  13.387  22.321  0.00  0.00     0.099 A 
ATOM      2  C   UNL d   1     -46.395  13.914  22.554  0.00  0.00     0.091 A 
ATOM      3  C   UNL d   1     -46.884  12.681  22.717  0.00  0.00     0.049 A 
ATOM      4  C   UNL d   1     -47.057  13.484  22.798  0.00  0.00     0.021 A 
ATOM      5  S   UNL d   1     -46.110  12.612  22.423  0.00  0.00    -0.068 SA
ATOM      6  N   UNL d   1     -48.193  12.346  23.208  0.00  0.00    -0.251 N 
ATOM      7  C   UNL d   1     -48.755  11.780  23.411  0.00  0.00     0.378 C 
ATOM      8  C   UNL d   1     -47.452  12.107  22.922  0.00  0.00     0.091 A 
ATOM      9  C   UNL d   1     -46.343  14.735  22.550  0.00  0.00     0.103 C 
ATOM     10  N   UNL d   1     -46.279  15.550  22.540  0.00  0.00    -0.191 NA
ATOM     11  C   UNL d   1     -47.799  13.716  23.083  0.00  0.00     0.020 A 
ATOM     12  C   UNL d   1     -48.360  13.147  23.286  0.00  0.00     0.085 A 
ATOM     13  O   UNL d   1     -48.591  10.976  23.334  0.00  0.00    -0.237 OA
ENDROOT
BRANCH   1  14
ATOM     14  N   UNL d   1     -45.051  13.592  22.039  0.00  0.00    -0.316 N 
ATOM     15  C   UNL d   1     -44.485  12.996  21.898  0.00  0.00     0.258 C 
ATOM     16  O   UNL d   1     -44.680  12.205  22.041  0.00  0.00    -0.267 OA
ATOM     17  H   UNL d   1     -44.564  13.957  21.834  0.00  0.00     0.169 HD
BRANCH  15  18
ATOM     18  C   UNL d   1     -43.732  13.201  21.616  0.00  0.00     0.056 A 
ATOM     19  C   UNL d   1     -43.174  12.609  21.485  0.00  0.00     0.005 A 
ATOM     20  C   UNL d   1     -42.417  12.807  21.202  0.00  0.00     0.013 A 
ATOM     21  C   UNL d   1     -42.232  13.604  21.055  0.00  0.00     0.104 A 
ATOM     22  C   UNL d   1     -42.802  14.193  21.191  0.00  0.00     0.013 A 
ATOM     23  C   UNL d   1     -43.549  13.995  21.470  0.00  0.00     0.005 A 
BRANCH  21  24
ATOM     24  S   UNL d   1     -41.477  13.805  20.773  0.00  0.00     0.271 S 
ATOM     25  O   UNL d   1     -41.277  14.005  21.557  0.00  0.00    -0.200 OA
ATOM     26  O   UNL d   1     -41.677  13.606  19.997  0.00  0.00    -0.200 OA
BRANCH  24  27
ATOM     27  N   UNL d   1     -40.726  14.005  20.496  0.00  0.00    -0.229 N 
ATOM     28  C   UNL d   1     -40.532  14.180  19.706  0.00  0.00     0.092 A 
ATOM     29  C   UNL d   1     -39.728  14.349  19.676  0.00  0.00     0.021 A 
ATOM     30  C   UNL d   1     -39.419  14.282  20.436  0.00  0.00     0.021 A 
ATOM     31  C   UNL d   1     -40.036  14.070  20.939  0.00  0.00     0.092 A 
ENDBRANCH  24  27
ENDBRANCH  21  24
ENDBRANCH  15  18
ENDBRANCH   1  14
BRANCH   7  32
ATOM     32  O   UNL d   1     -49.499  12.026  23.698  0.00  0.00    -0.257 OA
BRANCH  32  33
ATOM     33  C   UNL d   1     -50.130  11.511  23.663  0.00  0.00     0.128 C 
ATOM     34  C   UNL d   1     -50.895  11.806  23.691  0.00  0.00     0.029 C 
ENDBRANCH  32  33
ENDBRANCH   7  32
TORSDOF 6
ENDMDL
MODEL 3
REMARK VINA RESULT:      -3.1      1.122      7.019
REMARK  6 active torsions:
REMARK  status: ('A' for Active; 'I' for Inactive)
REMARK    1  A    between atoms: N_7  and  C_1 
REMARK    2  A    between atoms: S_2  and  C_14 
REMARK    3  A    between atoms: N_9  and  S_2 
REMARK       I    between atoms: C_11  and  N_7 
REMARK       I    between atoms: C_10  and  N_8 
REMARK    4  A    between atoms: O_27  and  C_10 
REMARK    5  A    between atoms: C_19  and  C_11 
REMARK    6  A    between atoms: C_30  and  O_27 
ROOT
ATOM      1  C   UNL d   1     -45.550  12.732  22.667  0.00  0.00     0.099 A 
ATOM      2  C   UNL d   1     -45.804  12.073  23.094  0.00  0.00     0.091 A 
ATOM      3  C   UNL d   1     -46.894  12.783  22.789  0.00  0.00     0.049 A 
ATOM      4  C   UNL d   1     -46.626  12.102  23.170  0.00  0.00     0.021 A 
ATOM      5  S   UNL d   1     -46.234  13.179  22.474  0.00  0.00    -0.068 SA
ATOM      6  N   UNL d   1     -48.248  12.454  23.142  0.00  0.00    -0.251 N 
ATOM      7  C   UNL d   1     -49.052  12.630  23.128  0.00  0.00     0.378 C 
ATOM      8  C   UNL d   1     -47.707  12.963  22.773  0.00  0.00     0.091 A 
ATOM      9  C   UNL d   1     -45.324  11.478  23.399  0.00  0.00     0.103 C 
ATOM     10  N   UNL d   1     -44.837  10.893  23.697  0.00  0.00    -0.191 NA
ATOM     11  C   UNL d   1     -47.170  11.597  23.537  0.00  0.00     0.020 A 
ATOM     12  C   UNL d   1     -47.975  11.777  23.521  0.00  0.00     0.085 A 
ATOM     13  O   UNL d   1     -49.328  13.307  22.749  0.00  0.00    -0.237 OA
ENDROOT
BRANCH   1  14
ATOM     14  N   UNL d   1     -44.765  12.912  22.469  0.00  0.00    -0.316 N 
ATOM     15  C   UNL d   1     -44.558  13.039  21.670  0.00  0.00     0.258 C 
ATOM     16  O   UNL d   1     -45.140  12.984  21.084  0.00  0.00    -0.267 OA
ATOM     17  H   UNL d   1     -44.138  13.031  22.541  0.00  0.00     0.169 HD
BRANCH  15  18
ATOM     18  C   UNL d   1     -43.773  13.219  21.472  0.00  0.00     0.056 A 
ATOM     19  C   UNL d   1     -43.532  14.007  21.452  0.00  0.00     0.005 A 
ATOM     20  C   UNL d   1     -42.746  14.196  21.254  0.00  0.00     0.013 A 
ATOM     21  C   UNL d   1     -42.212  13.584  21.078  0.00  0.00     0.104 A 
ATOM     22  C   UNL d   1     -42.466  12.793  21.102  0.00  0.00     0.013 A 
ATOM     23  C   UNL d   1     -43.242  12.608  21.297  0.00  0.00     0.005 A 
BRANCH  21  24
ATOM     24  S   UNL d   1     -41.426  13.769  20.880  0.00  0.00     0.271 S 
ATOM     25  O   UNL d   1     -41.240  13.682  21.687  0.00  0.00    -0.200 OA
ATOM     26  O   UNL d   1     -41.612  13.854  20.080  0.00  0.00    -0.200 OA
BRANCH  24  27
ATOM     27  N   UNL d   1     -40.646  13.952  20.686  0.00  0.00    -0.229 N 
ATOM     28  C   UNL d   1     -40.359  14.102  19.920  0.00  0.00     0.092 A 
ATOM     29  C   UNL d   1     -39.554  14.260  19.978  0.00  0.00     0.021 A 
ATOM     30  C   UNL d   1     -39.336  14.211  20.771  0.00  0.00     0.021 A 
ATOM     31  C   UNL d   1     -40.010  14.021  21.204  0.00  0.00     0.092 A 
ENDBRANCH  24  27
ENDBRANCH  21  24
ENDBRANCH  15  18
ENDBRANCH   1  14
BRANCH   7  32
ATOM     32  O   UNL d   1     -49.591  12.114  23.501  0.00  0.00    -0.257 OA
BRANCH  32  33
ATOM     33  C   UNL d   1     -50.391  12.253  23.429  0.00  0.00     0.128 C 
ATOM     34  C   UNL d   1     -50.925  11.692  23.698  0.00  0.00     0.029 C 
ENDBRANCH  32  33
ENDBRANCH   7  32
TORSDOF 6
ENDMDL
MODEL 4
REMARK VINA RESULT:      -0.9      2.094      3.932
REMARK  6 active torsions:
REMARK  status: ('A' for Active; 'I' for Inactive)
REMARK    1  A    between atoms: N_7  and  C_1 
REMARK    2  A    between atoms: S_2  and  C_14 
REMARK    3  A    between atoms: N_9  and  S_2 
REMARK       I    between atoms: C_11  and  N_7 
REMARK       I    between atoms: C_10  and  N_8 
REMARK    4  A    between atoms: O_27  and  C_10 
REMARK    5  A    between atoms: C_19  and  C_11 
REMARK    6  A    between atoms: C_30  and  O_27 
ROOT
ATOM      1  C   UNL d   1     -41.279  14.195  20.470  0.00  0.00     0.099 A 
ATOM      2  C   UNL d   1     -40.574  14.523  20.748  0.00  0.00     0.091 A 
ATOM      3  C   UNL d   1     -40.461  14.421  19.420  0.00  0.00     0.049 A 
ATOM      4  C   UNL d   1     -40.072  14.662  20.107  0.00  0.00     0.021 A 
ATOM      5  S   UNL d   1     -41.209  14.131  19.636  0.00  0.00    -0.068 SA
ATOM      6  N   UNL d   1     -39.323  14.810  18.632  0.00  0.00    -0.251 N 
ATOM      7  C   UNL d   1     -38.954  14.883  17.901  0.00  0.00     0.378 C 
ATOM      8  C   UNL d   1     -40.089  14.494  18.679  0.00  0.00     0.091 A 
ATOM      9  C   UNL d   1     -40.391  14.688  21.533  0.00  0.00     0.103 C 
ATOM     10  N   UNL d   1     -40.221  14.847  22.316  0.00  0.00    -0.191 NA
ATOM     11  C   UNL d   1     -39.307  14.977  20.055  0.00  0.00     0.020 A 
ATOM     12  C   UNL d   1     -38.940  15.048  19.320  0.00  0.00     0.085 A 
ATOM     13  O   UNL d   1     -39.335  14.645  17.211  0.00  0.00    -0.237 OA
ENDROOT
BRANCH   1  14
ATOM     14  N   UNL d   1     -41.930  13.974  20.934  0.00  0.00    -0.316 N 
ATOM     15  C   UNL d   1     -42.439  13.367  20.672  0.00  0.00     0.258 C 
ATOM     16  O   UNL d   1     -42.288  12.991  19.950  0.00  0.00    -0.267 OA
ATOM     17  H   UNL d   1     -42.345  13.968  21.424  0.00  0.00     0.169 HD
BRANCH  15  18
ATOM     18  C   UNL d   1     -43.089  13.146  21.136  0.00  0.00     0.056 A 
ATOM     19  C   UNL d   1     -43.692  13.692  21.274  0.00  0.00     0.005 A 
ATOM     20  C   UNL d   1     -44.348  13.478  21.739  0.00  0.00     0.013 A 
ATOM     21  C   UNL d   1     -44.388  12.712  22.060  0.00  0.00     0.104 A 
ATOM     22  C   UNL d   1     -43.775  12.170  21.915  0.00  0.00     0.013 A 
ATOM     23  C   UNL d   1     -43.127  12.383  21.455  0.00  0.00     0.005 A 
BRANCH  21  24
ATOM     24  S   UNL d   1     -45.041  12.495  22.525  0.00  0.00     0.271 S 
ATOM     25  O   UNL d   1     -45.483  13.063  22.105  0.00  0.00    -0.200 OA
ATOM     26  O   UNL d   1     -44.603  11.932  22.939  0.00  0.00    -0.200 OA
BRANCH  24  27
ATOM     27  N   UNL d   1     -45.692  12.281  22.984  0.00  0.00    -0.229 N 
ATOM     28  C   UNL d   1     -45.857  11.516  23.266  0.00  0.00     0.092 A 
ATOM     29  C   UNL d   1     -46.555  11.551  23.698  0.00  0.00     0.021 A 
ATOM     30  C   UNL d   1     -46.829  12.328  23.689  0.00  0.00     0.021 A 
ATOM     31  C   UNL d   1     -46.295  12.775  23.249  0.00  0.00     0.092 A 
ENDBRANCH  24  27
ENDBRANCH  21  24
ENDBRANCH  15  18
ENDBRANCH   1  14
BRANCH   7  32
ATOM     32  O   UNL d   1     -38.183  15.202  17.860  0.00  0.00    -0.257 OA
BRANCH  32  33
ATOM     33  C   UNL d   1     -38.025  15.796  17.325  0.00  0.00     0.128 C 
ATOM     34  C   UNL d   1     -37.940  15.612  16.530  0.00  0.00     0.029 C 
ENDBRANCH  32  33
ENDBRANCH   7  32
TORSDOF 6
ENDMDL
