MODEL 1
REMARK VINA RESULT:      67.5      0.000      0.000
REMARK  4 active torsions:
REMARK  status: ('A' for Active; 'I' for Inactive)
REMARK    1  A    between atoms: N_10  and  C_3 
REMARK    2  A    between atoms: C_13  and  C_5 
REMARK    3  A    between atoms: C_12  and  C_9 
REMARK    4  A    between atoms: C_19  and  N_11 
ROOT
ATOM      1  N   UNL d   1      45.447 -15.669  44.109  0.00  0.00    -0.196 N 
ATOM      2  C   UNL d   1      45.053 -14.943  44.163  0.00  0.00     0.167 A 
ATOM      3  C   UNL d   1      45.036 -16.357  44.261  0.00  0.00     0.152 A 
ATOM      4  N   UNL d   1      46.626 -14.988  43.758  0.00  0.00    -0.163 NA
ATOM      5  C   UNL d   1      45.443 -14.254  44.016  0.00  0.00     0.055 A 
ATOM      6  N   UNL d   1      44.258 -14.924  44.368  0.00  0.00    -0.231 NA
ATOM      7  C   UNL d   1      44.237 -16.339  44.468  0.00  0.00     0.052 A 
ATOM      8  C   UNL d   1      46.237 -14.273  43.811  0.00  0.00     0.104 A 
ATOM      9  C   UNL d   1      43.849 -15.624  44.521  0.00  0.00     0.063 A 
ATOM     10  C   UNL d   1      46.643 -13.584  43.660  0.00  0.00     0.023 C 
ENDROOT
BRANCH   3  11
ATOM     11  N   UNL d   1      45.443 -17.106  44.206  0.00  0.00    -0.286 N 
ATOM     12  C   UNL d   1      45.828 -17.375  43.506  0.00  0.00     0.101 A 
ATOM     13  C   UNL d   1      46.216 -18.124  43.504  0.00  0.00     0.100 A 
ATOM     14  N   UNL d   1      46.222 -18.611  44.202  0.00  0.00    -0.300 N 
ATOM     15  C   UNL d   1      45.834 -18.333  44.898  0.00  0.00     0.100 A 
ATOM     16  C   UNL d   1      45.439 -17.574  44.906  0.00  0.00     0.101 A 
BRANCH  14  17
ATOM     17  C   UNL d   1      46.608 -19.361  44.208  0.00  0.00     0.080 C 
ATOM     18  C   UNL d   1      46.291 -19.990  43.738  0.00  0.00     0.021 C 
ENDBRANCH  14  17
ENDBRANCH   3  11
BRANCH   9  19
ATOM     19  C   UNL d   1      43.025 -15.601  44.733  0.00  0.00     0.036 C 
ATOM     20  C   UNL d   1      42.210 -15.572  44.943  0.00  0.00     0.006 C 
ATOM     21  C   UNL d   1      42.619 -16.321  44.942  0.00  0.00     0.006 C 
ATOM     22  C   UNL d   1      42.618 -14.855  44.734  0.00  0.00     0.006 C 
ENDBRANCH   9  19
BRANCH   5  23
ATOM     23  C   UNL d   1      45.052 -13.535  44.070  0.00  0.00     0.004 A 
ATOM     24  C   UNL d   1      45.283 -12.995  44.638  0.00  0.00     0.000 A 
ATOM     25  C   UNL d   1      44.888 -12.269  44.692  0.00  0.00     0.000 A 
ATOM     26  C   UNL d   1      44.275 -12.105  44.177  0.00  0.00     0.000 A 
ATOM     27  C   UNL d   1      44.054 -12.656  43.612  0.00  0.00     0.000 A 
ATOM     28  C   UNL d   1      44.442 -13.371  43.558  0.00  0.00     0.000 A 
ENDBRANCH   5  23
TORSDOF 4
ENDMDL
