MODEL 1
REMARK VINA RESULT:      -3.6      0.000      0.000
REMARK  0 active torsions:
REMARK  status: ('A' for Active; 'I' for Inactive)
ROOT
ATOM      1  N   UNL d   1      30.202  17.647 -24.755  0.00  0.00    -0.208 NA
ATOM      2  C   UNL d   1      29.441  17.372 -24.595  0.00  0.00     0.279 A 
ATOM      3  C   UNL d   1      29.981  16.359 -23.741  0.00  0.00     0.006 A 
ATOM      4  C   UNL d   1      29.330  16.730 -24.089  0.00  0.00     0.058 A 
ATOM      5  C   UNL d   1      30.857  17.276 -24.406  0.00  0.00     0.085 A 
ATOM      6  C   UNL d   1      30.740  16.630 -23.899  0.00  0.00     0.018 A 
ATOM      7  O   UNL d   1      28.791  17.744 -24.943  0.00  0.00    -0.265 OA
ATOM      8  C   UNL d   1      29.870  15.723 -23.241  0.00  0.00     0.000 A 
ATOM      9  C   UNL d   1      28.578  16.454 -23.928  0.00  0.00     0.005 A 
ATOM     10  C   UNL d   1      31.387  16.259 -23.551  0.00  0.00     0.002 A 
ATOM     11  C   UNL d   1      31.619  17.546 -24.563  0.00  0.00     0.019 A 
ATOM     12  C   UNL d   1      29.119  15.453 -23.084  0.00  0.00     0.000 A 
ATOM     13  C   UNL d   1      28.467  15.815 -23.425  0.00  0.00     0.000 A 
ATOM     14  C   UNL d   1      32.154  16.533 -23.710  0.00  0.00     0.000 A 
ATOM     15  C   UNL d   1      32.270  17.175 -24.215  0.00  0.00     0.002 A 
ENDROOT
TORSDOF 0
ENDMDL
MODEL 2
REMARK VINA RESULT:      -3.3      0.816      2.552
REMARK  0 active torsions:
REMARK  status: ('A' for Active; 'I' for Inactive)
ROOT
ATOM      1  N   UNL d   1      29.982  17.281 -24.352  0.00  0.00    -0.208 NA
ATOM      2  C   UNL d   1      30.807  17.276 -24.351  0.00  0.00     0.279 A 
ATOM      3  C   UNL d   1      30.805  16.058 -23.601  0.00  0.00     0.006 A 
ATOM      4  C   UNL d   1      31.218  16.667 -23.977  0.00  0.00     0.058 A 
ATOM      5  C   UNL d   1      29.566  16.670 -23.975  0.00  0.00     0.085 A 
ATOM      6  C   UNL d   1      29.984  16.060 -23.600  0.00  0.00     0.018 A 
ATOM      7  O   UNL d   1      31.219  17.886 -24.728  0.00  0.00    -0.265 OA
ATOM      8  C   UNL d   1      31.213  15.455 -23.231  0.00  0.00     0.000 A 
ATOM      9  C   UNL d   1      32.035  16.658 -23.974  0.00  0.00     0.005 A 
ATOM     10  C   UNL d   1      29.575  15.453 -23.225  0.00  0.00     0.002 A 
ATOM     11  C   UNL d   1      28.741  16.670 -23.972  0.00  0.00     0.019 A 
ATOM     12  C   UNL d   1      32.026  15.453 -23.231  0.00  0.00     0.000 A 
ATOM     13  C   UNL d   1      32.445  16.052 -23.602  0.00  0.00     0.000 A 
ATOM     14  C   UNL d   1      28.744  15.454 -23.223  0.00  0.00     0.000 A 
ATOM     15  C   UNL d   1      28.329  16.062 -23.596  0.00  0.00     0.002 A 
ENDROOT
TORSDOF 0
ENDMDL
MODEL 3
REMARK VINA RESULT:      -3.3      1.180      1.810
REMARK  0 active torsions:
REMARK  status: ('A' for Active; 'I' for Inactive)
ROOT
ATOM      1  N   UNL d   1      31.067  16.041 -23.296  0.00  0.00    -0.208 NA
ATOM      2  C   UNL d   1      30.257  16.018 -23.450  0.00  0.00     0.279 A 
ATOM      3  C   UNL d   1      30.391  17.121 -24.351  0.00  0.00     0.006 A 
ATOM      4  C   UNL d   1      29.919  16.556 -23.976  0.00  0.00     0.058 A 
ATOM      5  C   UNL d   1      31.542  16.607 -23.672  0.00  0.00     0.085 A 
ATOM      6  C   UNL d   1      31.198  17.147 -24.200  0.00  0.00     0.018 A 
ATOM      7  O   UNL d   1      29.786  15.453 -23.074  0.00  0.00    -0.265 OA
ATOM      8  C   UNL d   1      30.055  17.654 -24.872  0.00  0.00     0.000 A 
ATOM      9  C   UNL d   1      29.118  16.537 -24.131  0.00  0.00     0.005 A 
ATOM     10  C   UNL d   1      31.666  17.710 -24.575  0.00  0.00     0.002 A 
ATOM     11  C   UNL d   1      32.352  16.635 -23.522  0.00  0.00     0.019 A 
ATOM     12  C   UNL d   1      29.257  17.629 -25.022  0.00  0.00     0.000 A 
ATOM     13  C   UNL d   1      28.780  17.072 -24.654  0.00  0.00     0.000 A 
ATOM     14  C   UNL d   1      32.482  17.736 -24.422  0.00  0.00     0.000 A 
ATOM     15  C   UNL d   1      32.824  17.200 -23.897  0.00  0.00     0.002 A 
ENDROOT
TORSDOF 0
ENDMDL
MODEL 4
REMARK VINA RESULT:      -3.2      1.433      3.089
REMARK  0 active torsions:
REMARK  status: ('A' for Active; 'I' for Inactive)
ROOT
ATOM      1  N   UNL d   1      30.695  15.777 -23.600  0.00  0.00    -0.208 NA
ATOM      2  C   UNL d   1      31.483  15.981 -23.466  0.00  0.00     0.279 A 
ATOM      3  C   UNL d   1      31.277  17.235 -24.122  0.00  0.00     0.006 A 
ATOM      4  C   UNL d   1      31.774  16.708 -23.726  0.00  0.00     0.058 A 
ATOM      5  C   UNL d   1      30.195  16.306 -23.999  0.00  0.00     0.085 A 
ATOM      6  C   UNL d   1      30.492  17.036 -24.258  0.00  0.00     0.018 A 
ATOM      7  O   UNL d   1      31.979  15.453 -23.069  0.00  0.00    -0.265 OA
ATOM      8  C   UNL d   1      31.566  17.955 -24.380  0.00  0.00     0.000 A 
ATOM      9  C   UNL d   1      32.553  16.913 -23.594  0.00  0.00     0.005 A 
ATOM     10  C   UNL d   1      29.999  17.562 -24.653  0.00  0.00     0.002 A 
ATOM     11  C   UNL d   1      29.406  16.107 -24.136  0.00  0.00     0.019 A 
ATOM     12  C   UNL d   1      32.342  18.153 -24.246  0.00  0.00     0.000 A 
ATOM     13  C   UNL d   1      32.843  17.637 -23.853  0.00  0.00     0.000 A 
ATOM     14  C   UNL d   1      29.205  17.360 -24.791  0.00  0.00     0.000 A 
ATOM     15  C   UNL d   1      28.910  16.634 -24.533  0.00  0.00     0.002 A 
ENDROOT
TORSDOF 0
ENDMDL
MODEL 5
REMARK VINA RESULT:      -3.0      5.741      6.615
REMARK  0 active torsions:
REMARK  status: ('A' for Active; 'I' for Inactive)
ROOT
ATOM      1  N   UNL d   1      32.932  22.830 -22.446  0.00  0.00    -0.208 NA
ATOM      2  C   UNL d   1      33.083  22.089 -22.775  0.00  0.00     0.279 A 
ATOM      3  C   UNL d   1      32.932  21.482 -21.488  0.00  0.00     0.006 A 
ATOM      4  C   UNL d   1      33.084  21.416 -22.298  0.00  0.00     0.058 A 
ATOM      5  C   UNL d   1      32.780  22.898 -21.634  0.00  0.00     0.085 A 
ATOM      6  C   UNL d   1      32.781  22.218 -21.158  0.00  0.00     0.018 A 
ATOM      7  O   UNL d   1      33.235  22.024 -23.585  0.00  0.00    -0.265 OA
ATOM      8  C   UNL d   1      32.933  20.814 -21.017  0.00  0.00     0.000 A 
ATOM      9  C   UNL d   1      33.233  20.680 -22.619  0.00  0.00     0.005 A 
ATOM     10  C   UNL d   1      32.631  22.281 -20.352  0.00  0.00     0.002 A 
ATOM     11  C   UNL d   1      32.628  23.636 -21.300  0.00  0.00     0.019 A 
ATOM     12  C   UNL d   1      33.082  20.085 -21.342  0.00  0.00     0.000 A 
ATOM     13  C   UNL d   1      33.234  20.010 -22.145  0.00  0.00     0.000 A 
ATOM     14  C   UNL d   1      32.478  23.026 -20.018  0.00  0.00     0.000 A 
ATOM     15  C   UNL d   1      32.476  23.702 -20.491  0.00  0.00     0.002 A 
ENDROOT
TORSDOF 0
ENDMDL
MODEL 6
REMARK VINA RESULT:      -2.9      5.889      6.680
REMARK  0 active torsions:
REMARK  status: ('A' for Active; 'I' for Inactive)
ROOT
ATOM      1  N   UNL d   1      32.301  23.342 -21.805  0.00  0.00    -0.208 NA
ATOM      2  C   UNL d   1      32.302  22.791 -21.192  0.00  0.00     0.279 A 
ATOM      3  C   UNL d   1      32.927  21.831 -22.048  0.00  0.00     0.006 A 
ATOM      4  C   UNL d   1      32.614  22.037 -21.312  0.00  0.00     0.058 A 
ATOM      5  C   UNL d   1      32.615  23.137 -22.545  0.00  0.00     0.085 A 
ATOM      6  C   UNL d   1      32.928  22.377 -22.661  0.00  0.00     0.018 A 
ATOM      7  O   UNL d   1      31.989  22.998 -20.456  0.00  0.00    -0.265 OA
ATOM      8  C   UNL d   1      33.236  21.084 -22.167  0.00  0.00     0.000 A 
ATOM      9  C   UNL d   1      32.617  21.488 -20.708  0.00  0.00     0.005 A 
ATOM     10  C   UNL d   1      33.240  22.170 -23.393  0.00  0.00     0.002 A 
ATOM     11  C   UNL d   1      32.617  23.685 -23.161  0.00  0.00     0.019 A 
ATOM     12  C   UNL d   1      33.236  20.542 -21.561  0.00  0.00     0.000 A 
ATOM     13  C   UNL d   1      32.927  20.737 -20.827  0.00  0.00     0.000 A 
ATOM     14  C   UNL d   1      33.241  22.723 -24.013  0.00  0.00     0.000 A 
ATOM     15  C   UNL d   1      32.930  23.478 -23.897  0.00  0.00     0.002 A 
ENDROOT
TORSDOF 0
ENDMDL
MODEL 7
REMARK VINA RESULT:      -2.7      4.251      5.362
REMARK  0 active torsions:
REMARK  status: ('A' for Active; 'I' for Inactive)
ROOT
ATOM      1  N   UNL d   1      33.227  20.675 -23.478  0.00  0.00    -0.208 NA
ATOM      2  C   UNL d   1      33.228  21.303 -22.944  0.00  0.00     0.279 A 
ATOM      3  C   UNL d   1      33.236  20.380 -21.851  0.00  0.00     0.006 A 
ATOM      4  C   UNL d   1      33.232  21.157 -22.132  0.00  0.00     0.058 A 
ATOM      5  C   UNL d   1      33.230  19.894 -23.198  0.00  0.00     0.085 A 
ATOM      6  C   UNL d   1      33.235  19.752 -22.380  0.00  0.00     0.018 A 
ATOM      7  O   UNL d   1      33.225  22.079 -23.226  0.00  0.00    -0.265 OA
ATOM      8  C   UNL d   1      33.240  20.236 -21.047  0.00  0.00     0.000 A 
ATOM      9  C   UNL d   1      33.233  21.775 -21.599  0.00  0.00     0.005 A 
ATOM     10  C   UNL d   1      33.238  18.980 -22.098  0.00  0.00     0.002 A 
ATOM     11  C   UNL d   1      33.229  19.263 -23.728  0.00  0.00     0.019 A 
ATOM     12  C   UNL d   1      33.241  20.856 -20.522  0.00  0.00     0.000 A 
ATOM     13  C   UNL d   1      33.238  21.631 -20.791  0.00  0.00     0.000 A 
ATOM     14  C   UNL d   1      33.237  18.345 -22.634  0.00  0.00     0.000 A 
ATOM     15  C   UNL d   1      33.233  18.486 -23.447  0.00  0.00     0.002 A 
ENDROOT
TORSDOF 0
ENDMDL
MODEL 8
REMARK VINA RESULT:      -2.6      1.201      1.819
REMARK  0 active torsions:
REMARK  status: ('A' for Active; 'I' for Inactive)
ROOT
ATOM      1  N   UNL d   1      31.056  17.823 -24.979  0.00  0.00    -0.208 NA
ATOM      2  C   UNL d   1      30.653  17.141 -24.750  0.00  0.00     0.279 A 
ATOM      3  C   UNL d   1      31.702  16.822 -23.831  0.00  0.00     0.006 A 
ATOM      4  C   UNL d   1      30.975  16.641 -24.177  0.00  0.00     0.058 A 
ATOM      5  C   UNL d   1      31.787  18.006 -24.633  0.00  0.00     0.085 A 
ATOM      6  C   UNL d   1      32.107  17.500 -24.057  0.00  0.00     0.018 A 
ATOM      7  O   UNL d   1      29.925  16.961 -25.096  0.00  0.00    -0.265 OA
ATOM      8  C   UNL d   1      32.020  16.327 -23.265  0.00  0.00     0.000 A 
ATOM      9  C   UNL d   1      30.579  15.965 -23.947  0.00  0.00     0.005 A 
ATOM     10  C   UNL d   1      32.832  17.678 -23.712  0.00  0.00     0.002 A 
ATOM     11  C   UNL d   1      32.195  18.686 -24.858  0.00  0.00     0.019 A 
ATOM     12  C   UNL d   1      31.621  15.656 -23.040  0.00  0.00     0.000 A 
ATOM     13  C   UNL d   1      30.898  15.468 -23.378  0.00  0.00     0.000 A 
ATOM     14  C   UNL d   1      33.240  18.364 -23.941  0.00  0.00     0.000 A 
ATOM     15  C   UNL d   1      32.923  18.867 -24.513  0.00  0.00     0.002 A 
ENDROOT
TORSDOF 0
ENDMDL
MODEL 9
REMARK VINA RESULT:      -2.3      1.602      2.962
REMARK  0 active torsions:
REMARK  status: ('A' for Active; 'I' for Inactive)
ROOT
ATOM      1  N   UNL d   1      30.868  16.951 -24.333  0.00  0.00    -0.208 NA
ATOM      2  C   UNL d   1      30.993  17.674 -24.709  0.00  0.00     0.279 A 
ATOM      3  C   UNL d   1      32.376  17.630 -24.347  0.00  0.00     0.006 A 
ATOM      4  C   UNL d   1      31.744  18.013 -24.717  0.00  0.00     0.058 A 
ATOM      5  C   UNL d   1      31.501  16.565 -23.961  0.00  0.00     0.085 A 
ATOM      6  C   UNL d   1      32.255  16.910 -23.971  0.00  0.00     0.018 A 
ATOM      7  O   UNL d   1      30.360  18.056 -25.079  0.00  0.00    -0.265 OA
ATOM      8  C   UNL d   1      33.120  17.967 -24.355  0.00  0.00     0.000 A 
ATOM      9  C   UNL d   1      31.873  18.729 -25.089  0.00  0.00     0.005 A 
ATOM     10  C   UNL d   1      32.885  16.530 -23.604  0.00  0.00     0.002 A 
ATOM     11  C   UNL d   1      31.381  15.842 -23.583  0.00  0.00     0.019 A 
ATOM     12  C   UNL d   1      33.241  18.679 -24.727  0.00  0.00     0.000 A 
ATOM     13  C   UNL d   1      32.620  19.067 -25.097  0.00  0.00     0.000 A 
ATOM     14  C   UNL d   1      32.763  15.802 -23.223  0.00  0.00     0.000 A 
ATOM     15  C   UNL d   1      32.013  15.459 -23.213  0.00  0.00     0.002 A 
ENDROOT
TORSDOF 0
ENDMDL
