MODEL 1
REMARK VINA RESULT:      46.3      0.000      0.000
REMARK  6 active torsions:
REMARK  status: ('A' for Active; 'I' for Inactive)
REMARK    1  A    between atoms: C_2  and  C_1 
REMARK    2  A    between atoms: C_3  and  C_1 
REMARK    3  A    between atoms: N_4  and  C_1 
REMARK       I    between atoms: N_9  and  C_2 
REMARK    4  A    between atoms: C_7  and  C_3 
REMARK       I    between atoms: C_8  and  N_4 
REMARK    5  A    between atoms: C_14  and  C_5 
REMARK    6  A    between atoms: C_15  and  C_8 
ROOT
ATOM      1  C   UNL d   1      45.697 -17.688  43.405  0.00  0.00     0.143 C 
ENDROOT
BRANCH   1   2
ATOM      2  C   UNL d   1      46.163 -18.357  43.254  0.00  0.00     0.283 C 
ATOM      3  N   UNL d   1      46.147 -19.003  43.767  0.00  0.00    -0.267 N 
ATOM      4  C   UNL d   1      45.663 -18.983  44.438  0.00  0.00     0.110 A 
ATOM      5  C   UNL d   1      46.608 -19.665  43.618  0.00  0.00     0.110 A 
ATOM      6  C   UNL d   1      45.648 -19.632  44.954  0.00  0.00     0.142 A 
ATOM      7  O   UNL d   1      46.114 -20.291  44.795  0.00  0.00    -0.300 OA
ATOM      8  C   UNL d   1      46.596 -20.306  44.123  0.00  0.00     0.142 A 
ATOM      9  O   UNL d   1      46.646 -18.372  42.580  0.00  0.00    -0.265 OA
ENDBRANCH   1   2
BRANCH   1  10
ATOM     10  C   UNL d   1      45.926 -17.346  44.120  0.00  0.00     0.049 C 
BRANCH  10  11
ATOM     11  C   UNL d   1      45.616 -16.614  44.348  0.00  0.00     0.102 A 
ATOM     12  O   UNL d   1      45.917 -15.883  44.151  0.00  0.00    -0.307 OA
ATOM     13  C   UNL d   1      45.426 -15.310  44.501  0.00  0.00     0.100 A 
ATOM     14  C   UNL d   1      44.830 -15.701  44.909  0.00  0.00     0.027 A 
ATOM     15  C   UNL d   1      44.941 -16.590  44.817  0.00  0.00     0.027 A 
BRANCH  13  16
ATOM     16  C   UNL d   1      45.532 -14.496  44.441  0.00  0.00     0.023 A 
ATOM     17  C   UNL d   1      46.062 -14.123  44.955  0.00  0.00     0.002 A 
ATOM     18  C   UNL d   1      46.179 -13.306  44.905  0.00  0.00     0.000 A 
ATOM     19  C   UNL d   1      45.763 -12.865  44.340  0.00  0.00     0.000 A 
ATOM     20  C   UNL d   1      45.233 -13.239  43.827  0.00  0.00     0.000 A 
ATOM     21  C   UNL d   1      45.119 -14.049  43.877  0.00  0.00     0.002 A 
ENDBRANCH  13  16
ENDBRANCH  10  11
ENDBRANCH   1  10
BRANCH   1  22
ATOM     22  N   UNL d   1      45.086 -17.352  42.966  0.00  0.00    -0.203 NA
ATOM     23  C   UNL d   1      44.796 -17.334  42.196  0.00  0.00     0.279 C 
ATOM     24  O   UNL d   1      44.120 -16.881  42.031  0.00  0.00    -0.265 OA
BRANCH  23  25
ATOM     25  C   UNL d   1      45.164 -17.754  41.596  0.00  0.00     0.058 A 
ATOM     26  C   UNL d   1      45.954 -17.597  41.416  0.00  0.00     0.005 A 
ATOM     27  C   UNL d   1      46.324 -18.018  40.813  0.00  0.00     0.000 A 
ATOM     28  C   UNL d   1      45.911 -18.593  40.389  0.00  0.00     0.000 A 
ATOM     29  C   UNL d   1      45.118 -18.746  40.575  0.00  0.00     0.000 A 
ATOM     30  C   UNL d   1      44.748 -18.324  41.178  0.00  0.00     0.005 A 
ENDBRANCH  23  25
ENDBRANCH   1  22
TORSDOF 6
ENDMDL
MODEL 2
REMARK VINA RESULT:      48.6      1.192      3.082
REMARK  6 active torsions:
REMARK  status: ('A' for Active; 'I' for Inactive)
REMARK    1  A    between atoms: C_2  and  C_1 
REMARK    2  A    between atoms: C_3  and  C_1 
REMARK    3  A    between atoms: N_4  and  C_1 
REMARK       I    between atoms: N_9  and  C_2 
REMARK    4  A    between atoms: C_7  and  C_3 
REMARK       I    between atoms: C_8  and  N_4 
REMARK    5  A    between atoms: C_14  and  C_5 
REMARK    6  A    between atoms: C_15  and  C_8 
ROOT
ATOM      1  C   UNL d   1      45.488 -18.362  42.488  0.00  0.00     0.143 C 
ENDROOT
BRANCH   1   2
ATOM      2  C   UNL d   1      45.078 -17.920  41.919  0.00  0.00     0.283 C 
ATOM      3  N   UNL d   1      45.303 -17.945  41.126  0.00  0.00    -0.267 N 
ATOM      4  C   UNL d   1      45.944 -18.416  40.895  0.00  0.00     0.110 A 
ATOM      5  C   UNL d   1      44.898 -17.507  40.563  0.00  0.00     0.110 A 
ATOM      6  C   UNL d   1      46.171 -18.442  40.098  0.00  0.00     0.142 A 
ATOM      7  O   UNL d   1      45.757 -17.999  39.542  0.00  0.00    -0.300 OA
ATOM      8  C   UNL d   1      45.118 -17.530  39.778  0.00  0.00     0.142 A 
ATOM      9  O   UNL d   1      44.437 -17.449  42.154  0.00  0.00    -0.265 OA
ENDBRANCH   1   2
BRANCH   1  10
ATOM     10  C   UNL d   1      45.404 -18.008  43.228  0.00  0.00     0.049 C 
BRANCH  10  11
ATOM     11  C   UNL d   1      45.741 -17.268  43.375  0.00  0.00     0.102 A 
ATOM     12  O   UNL d   1      45.352 -16.610  43.657  0.00  0.00    -0.307 OA
ATOM     13  C   UNL d   1      45.911 -15.997  43.716  0.00  0.00     0.100 A 
ATOM     14  C   UNL d   1      46.637 -16.290  43.469  0.00  0.00     0.027 A 
ATOM     15  C   UNL d   1      46.543 -17.154  43.233  0.00  0.00     0.027 A 
BRANCH  13  16
ATOM     16  C   UNL d   1      45.749 -15.234  43.979  0.00  0.00     0.023 A 
ATOM     17  C   UNL d   1      44.995 -15.064  44.274  0.00  0.00     0.002 A 
ATOM     18  C   UNL d   1      44.818 -14.302  44.542  0.00  0.00     0.000 A 
ATOM     19  C   UNL d   1      45.399 -13.712  44.513  0.00  0.00     0.000 A 
ATOM     20  C   UNL d   1      46.153 -13.882  44.219  0.00  0.00     0.000 A 
ATOM     21  C   UNL d   1      46.326 -14.639  43.954  0.00  0.00     0.002 A 
ENDBRANCH  13  16
ENDBRANCH  10  11
ENDBRANCH   1  10
BRANCH   1  22
ATOM     22  N   UNL d   1      45.931 -19.053  42.411  0.00  0.00    -0.203 NA
ATOM     23  C   UNL d   1      46.056 -19.770  42.795  0.00  0.00     0.279 C 
ATOM     24  O   UNL d   1      46.594 -20.312  42.471  0.00  0.00    -0.265 OA
BRANCH  23  25
ATOM     25  C   UNL d   1      45.658 -19.953  43.488  0.00  0.00     0.058 A 
ATOM     26  C   UNL d   1      46.068 -19.951  44.204  0.00  0.00     0.005 A 
ATOM     27  C   UNL d   1      45.670 -20.135  44.901  0.00  0.00     0.000 A 
ATOM     28  C   UNL d   1      44.866 -20.321  44.887  0.00  0.00     0.000 A 
ATOM     29  C   UNL d   1      44.459 -20.321  44.165  0.00  0.00     0.000 A 
ATOM     30  C   UNL d   1      44.859 -20.137  43.468  0.00  0.00     0.005 A 
ENDBRANCH  23  25
ENDBRANCH   1  22
TORSDOF 6
ENDMDL
