MODEL 1
REMARK VINA RESULT:      36.6      0.000      0.000
REMARK  4 active torsions:
REMARK  status: ('A' for Active; 'I' for Inactive)
REMARK    1  A    between atoms: C_6  and  C_1 
REMARK    2  A    between atoms: C_8  and  N_3 
REMARK       I    between atoms: N_7  and  C_6 
REMARK    3  A    between atoms: C_9  and  N_7 
REMARK    4  A    between atoms: O_19  and  C_16 
ROOT
ATOM      1  C   UNL d   1     -54.887-102.082 -41.376  0.00  0.00     0.199 A 
ATOM      2  C   UNL d   1     -54.915-101.407 -41.844  0.00  0.00     0.211 A 
ATOM      3  N   UNL d   1     -54.809-101.631 -42.629  0.00  0.00    -0.191 N 
ATOM      4  N   UNL d   1     -54.715-102.453 -42.646  0.00  0.00    -0.058 NA
ATOM      5  N   UNL d   1     -54.762-102.736 -41.877  0.00  0.00    -0.122 NA
ATOM      6  N   UNL d   1     -55.029-100.638 -41.572  0.00  0.00    -0.125 N 
ENDROOT
BRANCH   1   7
ATOM      7  C   UNL d   1     -54.969-102.109 -40.553  0.00  0.00     0.302 C 
ATOM      8  N   UNL d   1     -55.298-102.783 -40.196  0.00  0.00    -0.204 NA
ATOM      9  O   UNL d   1     -54.726-101.472 -40.090  0.00  0.00    -0.263 OA
BRANCH   8  10
ATOM     10  C   UNL d   1     -55.376-102.803 -39.374  0.00  0.00     0.112 A 
ATOM     11  C   UNL d   1     -56.130-102.847 -39.043  0.00  0.00     0.158 A 
ATOM     12  F   UNL d   1     -56.794-102.871 -39.525  0.00  0.00    -0.203 F 
ATOM     13  C   UNL d   1     -56.216-102.868 -38.215  0.00  0.00     0.031 A 
ATOM     14  C   UNL d   1     -55.549-102.845 -37.738  0.00  0.00     0.002 A 
ATOM     15  C   UNL d   1     -54.792-102.800 -38.072  0.00  0.00     0.002 A 
ATOM     16  C   UNL d   1     -54.713-102.780 -38.893  0.00  0.00     0.021 A 
ENDBRANCH   8  10
ENDBRANCH   1   7
BRANCH   3  17
ATOM     17  C   UNL d   1     -54.798-101.129 -43.282  0.00  0.00     0.086 A 
ATOM     18  C   UNL d   1     -54.861-100.313 -43.175  0.00  0.00     0.021 A 
ATOM     19  C   UNL d   1     -54.850 -99.810 -43.828  0.00  0.00     0.026 A 
ATOM     20  C   UNL d   1     -54.776-100.123 -44.588  0.00  0.00     0.094 A 
ATOM     21  C   UNL d   1     -54.713-100.938 -44.695  0.00  0.00     0.026 A 
ATOM     22  C   UNL d   1     -54.724-101.441 -44.041  0.00  0.00     0.021 A 
BRANCH  20  23
ATOM     23  O   UNL d   1     -54.766 -99.620 -45.242  0.00  0.00    -0.328 OA
ATOM     24  C   UNL d   1     -54.964 -98.825 -45.153  0.00  0.00     0.181 C 
ENDBRANCH  20  23
ENDBRANCH   3  17
TORSDOF 4
ENDMDL
