MODEL 1
REMARK VINA RESULT:      -5.4      0.000      0.000
REMARK  2 active torsions:
REMARK  status: ('A' for Active; 'I' for Inactive)
REMARK    1  A    between atoms: C_6  and  C_1 
REMARK    2  A    between atoms: O_12  and  C_9 
ROOT
ATOM      1  C   UNL d   1      56.077  -0.396  32.780  0.00  0.00     0.123 A 
ATOM      2  C   UNL d   1      56.199  -1.174  32.537  0.00  0.00     0.305 A 
ATOM      3  O   UNL d   1      56.666  -1.329  31.896  0.00  0.00    -0.271 OA
ATOM      4  C   UNL d   1      56.424   0.208  32.375  0.00  0.00     0.012 A 
ATOM      5  C   UNL d   1      57.037  -0.708  31.463  0.00  0.00     0.125 A 
ATOM      6  C   UNL d   1      56.914   0.071  31.706  0.00  0.00     0.025 A 
ATOM      7  O   UNL d   1      55.853  -1.782  32.940  0.00  0.00    -0.259 OA
ATOM      8  C   UNL d   1      57.517  -0.855  30.805  0.00  0.00     0.117 A 
ATOM      9  C   UNL d   1      57.274   0.682  31.284  0.00  0.00     0.002 A 
ATOM     10  C   UNL d   1      57.756   0.541  30.625  0.00  0.00     0.002 A 
ATOM     11  C   UNL d   1      57.879  -0.238  30.382  0.00  0.00     0.026 A 
ENDROOT
BRANCH   1  12
ATOM     12  C   UNL d   1      55.606  -0.216  33.428  0.00  0.00     0.302 C 
ATOM     13  O   UNL d   1      54.765  -0.149  33.351  0.00  0.00    -0.263 OA
ATOM     14  N   UNL d   1      55.980  -0.103  34.158  0.00  0.00    -0.102 N 
ENDBRANCH   1  12
BRANCH   8  15
ATOM     15  O   UNL d   1      57.638  -1.625  30.565  0.00  0.00    -0.326 OA
ATOM     16  C   UNL d   1      58.141  -1.787  29.952  0.00  0.00     0.181 C 
ENDBRANCH   8  15
TORSDOF 2
ENDMDL
MODEL 2
REMARK VINA RESULT:      -5.3      1.436      2.997
REMARK  2 active torsions:
REMARK  status: ('A' for Active; 'I' for Inactive)
REMARK    1  A    between atoms: C_6  and  C_1 
REMARK    2  A    between atoms: O_12  and  C_9 
ROOT
ATOM      1  C   UNL d   1      57.619  -0.163  30.758  0.00  0.00     0.123 A 
ATOM      2  C   UNL d   1      57.445  -0.965  30.847  0.00  0.00     0.305 A 
ATOM      3  O   UNL d   1      56.967  -1.210  31.450  0.00  0.00    -0.271 OA
ATOM      4  C   UNL d   1      57.311   0.372  31.275  0.00  0.00     0.012 A 
ATOM      5  C   UNL d   1      56.637  -0.661  31.999  0.00  0.00     0.125 A 
ATOM      6  C   UNL d   1      56.811   0.140  31.910  0.00  0.00     0.025 A 
ATOM      7  O   UNL d   1      57.753  -1.505  30.331  0.00  0.00    -0.259 OA
ATOM      8  C   UNL d   1      56.146  -0.901  32.620  0.00  0.00     0.117 A 
ATOM      9  C   UNL d   1      56.490   0.680  32.444  0.00  0.00     0.002 A 
ATOM     10  C   UNL d   1      55.998   0.446  33.068  0.00  0.00     0.002 A 
ATOM     11  C   UNL d   1      55.823  -0.356  33.157  0.00  0.00     0.026 A 
ENDROOT
BRANCH   1  12
ATOM     12  C   UNL d   1      58.103   0.107  30.152  0.00  0.00     0.302 C 
ATOM     13  O   UNL d   1      57.783   0.299  29.391  0.00  0.00    -0.263 OA
ATOM     14  N   UNL d   1      58.912   0.185  30.309  0.00  0.00    -0.102 N 
ENDBRANCH   1  12
BRANCH   8  15
ATOM     15  O   UNL d   1      55.974  -1.694  32.708  0.00  0.00    -0.326 OA
ATOM     16  C   UNL d   1      55.508  -1.945  33.321  0.00  0.00     0.181 C 
ENDBRANCH   8  15
TORSDOF 2
ENDMDL
MODEL 3
REMARK VINA RESULT:      -3.7      1.780      3.420
REMARK  2 active torsions:
REMARK  status: ('A' for Active; 'I' for Inactive)
REMARK    1  A    between atoms: C_6  and  C_1 
REMARK    2  A    between atoms: O_12  and  C_9 
ROOT
ATOM      1  C   UNL d   1      57.725  -0.077  31.310  0.00  0.00     0.123 A 
ATOM      2  C   UNL d   1      58.105   0.351  31.904  0.00  0.00     0.305 A 
ATOM      3  O   UNL d   1      57.753   0.441  32.626  0.00  0.00    -0.271 OA
ATOM      4  C   UNL d   1      57.002  -0.404  31.454  0.00  0.00     0.012 A 
ATOM      5  C   UNL d   1      56.997   0.105  32.791  0.00  0.00     0.125 A 
ATOM      6  C   UNL d   1      56.617  -0.323  32.197  0.00  0.00     0.025 A 
ATOM      7  O   UNL d   1      58.829   0.680  31.764  0.00  0.00    -0.259 OA
ATOM      8  C   UNL d   1      56.628   0.191  33.526  0.00  0.00     0.117 A 
ATOM      9  C   UNL d   1      55.877  -0.654  32.354  0.00  0.00     0.002 A 
ATOM     10  C   UNL d   1      55.503  -0.570  33.089  0.00  0.00     0.002 A 
ATOM     11  C   UNL d   1      55.883  -0.142  33.682  0.00  0.00     0.026 A 
ENDROOT
BRANCH   1  12
ATOM     12  C   UNL d   1      58.064  -0.181  30.570  0.00  0.00     0.302 C 
ATOM     13  O   UNL d   1      58.383  -0.931  30.338  0.00  0.00    -0.263 OA
ATOM     14  N   UNL d   1      58.084   0.470  30.059  0.00  0.00    -0.102 N 
ENDBRANCH   1  12
BRANCH   8  15
ATOM     15  O   UNL d   1      57.004   0.615  34.114  0.00  0.00    -0.326 OA
ATOM     16  C   UNL d   1      56.670   0.679  34.848  0.00  0.00     0.181 C 
ENDBRANCH   8  15
TORSDOF 2
ENDMDL
MODEL 4
REMARK VINA RESULT:      -2.8      9.384      9.623
REMARK  2 active torsions:
REMARK  status: ('A' for Active; 'I' for Inactive)
REMARK    1  A    between atoms: C_6  and  C_1 
REMARK    2  A    between atoms: O_12  and  C_9 
ROOT
ATOM      1  C   UNL d   1      59.725  -9.185  34.573  0.00  0.00     0.123 A 
ATOM      2  C   UNL d   1      60.478  -9.235  34.240  0.00  0.00     0.305 A 
ATOM      3  O   UNL d   1      60.562  -9.400  33.453  0.00  0.00    -0.271 OA
ATOM      4  C   UNL d   1      59.076  -9.302  34.111  0.00  0.00     0.012 A 
ATOM      5  C   UNL d   1      59.892  -9.525  32.957  0.00  0.00     0.125 A 
ATOM      6  C   UNL d   1      59.138  -9.476  33.291  0.00  0.00     0.025 A 
ATOM      7  O   UNL d   1      61.132  -9.118  34.699  0.00  0.00    -0.259 OA
ATOM      8  C   UNL d   1      59.966  -9.696  32.151  0.00  0.00     0.117 A 
ATOM      9  C   UNL d   1      58.480  -9.597  32.809  0.00  0.00     0.002 A 
ATOM     10  C   UNL d   1      58.548  -9.768  32.001  0.00  0.00     0.002 A 
ATOM     11  C   UNL d   1      59.301  -9.818  31.668  0.00  0.00     0.026 A 
ENDROOT
BRANCH   1  12
ATOM     12  C   UNL d   1      59.618  -9.017  35.369  0.00  0.00     0.302 C 
ATOM     13  O   UNL d   1      59.580  -8.218  35.646  0.00  0.00    -0.263 OA
ATOM     14  N   UNL d   1      59.547  -9.655  35.892  0.00  0.00    -0.102 N 
ENDBRANCH   1  12
BRANCH   8  15
ATOM     15  O   UNL d   1      60.711  -9.745  31.822  0.00  0.00    -0.326 OA
ATOM     16  C   UNL d   1      60.799  -9.812  31.020  0.00  0.00     0.181 C 
ENDBRANCH   8  15
TORSDOF 2
ENDMDL
