MODEL 1
REMARK VINA RESULT:      -8.9      0.000      0.000
REMARK  3 active torsions:
REMARK  status: ('A' for Active; 'I' for Inactive)
REMARK    1  A    between atoms: C_8  and  C_1 
REMARK    2  A    between atoms: O_12  and  C_8 
REMARK    3  A    between atoms: C_21  and  O_12 
ROOT
ATOM      1  C   UNL d   1     -48.496  13.116  22.922  0.00  0.00     0.084 A 
ATOM      2  C   UNL d   1     -47.854  12.639  23.068  0.00  0.00     0.065 A 
ATOM      3  C   UNL d   1     -47.136  13.116  22.974  0.00  0.00     0.107 A 
ATOM      4  N   UNL d   1     -47.340  13.871  22.773  0.00  0.00    -0.302 N 
ATOM      5  C   UNL d   1     -48.184  13.869  22.741  0.00  0.00     0.070 A 
ATOM      6  C   UNL d   1     -47.816  11.844  23.273  0.00  0.00     0.197 A 
ATOM      7  C   UNL d   1     -46.385  12.793  23.084  0.00  0.00     0.212 A 
ATOM      8  C   UNL d   1     -47.075  11.527  23.382  0.00  0.00     0.042 A 
ATOM      9  C   UNL d   1     -46.357  12.003  23.287  0.00  0.00     0.043 A 
ATOM     10  C   UNL d   1     -46.867  14.569  22.612  0.00  0.00     0.080 A 
ATOM     11  C   UNL d   1     -48.552  14.568  22.549  0.00  0.00     0.018 A 
ATOM     12  O   UNL d   1     -48.522  11.376  23.366  0.00  0.00    -0.286 OA
ATOM     13  O   UNL d   1     -45.677  13.257  22.992  0.00  0.00    -0.285 OA
ATOM     14  C   UNL d   1     -47.236  15.260  22.421  0.00  0.00     0.019 A 
ATOM     15  C   UNL d   1     -48.088  15.260  22.389  0.00  0.00     0.003 A 
ATOM     16  C   UNL d   1     -47.041  10.729  23.588  0.00  0.00     0.003 A 
ATOM     17  C   UNL d   1     -45.614  11.675  23.399  0.00  0.00     0.003 A 
ATOM     18  C   UNL d   1     -46.293  10.410  23.697  0.00  0.00     0.000 A 
ATOM     19  C   UNL d   1     -45.583  10.881  23.603  0.00  0.00     0.000 A 
ENDROOT
BRANCH   1  20
ATOM     20  C   UNL d   1     -49.314  12.870  22.954  0.00  0.00     0.302 C 
ATOM     21  O   UNL d   1     -49.666  12.573  22.289  0.00  0.00    -0.259 OA
BRANCH  20  22
ATOM     22  O   UNL d   1     -49.767  12.925  23.648  0.00  0.00    -0.273 OA
BRANCH  22  23
ATOM     23  C   UNL d   1     -50.629  12.909  23.635  0.00  0.00     0.103 C 
ATOM     24  C   UNL d   1     -51.064  13.646  23.601  0.00  0.00     0.027 C 
ATOM     25  C   UNL d   1     -51.046  12.166  23.656  0.00  0.00     0.027 C 
ENDBRANCH  22  23
ENDBRANCH  20  22
ENDBRANCH   1  20
TORSDOF 3
ENDMDL
MODEL 2
REMARK VINA RESULT:      -8.5      1.229      4.244
REMARK  3 active torsions:
REMARK  status: ('A' for Active; 'I' for Inactive)
REMARK    1  A    between atoms: C_8  and  C_1 
REMARK    2  A    between atoms: O_12  and  C_8 
REMARK    3  A    between atoms: C_21  and  O_12 
ROOT
ATOM      1  C   UNL d   1     -47.392  13.156  23.058  0.00  0.00     0.084 A 
ATOM      2  C   UNL d   1     -48.063  13.613  23.028  0.00  0.00     0.065 A 
ATOM      3  C   UNL d   1     -48.742  13.110  23.222  0.00  0.00     0.107 A 
ATOM      4  N   UNL d   1     -48.486  12.358  23.368  0.00  0.00    -0.302 N 
ATOM      5  C   UNL d   1     -47.647  12.388  23.266  0.00  0.00     0.070 A 
ATOM      6  C   UNL d   1     -48.157  14.411  22.853  0.00  0.00     0.197 A 
ATOM      7  C   UNL d   1     -49.511  13.409  23.240  0.00  0.00     0.212 A 
ATOM      8  C   UNL d   1     -48.916  14.704  22.870  0.00  0.00     0.042 A 
ATOM      9  C   UNL d   1     -49.595  14.201  23.065  0.00  0.00     0.043 A 
ATOM     10  C   UNL d   1     -48.904  11.641  23.583  0.00  0.00     0.080 A 
ATOM     11  C   UNL d   1     -47.232  11.699  23.380  0.00  0.00     0.018 A 
ATOM     12  O   UNL d   1     -47.490  14.905  22.662  0.00  0.00    -0.286 OA
ATOM     13  O   UNL d   1     -50.180  12.919  23.430  0.00  0.00    -0.285 OA
ATOM     14  C   UNL d   1     -48.489  10.959  23.695  0.00  0.00     0.019 A 
ATOM     15  C   UNL d   1     -47.643  10.988  23.592  0.00  0.00     0.003 A 
ATOM     16  C   UNL d   1     -49.007  15.505  22.694  0.00  0.00     0.003 A 
ATOM     17  C   UNL d   1     -50.356  14.506  23.080  0.00  0.00     0.003 A 
ATOM     18  C   UNL d   1     -49.772  15.799  22.712  0.00  0.00     0.000 A 
ATOM     19  C   UNL d   1     -50.443  15.302  22.905  0.00  0.00     0.000 A 
ENDROOT
BRANCH   1  20
ATOM     20  C   UNL d   1     -46.597  13.430  22.904  0.00  0.00     0.302 C 
ATOM     21  O   UNL d   1     -46.177  13.784  23.498  0.00  0.00    -0.259 OA
BRANCH  20  22
ATOM     22  O   UNL d   1     -46.235  13.348  22.161  0.00  0.00    -0.273 OA
BRANCH  22  23
ATOM     23  C   UNL d   1     -45.381  13.402  22.059  0.00  0.00     0.103 C 
ATOM     24  C   UNL d   1     -44.989  14.156  22.167  0.00  0.00     0.027 C 
ATOM     25  C   UNL d   1     -44.927  12.711  21.852  0.00  0.00     0.027 C 
ENDBRANCH  22  23
ENDBRANCH  20  22
ENDBRANCH   1  20
TORSDOF 3
ENDMDL
MODEL 3
REMARK VINA RESULT:      -8.3      1.039      3.308
REMARK  3 active torsions:
REMARK  status: ('A' for Active; 'I' for Inactive)
REMARK    1  A    between atoms: C_8  and  C_1 
REMARK    2  A    between atoms: O_12  and  C_8 
REMARK    3  A    between atoms: C_21  and  O_12 
ROOT
ATOM      1  C   UNL d   1     -47.346  13.400  22.921  0.00  0.00     0.084 A 
ATOM      2  C   UNL d   1     -48.052  13.023  23.061  0.00  0.00     0.065 A 
ATOM      3  C   UNL d   1     -48.693  13.593  22.937  0.00  0.00     0.107 A 
ATOM      4  N   UNL d   1     -48.380  14.307  22.725  0.00  0.00    -0.302 N 
ATOM      5  C   UNL d   1     -47.543  14.186  22.716  0.00  0.00     0.070 A 
ATOM      6  C   UNL d   1     -48.207  12.246  23.282  0.00  0.00     0.197 A 
ATOM      7  C   UNL d   1     -49.484  13.383  23.036  0.00  0.00     0.212 A 
ATOM      8  C   UNL d   1     -48.988  12.040  23.379  0.00  0.00     0.042 A 
ATOM      9  C   UNL d   1     -49.629  12.610  23.255  0.00  0.00     0.043 A 
ATOM     10  C   UNL d   1     -48.744  15.060  22.537  0.00  0.00     0.080 A 
ATOM     11  C   UNL d   1     -47.075  14.820  22.517  0.00  0.00     0.018 A 
ATOM     12  O   UNL d   1     -47.577  11.686  23.403  0.00  0.00    -0.286 OA
ATOM     13  O   UNL d   1     -50.117  13.940  22.916  0.00  0.00    -0.285 OA
ATOM     14  C   UNL d   1     -48.277  15.687  22.341  0.00  0.00     0.019 A 
ATOM     15  C   UNL d   1     -47.433  15.566  22.331  0.00  0.00     0.003 A 
ATOM     16  C   UNL d   1     -49.139  11.260  23.601  0.00  0.00     0.003 A 
ATOM     17  C   UNL d   1     -50.413  12.394  23.355  0.00  0.00     0.003 A 
ATOM     18  C   UNL d   1     -49.927  11.053  23.698  0.00  0.00     0.000 A 
ATOM     19  C   UNL d   1     -50.561  11.617  23.576  0.00  0.00     0.000 A 
ENDROOT
BRANCH   1  20
ATOM     20  C   UNL d   1     -46.572  13.042  22.979  0.00  0.00     0.302 C 
ATOM     21  O   UNL d   1     -46.201  13.012  23.698  0.00  0.00    -0.259 OA
BRANCH  20  22
ATOM     22  O   UNL d   1     -46.180  12.721  22.321  0.00  0.00    -0.273 OA
BRANCH  22  23
ATOM     23  C   UNL d   1     -45.333  12.560  22.325  0.00  0.00     0.103 C 
ATOM     24  C   UNL d   1     -44.814  13.019  21.822  0.00  0.00     0.027 C 
ATOM     25  C   UNL d   1     -45.014  11.950  22.826  0.00  0.00     0.027 C 
ENDBRANCH  22  23
ENDBRANCH  20  22
ENDBRANCH   1  20
TORSDOF 3
ENDMDL
MODEL 4
REMARK VINA RESULT:      -7.2      8.821      9.885
REMARK  3 active torsions:
REMARK  status: ('A' for Active; 'I' for Inactive)
REMARK    1  A    between atoms: C_8  and  C_1 
REMARK    2  A    between atoms: O_12  and  C_8 
REMARK    3  A    between atoms: C_21  and  O_12 
ROOT
ATOM      1  C   UNL d   1     -39.721  14.244  18.425  0.00  0.00     0.084 A 
ATOM      2  C   UNL d   1     -39.587  14.348  19.220  0.00  0.00     0.065 A 
ATOM      3  C   UNL d   1     -38.939  13.822  19.456  0.00  0.00     0.107 A 
ATOM      4  N   UNL d   1     -38.685  13.405  18.813  0.00  0.00    -0.302 N 
ATOM      5  C   UNL d   1     -39.171  13.668  18.174  0.00  0.00     0.070 A 
ATOM      6  C   UNL d   1     -39.956  14.843  19.763  0.00  0.00     0.197 A 
ATOM      7  C   UNL d   1     -38.666  13.794  20.234  0.00  0.00     0.212 A 
ATOM      8  C   UNL d   1     -39.686  14.814  20.530  0.00  0.00     0.042 A 
ATOM      9  C   UNL d   1     -39.039  14.288  20.766  0.00  0.00     0.043 A 
ATOM     10  C   UNL d   1     -38.070  12.814  18.720  0.00  0.00     0.080 A 
ATOM     11  C   UNL d   1     -39.039  13.337  17.443  0.00  0.00     0.018 A 
ATOM     12  O   UNL d   1     -40.592  15.360  19.531  0.00  0.00    -0.286 OA
ATOM     13  O   UNL d   1     -38.031  13.279  20.470  0.00  0.00    -0.285 OA
ATOM     14  C   UNL d   1     -37.942  12.489  17.993  0.00  0.00     0.019 A 
ATOM     15  C   UNL d   1     -38.432  12.753  17.348  0.00  0.00     0.003 A 
ATOM     16  C   UNL d   1     -40.059  15.312  21.072  0.00  0.00     0.003 A 
ATOM     17  C   UNL d   1     -38.773  14.266  21.541  0.00  0.00     0.003 A 
ATOM     18  C   UNL d   1     -39.786  15.282  21.845  0.00  0.00     0.000 A 
ATOM     19  C   UNL d   1     -39.146  14.762  22.078  0.00  0.00     0.000 A 
ENDROOT
BRANCH   1  20
ATOM     20  C   UNL d   1     -40.313  14.654  17.964  0.00  0.00     0.302 C 
ATOM     21  O   UNL d   1     -41.027  14.300  17.829  0.00  0.00    -0.259 OA
BRANCH  20  22
ATOM     22  O   UNL d   1     -40.182  15.411  17.646  0.00  0.00    -0.273 OA
BRANCH  22  23
ATOM     23  C   UNL d   1     -40.592  15.688  16.940  0.00  0.00     0.103 C 
ATOM     24  C   UNL d   1     -41.447  15.732  16.937  0.00  0.00     0.027 C 
ATOM     25  C   UNL d   1     -40.149  15.918  16.249  0.00  0.00     0.027 C 
ENDBRANCH  22  23
ENDBRANCH  20  22
ENDBRANCH   1  20
TORSDOF 3
ENDMDL
MODEL 5
REMARK VINA RESULT:      -7.1      8.425      9.974
REMARK  3 active torsions:
REMARK  status: ('A' for Active; 'I' for Inactive)
REMARK    1  A    between atoms: C_8  and  C_1 
REMARK    2  A    between atoms: O_12  and  C_8 
REMARK    3  A    between atoms: C_21  and  O_12 
ROOT
ATOM      1  C   UNL d   1     -39.399  14.369  18.205  0.00  0.00     0.084 A 
ATOM      2  C   UNL d   1     -39.567  14.558  18.978  0.00  0.00     0.065 A 
ATOM      3  C   UNL d   1     -40.247  15.096  18.984  0.00  0.00     0.107 A 
ATOM      4  N   UNL d   1     -40.487  15.233  18.225  0.00  0.00    -0.302 N 
ATOM      5  C   UNL d   1     -39.961  14.781  17.743  0.00  0.00     0.070 A 
ATOM      6  C   UNL d   1     -39.204  14.320  19.675  0.00  0.00     0.197 A 
ATOM      7  C   UNL d   1     -40.558  15.393  19.687  0.00  0.00     0.212 A 
ATOM      8  C   UNL d   1     -39.511  14.613  20.369  0.00  0.00     0.042 A 
ATOM      9  C   UNL d   1     -40.191  15.152  20.375  0.00  0.00     0.043 A 
ATOM     10  C   UNL d   1     -41.121  15.712  17.902  0.00  0.00     0.080 A 
ATOM     11  C   UNL d   1     -40.071  14.811  16.938  0.00  0.00     0.018 A 
ATOM     12  O   UNL d   1     -38.536  13.790  19.670  0.00  0.00    -0.286 OA
ATOM     13  O   UNL d   1     -41.224  15.922  19.698  0.00  0.00    -0.285 OA
ATOM     14  C   UNL d   1     -41.228  15.739  17.103  0.00  0.00     0.019 A 
ATOM     15  C   UNL d   1     -40.697  15.284  16.616  0.00  0.00     0.003 A 
ATOM     16  C   UNL d   1     -39.144  14.372  21.067  0.00  0.00     0.003 A 
ATOM     17  C   UNL d   1     -40.494  15.442  21.079  0.00  0.00     0.003 A 
ATOM     18  C   UNL d   1     -39.455  14.668  21.766  0.00  0.00     0.000 A 
ATOM     19  C   UNL d   1     -40.126  15.201  21.772  0.00  0.00     0.000 A 
ENDROOT
BRANCH   1  20
ATOM     20  C   UNL d   1     -38.770  13.852  17.946  0.00  0.00     0.302 C 
ATOM     21  O   UNL d   1     -38.011  14.131  17.921  0.00  0.00    -0.259 OA
BRANCH  20  22
ATOM     22  O   UNL d   1     -38.908  13.066  17.715  0.00  0.00    -0.273 OA
BRANCH  22  23
ATOM     23  C   UNL d   1     -38.299  12.586  17.339  0.00  0.00     0.103 C 
ATOM     24  C   UNL d   1     -37.940  12.854  16.610  0.00  0.00     0.027 C 
ATOM     25  C   UNL d   1     -38.056  11.848  17.689  0.00  0.00     0.027 C 
ENDBRANCH  22  23
ENDBRANCH  20  22
ENDBRANCH   1  20
TORSDOF 3
ENDMDL
MODEL 6
REMARK VINA RESULT:      -7.0      0.726      2.859
REMARK  3 active torsions:
REMARK  status: ('A' for Active; 'I' for Inactive)
REMARK    1  A    between atoms: C_8  and  C_1 
REMARK    2  A    between atoms: O_12  and  C_8 
REMARK    3  A    between atoms: C_21  and  O_12 
ROOT
ATOM      1  C   UNL d   1     -48.197  12.246  23.075  0.00  0.00     0.084 A 
ATOM      2  C   UNL d   1     -47.919  12.993  22.916  0.00  0.00     0.065 A 
ATOM      3  C   UNL d   1     -47.060  12.994  23.038  0.00  0.00     0.107 A 
ATOM      4  N   UNL d   1     -46.821  12.257  23.267  0.00  0.00    -0.302 N 
ATOM      5  C   UNL d   1     -47.528  11.794  23.289  0.00  0.00     0.070 A 
ATOM      6  C   UNL d   1     -48.318  13.672  22.680  0.00  0.00     0.197 A 
ATOM      7  C   UNL d   1     -46.607  13.674  22.922  0.00  0.00     0.212 A 
ATOM      8  C   UNL d   1     -47.871  14.342  22.567  0.00  0.00     0.042 A 
ATOM      9  C   UNL d   1     -47.012  14.343  22.688  0.00  0.00     0.043 A 
ATOM     10  C   UNL d   1     -46.049  11.940  23.460  0.00  0.00     0.080 A 
ATOM     11  C   UNL d   1     -47.457  11.014  23.505  0.00  0.00     0.018 A 
ATOM     12  O   UNL d   1     -49.162  13.671  22.561  0.00  0.00    -0.286 OA
ATOM     13  O   UNL d   1     -45.765  13.679  23.040  0.00  0.00    -0.285 OA
ATOM     14  C   UNL d   1     -45.982  11.165  23.674  0.00  0.00     0.019 A 
ATOM     15  C   UNL d   1     -46.694  10.697  23.697  0.00  0.00     0.003 A 
ATOM     16  C   UNL d   1     -48.275  15.021  22.330  0.00  0.00     0.003 A 
ATOM     17  C   UNL d   1     -46.569  15.022  22.571  0.00  0.00     0.003 A 
ATOM     18  C   UNL d   1     -47.822  15.695  22.216  0.00  0.00     0.000 A 
ATOM     19  C   UNL d   1     -46.974  15.696  22.336  0.00  0.00     0.000 A 
ENDROOT
BRANCH   1  20
ATOM     20  C   UNL d   1     -49.014  12.000  23.024  0.00  0.00     0.302 C 
ATOM     21  O   UNL d   1     -49.277  11.630  22.354  0.00  0.00    -0.259 OA
BRANCH  20  22
ATOM     22  O   UNL d   1     -49.555  12.126  23.642  0.00  0.00    -0.273 OA
BRANCH  22  23
ATOM     23  C   UNL d   1     -50.354  11.801  23.625  0.00  0.00     0.103 C 
ATOM     24  C   UNL d   1     -51.022  12.329  23.534  0.00  0.00     0.027 C 
ATOM     25  C   UNL d   1     -50.478  10.962  23.698  0.00  0.00     0.027 C 
ENDBRANCH  22  23
ENDBRANCH  20  22
ENDBRANCH   1  20
TORSDOF 3
ENDMDL
MODEL 7
REMARK VINA RESULT:      -6.5      8.298      9.719
REMARK  3 active torsions:
REMARK  status: ('A' for Active; 'I' for Inactive)
REMARK    1  A    between atoms: C_8  and  C_1 
REMARK    2  A    between atoms: O_12  and  C_8 
REMARK    3  A    between atoms: C_21  and  O_12 
ROOT
ATOM      1  C   UNL d   1     -39.196  14.493  20.751  0.00  0.00     0.084 A 
ATOM      2  C   UNL d   1     -39.133  14.213  19.991  0.00  0.00     0.065 A 
ATOM      3  C   UNL d   1     -39.785  14.544  19.525  0.00  0.00     0.107 A 
ATOM      4  N   UNL d   1     -40.237  15.019  19.997  0.00  0.00    -0.302 N 
ATOM      5  C   UNL d   1     -39.871  14.986  20.757  0.00  0.00     0.070 A 
ATOM      6  C   UNL d   1     -38.580  13.706  19.653  0.00  0.00     0.197 A 
ATOM      7  C   UNL d   1     -39.880  14.366  18.725  0.00  0.00     0.212 A 
ATOM      8  C   UNL d   1     -38.675  13.531  18.864  0.00  0.00     0.042 A 
ATOM      9  C   UNL d   1     -39.327  13.862  18.398  0.00  0.00     0.043 A 
ATOM     10  C   UNL d   1     -40.941  15.482  19.837  0.00  0.00     0.080 A 
ATOM     11  C   UNL d   1     -40.211  15.419  21.356  0.00  0.00     0.018 A 
ATOM     12  O   UNL d   1     -37.940  13.381  20.111  0.00  0.00    -0.286 OA
ATOM     13  O   UNL d   1     -40.518  14.689  18.264  0.00  0.00    -0.285 OA
ATOM     14  C   UNL d   1     -41.276  15.910  20.433  0.00  0.00     0.019 A 
ATOM     15  C   UNL d   1     -40.907  15.878  21.201  0.00  0.00     0.003 A 
ATOM     16  C   UNL d   1     -38.118  13.023  18.530  0.00  0.00     0.003 A 
ATOM     17  C   UNL d   1     -39.414  13.681  17.604  0.00  0.00     0.003 A 
ATOM     18  C   UNL d   1     -38.214  12.848  17.734  0.00  0.00     0.000 A 
ATOM     19  C   UNL d   1     -38.859  13.175  17.273  0.00  0.00     0.000 A 
ENDROOT
BRANCH   1  20
ATOM     20  C   UNL d   1     -38.666  14.305  21.394  0.00  0.00     0.302 C 
ATOM     21  O   UNL d   1     -37.948  14.675  21.438  0.00  0.00    -0.259 OA
BRANCH  20  22
ATOM     22  O   UNL d   1     -38.860  13.753  21.984  0.00  0.00    -0.273 OA
BRANCH  22  23
ATOM     23  C   UNL d   1     -38.404  13.678  22.711  0.00  0.00     0.103 C 
ATOM     24  C   UNL d   1     -37.941  12.972  22.849  0.00  0.00     0.027 C 
ATOM     25  C   UNL d   1     -38.412  14.304  23.290  0.00  0.00     0.027 C 
ENDBRANCH  22  23
ENDBRANCH  20  22
ENDBRANCH   1  20
TORSDOF 3
ENDMDL
