MODEL 1
REMARK VINA RESULT:      69.5      0.000      0.000
REMARK  4 active torsions:
REMARK  status: ('A' for Active; 'I' for Inactive)
REMARK    1  A    between atoms: N_2  and  S_1 
REMARK    2  A    between atoms: C_4  and  S_1 
REMARK    3  A    between atoms: O_16  and  C_13 
REMARK    4  A    between atoms: C_19  and  O_16 
ROOT
ATOM      1  S   UNL d   1      58.420  49.506  52.643  0.00  0.00     0.271 S 
ATOM      2  O   UNL d   1      57.852  49.694  52.073  0.00  0.00    -0.200 OA
ATOM      3  O   UNL d   1      58.988  49.317  53.218  0.00  0.00    -0.200 OA
ENDROOT
BRANCH   1   4
ATOM      4  N   UNL d   1      57.830  49.506  53.228  0.00  0.00    -0.229 N 
ATOM      5  C   UNL d   1      58.033  49.607  54.019  0.00  0.00     0.092 A 
ATOM      6  C   UNL d   1      57.445  49.606  54.596  0.00  0.00     0.018 A 
ATOM      7  C   UNL d   1      57.647  49.707  55.391  0.00  0.00     0.002 A 
ATOM      8  C   UNL d   1      56.655  49.504  54.381  0.00  0.00     0.003 A 
ATOM      9  C   UNL d   1      57.058  49.706  55.968  0.00  0.00     0.000 A 
ATOM     10  C   UNL d   1      56.269  49.604  55.753  0.00  0.00     0.000 A 
ATOM     11  C   UNL d   1      56.066  49.503  54.961  0.00  0.00     0.000 A 
ATOM     12  C   UNL d   1      56.452  49.402  53.589  0.00  0.00     0.020 A 
ATOM     13  C   UNL d   1      57.040  49.404  53.013  0.00  0.00     0.092 A 
ENDBRANCH   1   4
BRANCH   1  14
ATOM     14  C   UNL d   1      59.002  49.507  52.061  0.00  0.00     0.104 A 
ATOM     15  C   UNL d   1      59.786  49.333  52.259  0.00  0.00     0.015 A 
ATOM     16  C   UNL d   1      60.368  49.335  51.678  0.00  0.00     0.025 A 
ATOM     17  C   UNL d   1      60.171  49.510  50.896  0.00  0.00     0.100 A 
ATOM     18  C   UNL d   1      59.391  49.683  50.697  0.00  0.00     0.025 A 
ATOM     19  C   UNL d   1      58.804  49.682  51.280  0.00  0.00     0.015 A 
BRANCH  17  20
ATOM     20  O   UNL d   1      60.753  49.511  50.315  0.00  0.00    -0.305 OA
BRANCH  20  21
ATOM     21  C   UNL d   1      61.495  49.186  50.472  0.00  0.00     0.123 C 
ATOM     22  C   UNL d   1      61.615  48.375  50.395  0.00  0.00     0.029 C 
ENDBRANCH  20  21
ENDBRANCH  17  20
ENDBRANCH   1  14
TORSDOF 4
ENDMDL
