MODEL 1
REMARK VINA RESULT:       1.5      0.000      0.000
REMARK  3 active torsions:
REMARK  status: ('A' for Active; 'I' for Inactive)
REMARK    1  A    between atoms: C_5  and  C_1 
REMARK    2  A    between atoms: N_8  and  C_5 
REMARK    3  A    between atoms: C_10  and  C_5 
ROOT
ATOM      1  C   UNL d   1      59.205  -0.566  29.636  0.00  0.00     0.067 C 
ENDROOT
BRANCH   1   2
ATOM      2  C   UNL d   1      58.601  -0.253  30.108  0.00  0.00     0.057 A 
ATOM      3  C   UNL d   1      58.687  -0.254  30.926  0.00  0.00     0.214 A 
ATOM      4  C   UNL d   1      58.084   0.059  31.395  0.00  0.00     0.121 A 
ATOM      5  O   UNL d   1      59.360  -0.559  31.284  0.00  0.00    -0.285 OA
ATOM      6  N   UNL d   1      58.169   0.058  32.216  0.00  0.00    -0.241 NA
ATOM      7  C   UNL d   1      57.397   0.371  31.043  0.00  0.00     0.032 A 
ATOM      8  C   UNL d   1      57.569   0.369  32.678  0.00  0.00     0.099 A 
ATOM      9  C   UNL d   1      56.882   0.682  32.326  0.00  0.00     0.021 A 
ATOM     10  C   UNL d   1      56.807   0.678  31.520  0.00  0.00     0.004 A 
ATOM     11  C   UNL d   1      57.315   0.370  30.224  0.00  0.00     0.059 A 
ATOM     12  C   UNL d   1      57.914   0.060  29.757  0.00  0.00     0.016 A 
ATOM     13 CL   UNL d   1      56.636   0.679  29.890  0.00  0.00    -0.082 Cl
ENDBRANCH   1   2
BRANCH   1  14
ATOM     14  N   UNL d   1      59.851  -0.103  29.430  0.00  0.00    -0.304 N 
ATOM     15  C   UNL d   1      59.905   0.215  28.673  0.00  0.00     0.080 A 
ATOM     16  C   UNL d   1      60.543   0.678  28.457  0.00  0.00     0.021 A 
ATOM     17  C   UNL d   1      61.099   0.511  29.776  0.00  0.00     0.021 A 
ATOM     18  C   UNL d   1      60.450   0.046  29.983  0.00  0.00     0.080 A 
ENDBRANCH   1  14
BRANCH   1  19
ATOM     19  C   UNL d   1      59.157  -1.357  29.368  0.00  0.00     0.016 A 
ATOM     20  C   UNL d   1      59.587  -1.944  29.737  0.00  0.00     0.002 A 
ATOM     21  C   UNL d   1      59.543  -2.720  29.478  0.00  0.00     0.011 A 
ATOM     22  C   UNL d   1      59.054  -2.911  28.832  0.00  0.00     0.058 A 
ATOM     23  C   UNL d   1      58.616  -2.314  28.455  0.00  0.00     0.011 A 
ATOM     24 CL   UNL d   1      59.002  -3.681  28.565  0.00  0.00    -0.082 Cl
ATOM     25  C   UNL d   1      58.672  -1.534  28.730  0.00  0.00     0.002 A 
ENDBRANCH   1  19
TORSDOF 3
ENDMDL
