MODEL 1
REMARK VINA RESULT:      40.8      0.000      0.000
REMARK  3 active torsions:
REMARK  status: ('A' for Active; 'I' for Inactive)
REMARK    1  A    between atoms: C_7  and  C_3 
REMARK       I    between atoms: N_10  and  C_7 
REMARK    2  A    between atoms: C_19  and  C_9 
REMARK    3  A    between atoms: C_12  and  N_10 
ROOT
ATOM      1  C   UNL d   1      13.605  12.896  -3.192  0.00  0.00     0.059 A 
ATOM      2  C   UNL d   1      13.359  12.192  -2.839  0.00  0.00     0.013 A 
ATOM      3  C   UNL d   1      14.189  13.311  -1.960  0.00  0.00     0.088 A 
ATOM      4  S   UNL d   1      14.019  13.455  -2.755  0.00  0.00    -0.075 SA
ATOM      5  S   UNL d   1      13.437  13.044  -3.988  0.00  0.00    -0.080 SA
ATOM      6  C   UNL d   1      13.943  12.607  -1.607  0.00  0.00     0.012 A 
ATOM      7  C   UNL d   1      12.778  11.779  -4.067  0.00  0.00     0.007 A 
ATOM      8  C   UNL d   1      13.024  12.483  -4.420  0.00  0.00     0.030 A 
ENDROOT
BRANCH   3   9
ATOM      9  C   UNL d   1      14.603  13.870  -1.523  0.00  0.00     0.285 C 
ATOM     10  N   UNL d   1      14.595  14.666  -1.756  0.00  0.00    -0.208 NA
ATOM     11  O   UNL d   1      15.022  13.644  -0.860  0.00  0.00    -0.265 OA
BRANCH  10  12
ATOM     12  C   UNL d   1      15.010  15.229  -1.318  0.00  0.00     0.085 A 
ATOM     13  C   UNL d   1      14.977  16.013  -1.540  0.00  0.00     0.021 A 
ATOM     14  C   UNL d   1      15.386  16.582  -1.112  0.00  0.00     0.031 A 
ATOM     15  C   UNL d   1      15.832  16.354  -0.454  0.00  0.00     0.140 A 
ATOM     16  C   UNL d   1      15.860  15.559  -0.236  0.00  0.00     0.031 A 
ATOM     17  F   UNL d   1      16.247  16.917  -0.015  0.00  0.00    -0.204 F 
ATOM     18  C   UNL d   1      15.447  14.993  -0.669  0.00  0.00     0.021 A 
ENDBRANCH  10  12
ENDBRANCH   3   9
BRANCH   8  19
ATOM     19  C   UNL d   1      12.850  12.618  -5.214  0.00  0.00     0.006 C 
ATOM     20  C   UNL d   1      12.876  12.002  -5.758  0.00  0.00     0.001 C 
ENDBRANCH   8  19
TORSDOF 3
ENDMDL
