MODEL 1
REMARK VINA RESULT:      66.6      0.000      0.000
REMARK  5 active torsions:
REMARK  status: ('A' for Active; 'I' for Inactive)
REMARK    1  A    between atoms: N_7  and  C_1 
REMARK    2  A    between atoms: C_12  and  C_2 
REMARK       I    between atoms: C_8  and  N_7 
REMARK    3  A    between atoms: C_10  and  C_8 
REMARK    4  A    between atoms: N_9  and  C_16 
REMARK    5  A    between atoms: C_16  and  C_10 
ROOT
ATOM      1  C   UNL d   1      14.640  15.865  -2.217  0.00  0.00     0.142 A 
ATOM      2  C   UNL d   1      14.499  15.711  -3.018  0.00  0.00     0.024 A 
ATOM      3  C   UNL d   1      15.024  16.535  -1.988  0.00  0.00     0.297 A 
ATOM      4  C   UNL d   1      14.758  16.258  -3.578  0.00  0.00     0.020 A 
ATOM      5  N   UNL d   1      15.285  17.087  -2.547  0.00  0.00    -0.207 NA
ATOM      6  C   UNL d   1      15.149  16.943  -3.343  0.00  0.00     0.085 A 
ATOM      7  C   UNL d   1      14.618  16.108  -4.377  0.00  0.00     0.008 A 
ATOM      8  O   UNL d   1      15.159  16.676  -1.180  0.00  0.00    -0.264 OA
ATOM      9  C   UNL d   1      15.405  17.484  -3.906  0.00  0.00     0.020 A 
ATOM     10  C   UNL d   1      14.880  16.661  -4.943  0.00  0.00     0.035 A 
ATOM     11  C   UNL d   1      15.264  17.331  -4.714  0.00  0.00     0.008 A 
ATOM     12 BR   UNL d   1      14.750  16.528  -5.749  0.00  0.00    -0.049 Br
ENDROOT
BRANCH   1  13
ATOM     13  N   UNL d   1      14.388  15.328  -1.641  0.00  0.00    -0.203 NA
ATOM     14  C   UNL d   1      14.733  15.312  -0.894  0.00  0.00     0.281 C 
ATOM     15  O   UNL d   1      15.288  15.544  -0.224  0.00  0.00    -0.265 OA
BRANCH  14  16
ATOM     16  C   UNL d   1      14.482  14.778  -0.322  0.00  0.00     0.082 C 
BRANCH  16  17
ATOM     17  C   UNL d   1      14.978  14.195  -0.030  0.00  0.00     0.085 C 
BRANCH  17  18
ATOM     18  N   UNL d   1      14.778  13.400  -0.058  0.00  0.00    -0.299 N 
ATOM     19  C   UNL d   1      13.996  13.144  -0.015  0.00  0.00     0.107 A 
ATOM     20  C   UNL d   1      13.813  12.350  -0.043  0.00  0.00     0.142 A 
ATOM     21  O   UNL d   1      14.424  11.783  -0.117  0.00  0.00    -0.300 OA
ATOM     22  C   UNL d   1      15.183  12.029  -0.159  0.00  0.00     0.142 A 
ATOM     23  C   UNL d   1      15.388  12.833  -0.131  0.00  0.00     0.107 A 
ENDBRANCH  17  18
ENDBRANCH  16  17
ENDBRANCH  14  16
ENDBRANCH   1  13
BRANCH   2  24
ATOM     24  C   UNL d   1      14.111  15.034  -3.250  0.00  0.00     0.002 A 
ATOM     25  C   UNL d   1      13.301  15.045  -3.402  0.00  0.00     0.000 A 
ATOM     26  C   UNL d   1      12.907  14.356  -3.637  0.00  0.00     0.000 A 
ATOM     27  C   UNL d   1      13.328  13.664  -3.719  0.00  0.00     0.000 A 
ATOM     28  C   UNL d   1      14.126  13.628  -3.575  0.00  0.00     0.000 A 
ATOM     29  C   UNL d   1      14.523  14.323  -3.337  0.00  0.00     0.000 A 
ENDBRANCH   2  24
TORSDOF 5
ENDMDL
MODEL 2
REMARK VINA RESULT:      67.9      1.996      3.520
REMARK  5 active torsions:
REMARK  status: ('A' for Active; 'I' for Inactive)
REMARK    1  A    between atoms: N_7  and  C_1 
REMARK    2  A    between atoms: C_12  and  C_2 
REMARK       I    between atoms: C_8  and  N_7 
REMARK    3  A    between atoms: C_10  and  C_8 
REMARK    4  A    between atoms: N_9  and  C_16 
REMARK    5  A    between atoms: C_16  and  C_10 
ROOT
ATOM      1  C   UNL d   1      14.699  14.200  -1.720  0.00  0.00     0.142 A 
ATOM      2  C   UNL d   1      14.748  15.005  -1.905  0.00  0.00     0.024 A 
ATOM      3  C   UNL d   1      14.923  13.929  -0.995  0.00  0.00     0.297 A 
ATOM      4  C   UNL d   1      15.031  15.526  -1.332  0.00  0.00     0.020 A 
ATOM      5  N   UNL d   1      15.208  14.450  -0.417  0.00  0.00    -0.207 NA
ATOM      6  C   UNL d   1      15.260  15.250  -0.592  0.00  0.00     0.085 A 
ATOM      7  C   UNL d   1      15.082  16.329  -1.514  0.00  0.00     0.008 A 
ATOM      8  O   UNL d   1      14.868  13.118  -0.823  0.00  0.00    -0.264 OA
ATOM      9  C   UNL d   1      15.541  15.774  -0.026  0.00  0.00     0.020 A 
ATOM     10  C   UNL d   1      15.368  16.857  -0.935  0.00  0.00     0.035 A 
ATOM     11  C   UNL d   1      15.592  16.586  -0.210  0.00  0.00     0.008 A 
ATOM     12 BR   UNL d   1      15.425  17.666  -1.098  0.00  0.00    -0.049 Br
ENDROOT
BRANCH   1  13
ATOM     13  N   UNL d   1      14.418  13.662  -2.281  0.00  0.00    -0.203 NA
ATOM     14  C   UNL d   1      14.501  12.850  -2.172  0.00  0.00     0.281 C 
ATOM     15  O   UNL d   1      14.739  12.081  -1.769  0.00  0.00    -0.265 OA
BRANCH  14  16
ATOM     16  C   UNL d   1      14.221  12.315  -2.729  0.00  0.00     0.082 C 
BRANCH  16  17
ATOM     17  C   UNL d   1      13.532  12.453  -3.150  0.00  0.00     0.085 C 
BRANCH  17  18
ATOM     18  N   UNL d   1      13.473  12.296  -3.953  0.00  0.00    -0.299 N 
ATOM     19  C   UNL d   1      12.812  11.929  -4.279  0.00  0.00     0.107 A 
ATOM     20  C   UNL d   1      12.769  11.780  -5.079  0.00  0.00     0.142 A 
ATOM     21  O   UNL d   1      13.400  12.001  -5.581  0.00  0.00    -0.300 OA
ATOM     22  C   UNL d   1      14.042  12.357  -5.267  0.00  0.00     0.142 A 
ATOM     23  C   UNL d   1      14.105  12.517  -4.454  0.00  0.00     0.107 A 
ENDBRANCH  17  18
ENDBRANCH  16  17
ENDBRANCH  14  16
ENDBRANCH   1  13
BRANCH   2  24
ATOM     24  C   UNL d   1      14.522  15.278  -2.638  0.00  0.00     0.002 A 
ATOM     25  C   UNL d   1      15.086  15.447  -3.215  0.00  0.00     0.000 A 
ATOM     26  C   UNL d   1      14.856  15.725  -3.960  0.00  0.00     0.000 A 
ATOM     27  C   UNL d   1      14.064  15.831  -4.119  0.00  0.00     0.000 A 
ATOM     28  C   UNL d   1      13.491  15.671  -3.567  0.00  0.00     0.000 A 
ATOM     29  C   UNL d   1      13.723  15.391  -2.815  0.00  0.00     0.000 A 
ENDBRANCH   2  24
TORSDOF 5
ENDMDL
