MODEL 1
REMARK VINA RESULT:     -10.2      0.000      0.000
REMARK  2 active torsions:
REMARK  status: ('A' for Active; 'I' for Inactive)
REMARK    1  A    between atoms: N_11  and  C_4 
REMARK    2  A    between atoms: C_16  and  N_12 
ROOT
ATOM      1  N   UNL d   1      52.436  33.423  53.525  0.00  0.00    -0.195 N 
ATOM      2  C   UNL d   1      53.084  32.977  53.720  0.00  0.00     0.168 A 
ATOM      3  C   UNL d   1      53.659  33.278  54.185  0.00  0.00     0.073 A 
ATOM      4  C   UNL d   1      51.870  33.106  53.059  0.00  0.00     0.153 A 
ATOM      5  N   UNL d   1      52.936  34.472  54.257  0.00  0.00    -0.143 NA
ATOM      6  C   UNL d   1      53.583  34.027  54.453  0.00  0.00     0.185 A 
ATOM      7  N   UNL d   1      53.149  32.227  53.446  0.00  0.00    -0.227 NA
ATOM      8  C   UNL d   1      54.299  32.838  54.379  0.00  0.00     0.007 A 
ATOM      9  N   UNL d   1      54.158  34.346  54.925  0.00  0.00    -0.225 NA
ATOM     10  C   UNL d   1      51.931  32.363  52.785  0.00  0.00     0.057 A 
ATOM     11  C   UNL d   1      54.875  33.139  54.843  0.00  0.00     0.019 A 
ATOM     12  C   UNL d   1      52.579  31.918  52.981  0.00  0.00     0.086 A 
ATOM     13  C   UNL d   1      54.806  33.900  55.120  0.00  0.00     0.083 A 
ATOM     14  C   UNL d   1      54.364  32.084  54.102  0.00  0.00     0.000 C 
ATOM     15  C   UNL d   1      52.644  31.138  52.694  0.00  0.00     0.021 C 
ATOM     16  C   UNL d   1      55.375  34.206  55.583  0.00  0.00     0.021 C 
ENDROOT
BRANCH   4  17
ATOM     17  N   UNL d   1      51.206  33.572  52.862  0.00  0.00    -0.286 N 
ATOM     18  C   UNL d   1      51.216  34.112  52.234  0.00  0.00     0.101 A 
ATOM     19  C   UNL d   1      50.538  34.558  52.068  0.00  0.00     0.100 A 
ATOM     20  N   UNL d   1      49.849  34.467  52.523  0.00  0.00    -0.301 N 
ATOM     21  C   UNL d   1      49.830  33.920  53.163  0.00  0.00     0.100 A 
ATOM     22  C   UNL d   1      50.510  33.476  53.327  0.00  0.00     0.101 A 
BRANCH  20  23
ATOM     23  C   UNL d   1      49.174  34.915  52.353  0.00  0.00     0.064 A 
ATOM     24  C   UNL d   1      48.786  34.828  51.628  0.00  0.00     0.016 A 
ATOM     25  C   UNL d   1      49.071  34.293  51.068  0.00  0.00     0.002 C 
ATOM     26  C   UNL d   1      48.100  35.282  51.454  0.00  0.00     0.001 A 
ATOM     27  C   UNL d   1      47.806  35.828  52.019  0.00  0.00     0.000 A 
ATOM     28  C   UNL d   1      48.203  35.912  52.754  0.00  0.00     0.002 A 
ATOM     29  C   UNL d   1      48.882  35.458  52.918  0.00  0.00     0.018 A 
ENDBRANCH  20  23
ENDBRANCH   4  17
TORSDOF 2
ENDMDL
MODEL 2
REMARK VINA RESULT:     -10.1      0.938      2.210
REMARK  2 active torsions:
REMARK  status: ('A' for Active; 'I' for Inactive)
REMARK    1  A    between atoms: N_11  and  C_4 
REMARK    2  A    between atoms: C_16  and  N_12 
ROOT
ATOM      1  N   UNL d   1      52.093  33.142  53.023  0.00  0.00    -0.195 N 
ATOM      2  C   UNL d   1      52.793  32.915  53.364  0.00  0.00     0.168 A 
ATOM      3  C   UNL d   1      53.021  32.150  53.352  0.00  0.00     0.073 A 
ATOM      4  C   UNL d   1      51.880  33.912  53.044  0.00  0.00     0.153 A 
ATOM      5  N   UNL d   1      51.848  31.841  52.659  0.00  0.00    -0.143 NA
ATOM      6  C   UNL d   1      52.547  31.614  52.999  0.00  0.00     0.185 A 
ATOM      7  N   UNL d   1      53.260  33.463  53.716  0.00  0.00    -0.227 NA
ATOM      8  C   UNL d   1      53.712  31.926  53.689  0.00  0.00     0.007 A 
ATOM      9  N   UNL d   1      52.765  30.835  52.980  0.00  0.00    -0.225 NA
ATOM     10  C   UNL d   1      52.341  34.457  53.391  0.00  0.00     0.057 A 
ATOM     11  C   UNL d   1      53.941  31.161  53.678  0.00  0.00     0.019 A 
ATOM     12  C   UNL d   1      53.040  34.230  53.732  0.00  0.00     0.086 A 
ATOM     13  C   UNL d   1      53.464  30.608  53.320  0.00  0.00     0.083 A 
ATOM     14  C   UNL d   1      54.182  32.477  54.042  0.00  0.00     0.000 C 
ATOM     15  C   UNL d   1      53.524  34.801  54.097  0.00  0.00     0.021 C 
ATOM     16  C   UNL d   1      53.686  29.845  53.305  0.00  0.00     0.021 C 
ENDROOT
BRANCH   4  17
ATOM     17  N   UNL d   1      51.158  34.137  52.691  0.00  0.00    -0.286 N 
ATOM     18  C   UNL d   1      51.084  34.257  51.874  0.00  0.00     0.101 A 
ATOM     19  C   UNL d   1      50.352  34.481  51.559  0.00  0.00     0.100 A 
ATOM     20  N   UNL d   1      49.692  34.585  52.053  0.00  0.00    -0.301 N 
ATOM     21  C   UNL d   1      49.758  34.465  52.883  0.00  0.00     0.100 A 
ATOM     22  C   UNL d   1      50.493  34.241  53.196  0.00  0.00     0.101 A 
BRANCH  20  23
ATOM     23  C   UNL d   1      48.962  34.808  51.733  0.00  0.00     0.064 A 
ATOM     24  C   UNL d   1      48.478  35.348  52.130  0.00  0.00     0.016 A 
ATOM     25  C   UNL d   1      48.720  35.668  52.851  0.00  0.00     0.002 C 
ATOM     26  C   UNL d   1      47.736  35.575  51.806  0.00  0.00     0.001 A 
ATOM     27  C   UNL d   1      47.484  35.253  51.074  0.00  0.00     0.000 A 
ATOM     28  C   UNL d   1      47.979  34.705  50.673  0.00  0.00     0.002 A 
ATOM     29  C   UNL d   1      48.712  34.486  51.002  0.00  0.00     0.018 A 
ENDBRANCH  20  23
ENDBRANCH   4  17
TORSDOF 2
ENDMDL
MODEL 3
REMARK VINA RESULT:      -9.1      1.023      5.349
REMARK  2 active torsions:
REMARK  status: ('A' for Active; 'I' for Inactive)
REMARK    1  A    between atoms: N_11  and  C_4 
REMARK    2  A    between atoms: C_16  and  N_12 
ROOT
ATOM      1  N   UNL d   1      49.874  34.871  52.946  0.00  0.00    -0.195 N 
ATOM      2  C   UNL d   1      49.168  35.037  52.585  0.00  0.00     0.168 A 
ATOM      3  C   UNL d   1      48.604  35.454  52.966  0.00  0.00     0.073 A 
ATOM      4  C   UNL d   1      50.427  34.453  52.551  0.00  0.00     0.153 A 
ATOM      5  N   UNL d   1      49.454  35.538  54.072  0.00  0.00    -0.143 NA
ATOM      6  C   UNL d   1      48.748  35.704  53.710  0.00  0.00     0.185 A 
ATOM      7  N   UNL d   1      49.034  34.781  51.837  0.00  0.00    -0.227 NA
ATOM      8  C   UNL d   1      47.906  35.618  52.608  0.00  0.00     0.007 A 
ATOM      9  N   UNL d   1      48.186  36.128  54.109  0.00  0.00    -0.225 NA
ATOM     10  C   UNL d   1      50.297  34.198  51.810  0.00  0.00     0.057 A 
ATOM     11  C   UNL d   1      47.341  36.035  52.989  0.00  0.00     0.019 A 
ATOM     12  C   UNL d   1      49.592  34.364  51.449  0.00  0.00     0.086 A 
ATOM     13  C   UNL d   1      47.481  36.294  53.748  0.00  0.00     0.083 A 
ATOM     14  C   UNL d   1      47.772  35.360  51.857  0.00  0.00     0.000 C 
ATOM     15  C   UNL d   1      49.455  34.096  50.672  0.00  0.00     0.021 C 
ATOM     16  C   UNL d   1      46.923  36.709  54.132  0.00  0.00     0.021 C 
ENDROOT
BRANCH   4  17
ATOM     17  N   UNL d   1      51.151  34.287  52.931  0.00  0.00    -0.286 N 
ATOM     18  C   UNL d   1      51.781  34.825  52.937  0.00  0.00     0.101 A 
ATOM     19  C   UNL d   1      52.486  34.625  53.324  0.00  0.00     0.100 A 
ATOM     20  N   UNL d   1      52.566  33.892  53.706  0.00  0.00    -0.301 N 
ATOM     21  C   UNL d   1      51.931  33.340  53.705  0.00  0.00     0.100 A 
ATOM     22  C   UNL d   1      51.227  33.542  53.317  0.00  0.00     0.101 A 
BRANCH  20  23
ATOM     23  C   UNL d   1      53.272  33.697  54.092  0.00  0.00     0.064 A 
ATOM     24  C   UNL d   1      53.779  33.126  53.774  0.00  0.00     0.016 A 
ATOM     25  C   UNL d   1      53.583  32.746  53.069  0.00  0.00     0.002 C 
ATOM     26  C   UNL d   1      54.496  32.928  54.166  0.00  0.00     0.001 A 
ATOM     27  C   UNL d   1      54.701  33.311  54.883  0.00  0.00     0.000 A 
ATOM     28  C   UNL d   1      54.182  33.891  55.202  0.00  0.00     0.002 A 
ATOM     29  C   UNL d   1      53.474  34.080  54.807  0.00  0.00     0.018 A 
ENDBRANCH  20  23
ENDBRANCH   4  17
TORSDOF 2
ENDMDL
