MODEL 1
REMARK VINA RESULT:      -7.1      0.000      0.000
REMARK  5 active torsions:
REMARK  status: ('A' for Active; 'I' for Inactive)
REMARK    1  A    between atoms: C_5  and  N_1 
REMARK    2  A    between atoms: C_6  and  C_5 
REMARK       I    between atoms: N_9  and  C_6 
REMARK    3  A    between atoms: C_13  and  N_9 
REMARK    4  A    between atoms: O_19  and  C_14 
REMARK    5  A    between atoms: C_21  and  O_19 
ROOT
ATOM      1  C   UNL d   1     -48.391  13.112  22.882  0.00  0.00     0.297 C 
ATOM      2  N   UNL d   1     -47.747  13.149  23.396  0.00  0.00    -0.207 NA
ATOM      3  O   UNL d   1     -48.268  13.128  22.066  0.00  0.00    -0.264 OA
ENDROOT
BRANCH   1   4
ATOM      4  C   UNL d   1     -49.154  13.058  23.180  0.00  0.00     0.148 C 
BRANCH   4   5
ATOM      5  N   UNL d   1     -49.790  13.348  22.743  0.00  0.00    -0.235 N 
ATOM      6  C   UNL d   1     -50.075  14.118  22.889  0.00  0.00     0.273 A 
ATOM      7  C   UNL d   1     -50.712  14.408  22.451  0.00  0.00     0.086 A 
ATOM      8  O   UNL d   1     -49.716  14.587  23.472  0.00  0.00    -0.266 OA
ATOM      9  C   UNL d   1     -51.000  15.171  22.590  0.00  0.00     0.012 C 
ATOM     10  S   UNL d   1     -51.064  13.928  21.868  0.00  0.00    -0.077 SA
ATOM     11  C   UNL d   1     -50.779  13.174  21.731  0.00  0.00     0.097 A 
ATOM     12  C   UNL d   1     -50.142  12.884  22.169  0.00  0.00     0.274 A 
ATOM     13  O   UNL d   1     -49.850  12.111  22.028  0.00  0.00    -0.266 OA
ENDBRANCH   4   5
ENDBRANCH   1   4
BRANCH   2  14
ATOM     14  C   UNL d   1     -46.981  13.202  23.094  0.00  0.00     0.085 A 
ATOM     15  C   UNL d   1     -46.675  13.929  22.884  0.00  0.00     0.021 A 
ATOM     16  C   UNL d   1     -45.924  13.991  22.586  0.00  0.00     0.026 A 
ATOM     17  C   UNL d   1     -45.459  13.306  22.494  0.00  0.00     0.100 A 
ATOM     18  C   UNL d   1     -45.764  12.579  22.705  0.00  0.00     0.026 A 
ATOM     19  C   UNL d   1     -46.538  12.529  23.009  0.00  0.00     0.021 A 
BRANCH  17  20
ATOM     20  O   UNL d   1     -44.683  13.370  22.187  0.00  0.00    -0.305 OA
BRANCH  20  21
ATOM     21  C   UNL d   1     -44.351  12.755  21.750  0.00  0.00     0.123 C 
ATOM     22  C   UNL d   1     -43.614  12.848  21.400  0.00  0.00     0.029 C 
ENDBRANCH  20  21
ENDBRANCH  17  20
ENDBRANCH   2  14
TORSDOF 5
ENDMDL
MODEL 2
REMARK VINA RESULT:      -6.9      1.360      1.707
REMARK  5 active torsions:
REMARK  status: ('A' for Active; 'I' for Inactive)
REMARK    1  A    between atoms: C_5  and  N_1 
REMARK    2  A    between atoms: C_6  and  C_5 
REMARK       I    between atoms: N_9  and  C_6 
REMARK    3  A    between atoms: C_13  and  N_9 
REMARK    4  A    between atoms: O_19  and  C_14 
REMARK    5  A    between atoms: C_21  and  O_19 
ROOT
ATOM      1  C   UNL d   1     -48.666  12.238  22.943  0.00  0.00     0.297 C 
ATOM      2  N   UNL d   1     -48.241  12.049  23.625  0.00  0.00    -0.207 NA
ATOM      3  O   UNL d   1     -48.296  12.208  22.206  0.00  0.00    -0.264 OA
ENDROOT
BRANCH   1   4
ATOM      4  C   UNL d   1     -49.456  12.454  22.997  0.00  0.00     0.148 C 
BRANCH   4   5
ATOM      5  N   UNL d   1     -49.744  13.082  22.546  0.00  0.00    -0.235 N 
ATOM      6  C   UNL d   1     -49.792  13.844  22.882  0.00  0.00     0.273 A 
ATOM      7  C   UNL d   1     -50.081  14.472  22.432  0.00  0.00     0.086 A 
ATOM      8  O   UNL d   1     -49.549  13.964  23.667  0.00  0.00    -0.266 OA
ATOM      9  C   UNL d   1     -50.131  15.231  22.758  0.00  0.00     0.012 C 
ATOM     10  S   UNL d   1     -50.322  14.339  21.645  0.00  0.00    -0.077 SA
ATOM     11  C   UNL d   1     -50.271  13.589  21.323  0.00  0.00     0.097 A 
ATOM     12  C   UNL d   1     -49.983  12.961  21.774  0.00  0.00     0.274 A 
ATOM     13  O   UNL d   1     -49.932  12.193  21.443  0.00  0.00    -0.266 OA
ENDBRANCH   4   5
ENDBRANCH   1   4
BRANCH   2  14
ATOM     14  C   UNL d   1     -47.447  11.831  23.569  0.00  0.00     0.085 A 
ATOM     15  C   UNL d   1     -47.227  11.056  23.698  0.00  0.00     0.021 A 
ATOM     16  C   UNL d   1     -46.450  10.834  23.645  0.00  0.00     0.026 A 
ATOM     17  C   UNL d   1     -45.870  11.402  23.456  0.00  0.00     0.100 A 
ATOM     18  C   UNL d   1     -46.090  12.177  23.327  0.00  0.00     0.026 A 
ATOM     19  C   UNL d   1     -46.892  12.392  23.385  0.00  0.00     0.021 A 
BRANCH  17  20
ATOM     20  O   UNL d   1     -45.067  11.171  23.402  0.00  0.00    -0.305 OA
BRANCH  20  21
ATOM     21  C   UNL d   1     -44.818  10.440  23.692  0.00  0.00     0.123 C 
ATOM     22  C   UNL d   1     -44.020  10.247  23.693  0.00  0.00     0.029 C 
ENDBRANCH  20  21
ENDBRANCH  17  20
ENDBRANCH   2  14
TORSDOF 5
ENDMDL
MODEL 3
REMARK VINA RESULT:      -5.6      8.758     10.089
REMARK  5 active torsions:
REMARK  status: ('A' for Active; 'I' for Inactive)
REMARK    1  A    between atoms: C_5  and  N_1 
REMARK    2  A    between atoms: C_6  and  C_5 
REMARK       I    between atoms: N_9  and  C_6 
REMARK    3  A    between atoms: C_13  and  N_9 
REMARK    4  A    between atoms: O_19  and  C_14 
REMARK    5  A    between atoms: C_21  and  O_19 
ROOT
ATOM      1  C   UNL d   1     -39.917  14.569  18.506  0.00  0.00     0.297 C 
ATOM      2  N   UNL d   1     -40.539  14.704  19.031  0.00  0.00    -0.207 NA
ATOM      3  O   UNL d   1     -39.136  14.637  18.766  0.00  0.00    -0.264 OA
ENDROOT
BRANCH   1   4
ATOM      4  C   UNL d   1     -40.073  14.368  17.725  0.00  0.00     0.148 C 
BRANCH   4   5
ATOM      5  N   UNL d   1     -39.452  14.275  17.190  0.00  0.00    -0.235 N 
ATOM      6  C   UNL d   1     -39.211  14.919  16.719  0.00  0.00     0.273 A 
ATOM      7  C   UNL d   1     -38.591  14.825  16.184  0.00  0.00     0.086 A 
ATOM      8  O   UNL d   1     -39.599  15.650  16.793  0.00  0.00    -0.266 OA
ATOM      9  C   UNL d   1     -38.347  15.460  15.713  0.00  0.00     0.012 C 
ATOM     10  S   UNL d   1     -38.209  14.087  16.119  0.00  0.00    -0.077 SA
ATOM     11  C   UNL d   1     -38.451  13.460  16.585  0.00  0.00     0.097 A 
ATOM     12  C   UNL d   1     -39.072  13.553  17.120  0.00  0.00     0.274 A 
ATOM     13  O   UNL d   1     -39.319  12.910  17.597  0.00  0.00    -0.266 OA
ENDBRANCH   4   5
ENDBRANCH   1   4
BRANCH   2  14
ATOM     14  C   UNL d   1     -40.380  14.905  19.815  0.00  0.00     0.085 A 
ATOM     15  C   UNL d   1     -40.326  15.690  20.031  0.00  0.00     0.021 A 
ATOM     16  C   UNL d   1     -40.170  15.898  20.798  0.00  0.00     0.026 A 
ATOM     17  C   UNL d   1     -40.064  15.304  21.373  0.00  0.00     0.100 A 
ATOM     18  C   UNL d   1     -40.118  14.519  21.157  0.00  0.00     0.026 A 
ATOM     19  C   UNL d   1     -40.279  14.319  20.364  0.00  0.00     0.021 A 
BRANCH  17  20
ATOM     20  O   UNL d   1     -39.903  15.518  22.166  0.00  0.00    -0.305 OA
BRANCH  20  21
ATOM     21  C   UNL d   1     -39.156  15.791  22.384  0.00  0.00     0.123 C 
ATOM     22  C   UNL d   1     -38.980  15.922  23.176  0.00  0.00     0.029 C 
ENDBRANCH  20  21
ENDBRANCH  17  20
ENDBRANCH   2  14
TORSDOF 5
ENDMDL
MODEL 4
REMARK VINA RESULT:      -5.5      8.840      9.818
REMARK  5 active torsions:
REMARK  status: ('A' for Active; 'I' for Inactive)
REMARK    1  A    between atoms: C_5  and  N_1 
REMARK    2  A    between atoms: C_6  and  C_5 
REMARK       I    between atoms: N_9  and  C_6 
REMARK    3  A    between atoms: C_13  and  N_9 
REMARK    4  A    between atoms: O_19  and  C_14 
REMARK    5  A    between atoms: C_21  and  O_19 
ROOT
ATOM      1  C   UNL d   1     -40.035  14.697  19.238  0.00  0.00     0.297 C 
ATOM      2  N   UNL d   1     -40.411  14.466  19.935  0.00  0.00    -0.207 NA
ATOM      3  O   UNL d   1     -39.360  15.170  19.272  0.00  0.00    -0.264 OA
ENDROOT
BRANCH   1   4
ATOM      4  C   UNL d   1     -40.330  14.457  18.511  0.00  0.00     0.148 C 
BRANCH   4   5
ATOM      5  N   UNL d   1     -39.863  14.519  17.833  0.00  0.00    -0.235 N 
ATOM      6  C   UNL d   1     -39.389  13.875  17.598  0.00  0.00     0.273 A 
ATOM      7  C   UNL d   1     -38.923  13.937  16.921  0.00  0.00     0.086 A 
ATOM      8  O   UNL d   1     -39.391  13.177  18.047  0.00  0.00    -0.266 OA
ATOM      9  C   UNL d   1     -38.449  13.301  16.681  0.00  0.00     0.012 C 
ATOM     10  S   UNL d   1     -38.929  14.643  16.478  0.00  0.00    -0.077 SA
ATOM     11  C   UNL d   1     -39.397  15.270  16.715  0.00  0.00     0.097 A 
ATOM     12  C   UNL d   1     -39.864  15.208  17.393  0.00  0.00     0.274 A 
ATOM     13  O   UNL d   1     -40.343  15.851  17.635  0.00  0.00    -0.266 OA
ENDBRANCH   4   5
ENDBRANCH   1   4
BRANCH   2  14
ATOM     14  C   UNL d   1     -40.112  14.708  20.665  0.00  0.00     0.085 A 
ATOM     15  C   UNL d   1     -39.649  14.200  21.104  0.00  0.00     0.021 A 
ATOM     16  C   UNL d   1     -39.351  14.430  21.822  0.00  0.00     0.026 A 
ATOM     17  C   UNL d   1     -39.520  15.192  22.114  0.00  0.00     0.100 A 
ATOM     18  C   UNL d   1     -39.984  15.699  21.675  0.00  0.00     0.026 A 
ATOM     19  C   UNL d   1     -40.283  15.451  20.938  0.00  0.00     0.021 A 
BRANCH  17  20
ATOM     20  O   UNL d   1     -39.212  15.428  22.855  0.00  0.00    -0.305 OA
BRANCH  20  21
ATOM     21  C   UNL d   1     -38.443  15.721  22.918  0.00  0.00     0.123 C 
ATOM     22  C   UNL d   1     -38.137  15.922  23.653  0.00  0.00     0.029 C 
ENDBRANCH  20  21
ENDBRANCH  17  20
ENDBRANCH   2  14
TORSDOF 5
ENDMDL
MODEL 5
REMARK VINA RESULT:      -5.4      8.513      9.752
REMARK  5 active torsions:
REMARK  status: ('A' for Active; 'I' for Inactive)
REMARK    1  A    between atoms: C_5  and  N_1 
REMARK    2  A    between atoms: C_6  and  C_5 
REMARK       I    between atoms: N_9  and  C_6 
REMARK    3  A    between atoms: C_13  and  N_9 
REMARK    4  A    between atoms: O_19  and  C_14 
REMARK    5  A    between atoms: C_21  and  O_19 
ROOT
ATOM      1  C   UNL d   1     -39.962  14.437  19.709  0.00  0.00     0.297 C 
ATOM      2  N   UNL d   1     -40.278  14.003  19.083  0.00  0.00    -0.207 NA
ATOM      3  O   UNL d   1     -39.318  14.937  19.579  0.00  0.00    -0.264 OA
ENDROOT
BRANCH   1   4
ATOM      4  C   UNL d   1     -40.286  14.374  20.460  0.00  0.00     0.148 C 
BRANCH   4   5
ATOM      5  N   UNL d   1     -39.934  14.762  21.097  0.00  0.00    -0.235 N 
ATOM      6  C   UNL d   1     -39.360  14.368  21.556  0.00  0.00     0.273 A 
ATOM      7  C   UNL d   1     -39.008  14.757  22.193  0.00  0.00     0.086 A 
ATOM      8  O   UNL d   1     -39.147  13.588  21.367  0.00  0.00    -0.266 OA
ATOM      9  C   UNL d   1     -38.437  14.372  22.652  0.00  0.00     0.012 C 
ATOM     10  S   UNL d   1     -39.230  15.540  22.372  0.00  0.00    -0.077 SA
ATOM     11  C   UNL d   1     -39.794  15.919  21.918  0.00  0.00     0.097 A 
ATOM     12  C   UNL d   1     -40.146  15.531  21.281  0.00  0.00     0.274 A 
ATOM     13  O   UNL d   1     -40.724  15.920  20.815  0.00  0.00    -0.266 OA
ENDBRANCH   4   5
ENDBRANCH   1   4
BRANCH   2  14
ATOM     14  C   UNL d   1     -39.951  14.069  18.329  0.00  0.00     0.085 A 
ATOM     15  C   UNL d   1     -40.245  14.620  17.803  0.00  0.00     0.021 A 
ATOM     16  C   UNL d   1     -39.930  14.691  17.060  0.00  0.00     0.026 A 
ATOM     17  C   UNL d   1     -39.299  14.198  16.831  0.00  0.00     0.100 A 
ATOM     18  C   UNL d   1     -39.005  13.647  17.356  0.00  0.00     0.026 A 
ATOM     19  C   UNL d   1     -39.338  13.584  18.117  0.00  0.00     0.021 A 
BRANCH  17  20
ATOM     20  O   UNL d   1     -38.973  14.272  16.063  0.00  0.00    -0.305 OA
BRANCH  20  21
ATOM     21  C   UNL d   1     -38.250  13.921  15.877  0.00  0.00     0.123 C 
ATOM     22  C   UNL d   1     -37.959  13.960  15.110  0.00  0.00     0.029 C 
ENDBRANCH  20  21
ENDBRANCH  17  20
ENDBRANCH   2  14
TORSDOF 5
ENDMDL
