MODEL 1
REMARK VINA RESULT:      11.8      0.000      0.000
REMARK  6 active torsions:
REMARK  status: ('A' for Active; 'I' for Inactive)
REMARK    1  A    between atoms: C_4  and  C_2 
REMARK       I    between atoms: N_13  and  C_4 
REMARK    2  A    between atoms: O_17  and  C_8 
REMARK    3  A    between atoms: O_18  and  C_9 
REMARK    4  A    between atoms: C_19  and  N_13 
REMARK    5  A    between atoms: C_15  and  C_20 
REMARK    6  A    between atoms: C_20  and  C_19 
ROOT
ATOM      1  C   UNL d   1      45.830 -16.402  44.521  0.00  0.00     0.102 C 
ENDROOT
BRANCH   1   2
ATOM      2  N   UNL d   1      45.026 -16.327  44.692  0.00  0.00    -0.205 NA
ATOM      3  C   UNL d   1      44.683 -15.571  44.771  0.00  0.00     0.299 C 
ATOM      4  O   UNL d   1      43.874 -15.506  44.943  0.00  0.00    -0.263 OA
BRANCH   3   5
ATOM      5  C   UNL d   1      45.149 -14.883  44.678  0.00  0.00     0.161 A 
ATOM      6  N   UNL d   1      44.825 -14.226  44.305  0.00  0.00    -0.140 NA
ATOM      7  N   UNL d   1      45.277 -13.551  44.211  0.00  0.00    -0.105 NA
ATOM      8  C   UNL d   1      46.054 -13.529  44.489  0.00  0.00     0.297 A 
ATOM      9  C   UNL d   1      46.379 -14.181  44.860  0.00  0.00     0.066 A 
ATOM     10  O   UNL d   1      46.508 -12.833  44.388  0.00  0.00    -0.264 OA
ATOM     11  C   UNL d   1      45.926 -14.861  44.955  0.00  0.00     0.031 A 
ENDBRANCH   3   5
ENDBRANCH   1   2
BRANCH   1  12
ATOM     12  C   UNL d   1      46.243 -17.073  44.769  0.00  0.00     0.021 C 
BRANCH  12  13
ATOM     13  C   UNL d   1      46.325 -17.717  44.266  0.00  0.00     0.004 A 
ATOM     14  C   UNL d   1      46.398 -18.468  44.579  0.00  0.00     0.026 A 
ATOM     15  C   UNL d   1      46.480 -19.116  44.075  0.00  0.00     0.116 A 
ATOM     16  C   UNL d   1      46.487 -19.004  43.258  0.00  0.00     0.116 A 
ATOM     17  C   UNL d   1      46.413 -18.244  42.944  0.00  0.00     0.026 A 
ATOM     18  C   UNL d   1      46.332 -17.605  43.448  0.00  0.00     0.002 A 
BRANCH  15  19
ATOM     19  O   UNL d   1      46.555 -19.887  44.396  0.00  0.00    -0.326 OA
ATOM     20  C   UNL d   1      45.984 -20.178  44.915  0.00  0.00     0.181 C 
ENDBRANCH  15  19
BRANCH  16  21
ATOM     21  O   UNL d   1      46.570 -19.660  42.747  0.00  0.00    -0.326 OA
ATOM     22  C   UNL d   1      46.569 -19.549  41.930  0.00  0.00     0.181 C 
ENDBRANCH  16  21
ENDBRANCH  12  13
ENDBRANCH   1  12
TORSDOF 6
ENDMDL
