MODEL 1
REMARK VINA RESULT:      -2.3      0.000      0.000
REMARK  5 active torsions:
REMARK  status: ('A' for Active; 'I' for Inactive)
REMARK    1  A    between atoms: C_11  and  N_1 
REMARK    2  A    between atoms: S_10  and  C_2 
REMARK    3  A    between atoms: S_3  and  C_12 
REMARK    4  A    between atoms: C_13  and  C_11 
REMARK    5  A    between atoms: C_12  and  C_13 
ROOT
ATOM      1  N   UNL d   1      31.324  17.029 -24.385  0.00  0.00    -0.295 N 
ATOM      2  C   UNL d   1      31.378  16.398 -23.865  0.00  0.00     0.121 A 
ATOM      3  S   UNL d   1      30.620  16.131 -23.688  0.00  0.00    -0.062 SA
ATOM      4  C   UNL d   1      30.523  17.160 -24.537  0.00  0.00     0.071 A 
ATOM      5  C   UNL d   1      30.084  16.599 -24.102  0.00  0.00     0.047 A 
ATOM      6  C   UNL d   1      30.135  17.713 -25.011  0.00  0.00     0.018 A 
ATOM      7  C   UNL d   1      29.264  16.601 -24.149  0.00  0.00     0.008 A 
ATOM      8  C   UNL d   1      29.306  17.708 -25.053  0.00  0.00     0.002 A 
ATOM      9  C   UNL d   1      28.877  17.160 -24.629  0.00  0.00     0.001 A 
ENDROOT
BRANCH   1  10
ATOM     10  C   UNL d   1      31.945  17.450 -24.695  0.00  0.00     0.082 C 
BRANCH  10  11
ATOM     11  C   UNL d   1      32.216  18.142 -24.317  0.00  0.00     0.034 C 
BRANCH  11  12
ATOM     12  C   UNL d   1      32.906  18.510 -24.567  0.00  0.00     0.119 C 
BRANCH  12  13
ATOM     13  S   UNL d   1      33.068  19.285 -24.328  0.00  0.00     0.140 S 
ATOM     14  O   UNL d   1      33.228  20.041 -24.088  0.00  0.00    -0.591 OA
ATOM     15  O   UNL d   1      32.896  19.555 -25.086  0.00  0.00    -0.591 OA
ATOM     16  O   UNL d   1      33.241  19.013 -23.565  0.00  0.00    -0.591 OA
ENDBRANCH  12  13
ENDBRANCH  11  12
ENDBRANCH  10  11
ENDBRANCH   1  10
BRANCH   2  17
ATOM     17  S   UNL d   1      32.076  16.082 -23.567  0.00  0.00    -0.089 SA
ATOM     18  C   UNL d   1      32.058  15.453 -23.053  0.00  0.00     0.076 C 
ENDBRANCH   2  17
TORSDOF 5
ENDMDL
MODEL 2
REMARK VINA RESULT:      -2.2      2.304      3.609
REMARK  5 active torsions:
REMARK  status: ('A' for Active; 'I' for Inactive)
REMARK    1  A    between atoms: C_11  and  N_1 
REMARK    2  A    between atoms: S_10  and  C_2 
REMARK    3  A    between atoms: S_3  and  C_12 
REMARK    4  A    between atoms: C_13  and  C_11 
REMARK    5  A    between atoms: C_12  and  C_13 
ROOT
ATOM      1  N   UNL d   1      31.620  17.154 -24.490  0.00  0.00    -0.295 N 
ATOM      2  C   UNL d   1      32.105  17.810 -24.572  0.00  0.00     0.121 A 
ATOM      3  S   UNL d   1      32.791  17.691 -24.135  0.00  0.00    -0.062 SA
ATOM      4  C   UNL d   1      32.006  16.617 -23.996  0.00  0.00     0.071 A 
ATOM      5  C   UNL d   1      32.737  16.953 -23.774  0.00  0.00     0.047 A 
ATOM      6  C   UNL d   1      31.792  15.870 -23.718  0.00  0.00     0.018 A 
ATOM      7  C   UNL d   1      33.241  16.536 -23.278  0.00  0.00     0.008 A 
ATOM      8  C   UNL d   1      32.307  15.455 -23.217  0.00  0.00     0.002 A 
ATOM      9  C   UNL d   1      33.021  15.783 -23.001  0.00  0.00     0.001 A 
ENDROOT
BRANCH   1  10
ATOM     10  C   UNL d   1      30.891  17.050 -24.833  0.00  0.00     0.082 C 
BRANCH  10  11
ATOM     11  C   UNL d   1      30.195  17.207 -24.401  0.00  0.00     0.034 C 
BRANCH  11  12
ATOM     12  C   UNL d   1      29.459  17.138 -24.758  0.00  0.00     0.119 C 
BRANCH  12  13
ATOM     13  S   UNL d   1      28.774  17.167 -24.296  0.00  0.00     0.140 S 
ATOM     14  O   UNL d   1      28.104  17.190 -23.843  0.00  0.00    -0.591 OA
ATOM     15  O   UNL d   1      28.792  17.990 -24.322  0.00  0.00    -0.591 OA
ATOM     16  O   UNL d   1      28.757  16.340 -24.270  0.00  0.00    -0.591 OA
ENDBRANCH  12  13
ENDBRANCH  11  12
ENDBRANCH  10  11
ENDBRANCH   1  10
BRANCH   2  17
ATOM     17  S   UNL d   1      31.933  18.478 -25.019  0.00  0.00    -0.089 SA
ATOM     18  C   UNL d   1      32.480  19.074 -25.096  0.00  0.00     0.076 C 
ENDBRANCH   2  17
TORSDOF 5
ENDMDL
MODEL 3
REMARK VINA RESULT:      -2.0      1.276      2.200
REMARK  5 active torsions:
REMARK  status: ('A' for Active; 'I' for Inactive)
REMARK    1  A    between atoms: C_11  and  N_1 
REMARK    2  A    between atoms: S_10  and  C_2 
REMARK    3  A    between atoms: S_3  and  C_12 
REMARK    4  A    between atoms: C_13  and  C_11 
REMARK    5  A    between atoms: C_12  and  C_13 
ROOT
ATOM      1  N   UNL d   1      30.077  16.999 -24.337  0.00  0.00    -0.295 N 
ATOM      2  C   UNL d   1      29.359  17.349 -24.522  0.00  0.00     0.121 A 
ATOM      3  S   UNL d   1      28.774  17.030 -24.039  0.00  0.00    -0.062 SA
ATOM      4  C   UNL d   1      29.941  16.455 -23.732  0.00  0.00     0.071 A 
ATOM      5  C   UNL d   1      29.127  16.475 -23.546  0.00  0.00     0.047 A 
ATOM      6  C   UNL d   1      30.447  15.945 -23.325  0.00  0.00     0.018 A 
ATOM      7  C   UNL d   1      28.835  15.984 -22.956  0.00  0.00     0.008 A 
ATOM      8  C   UNL d   1      30.143  15.453 -22.730  0.00  0.00     0.002 A 
ATOM      9  C   UNL d   1      29.348  15.472 -22.549  0.00  0.00     0.001 A 
ENDROOT
BRANCH   1  10
ATOM     10  C   UNL d   1      30.792  17.159 -24.686  0.00  0.00     0.082 C 
BRANCH  10  11
ATOM     11  C   UNL d   1      31.284  17.760 -24.384  0.00  0.00     0.034 C 
BRANCH  11  12
ATOM     12  C   UNL d   1      32.026  17.893 -24.709  0.00  0.00     0.119 C 
BRANCH  12  13
ATOM     13  S   UNL d   1      32.524  18.463 -24.376  0.00  0.00     0.140 S 
ATOM     14  O   UNL d   1      33.012  19.018 -24.045  0.00  0.00    -0.591 OA
ATOM     15  O   UNL d   1      32.384  18.961 -25.017  0.00  0.00    -0.591 OA
ATOM     16  O   UNL d   1      32.665  17.963 -23.732  0.00  0.00    -0.591 OA
ENDBRANCH  12  13
ENDBRANCH  11  12
ENDBRANCH  10  11
ENDBRANCH   1  10
BRANCH   2  17
ATOM     17  S   UNL d   1      29.241  17.925 -25.097  0.00  0.00    -0.089 SA
ATOM     18  C   UNL d   1      28.567  18.379 -25.095  0.00  0.00     0.076 C 
ENDBRANCH   2  17
TORSDOF 5
ENDMDL
MODEL 4
REMARK VINA RESULT:      -1.7      2.904      3.990
REMARK  5 active torsions:
REMARK  status: ('A' for Active; 'I' for Inactive)
REMARK    1  A    between atoms: C_11  and  N_1 
REMARK    2  A    between atoms: S_10  and  C_2 
REMARK    3  A    between atoms: S_3  and  C_12 
REMARK    4  A    between atoms: C_13  and  C_11 
REMARK    5  A    between atoms: C_12  and  C_13 
ROOT
ATOM      1  N   UNL d   1      33.121  19.548 -23.113  0.00  0.00    -0.295 N 
ATOM      2  C   UNL d   1      33.119  19.917 -23.845  0.00  0.00     0.121 A 
ATOM      3  S   UNL d   1      32.979  19.354 -24.428  0.00  0.00    -0.062 SA
ATOM      4  C   UNL d   1      32.979  18.745 -23.237  0.00  0.00     0.071 A 
ATOM      5  C   UNL d   1      32.890  18.624 -24.059  0.00  0.00     0.047 A 
ATOM      6  C   UNL d   1      32.919  18.108 -22.716  0.00  0.00     0.018 A 
ATOM      7  C   UNL d   1      32.743  17.868 -24.343  0.00  0.00     0.008 A 
ATOM      8  C   UNL d   1      32.770  17.348 -23.012  0.00  0.00     0.002 A 
ATOM      9  C   UNL d   1      32.683  17.229 -23.813  0.00  0.00     0.001 A 
ENDROOT
BRANCH   1  10
ATOM     10  C   UNL d   1      33.240  19.908 -22.395  0.00  0.00     0.082 C 
BRANCH  10  11
ATOM     11  C   UNL d   1      32.679  20.448 -22.095  0.00  0.00     0.034 C 
BRANCH  11  12
ATOM     12  C   UNL d   1      32.733  20.717 -21.321  0.00  0.00     0.119 C 
BRANCH  12  13
ATOM     13  S   UNL d   1      32.273  21.360 -21.078  0.00  0.00     0.140 S 
ATOM     14  O   UNL d   1      31.827  21.992 -20.839  0.00  0.00    -0.591 OA
ATOM     15  O   UNL d   1      31.610  20.872 -21.045  0.00  0.00    -0.591 OA
ATOM     16  O   UNL d   1      32.939  21.849 -21.110  0.00  0.00    -0.591 OA
ENDBRANCH  12  13
ENDBRANCH  11  12
ENDBRANCH  10  11
ENDBRANCH   1  10
BRANCH   2  17
ATOM     17  S   UNL d   1      33.240  20.720 -23.976  0.00  0.00    -0.089 SA
ATOM     18  C   UNL d   1      33.241  21.019 -24.732  0.00  0.00     0.076 C 
ENDBRANCH   2  17
TORSDOF 5
ENDMDL
MODEL 5
REMARK VINA RESULT:      -1.4      4.596      6.017
REMARK  5 active torsions:
REMARK  status: ('A' for Active; 'I' for Inactive)
REMARK    1  A    between atoms: C_11  and  N_1 
REMARK    2  A    between atoms: S_10  and  C_2 
REMARK    3  A    between atoms: S_3  and  C_12 
REMARK    4  A    between atoms: C_13  and  C_11 
REMARK    5  A    between atoms: C_12  and  C_13 
ROOT
ATOM      1  N   UNL d   1      32.843  22.345 -22.049  0.00  0.00    -0.295 N 
ATOM      2  C   UNL d   1      32.693  22.940 -22.592  0.00  0.00     0.121 A 
ATOM      3  S   UNL d   1      32.275  23.543 -22.220  0.00  0.00    -0.062 SA
ATOM      4  C   UNL d   1      32.516  22.576 -21.328  0.00  0.00     0.071 A 
ATOM      5  C   UNL d   1      32.162  23.325 -21.434  0.00  0.00     0.047 A 
ATOM      6  C   UNL d   1      32.493  22.208 -20.589  0.00  0.00     0.018 A 
ATOM      7  C   UNL d   1      31.791  23.691 -20.800  0.00  0.00     0.008 A 
ATOM      8  C   UNL d   1      32.116  22.585 -19.954  0.00  0.00     0.002 A 
ATOM      9  C   UNL d   1      31.770  23.316 -20.058  0.00  0.00     0.001 A 
ENDROOT
BRANCH   1  10
ATOM     10  C   UNL d   1      33.241  21.652 -22.195  0.00  0.00     0.082 C 
BRANCH  10  11
ATOM     11  C   UNL d   1      32.821  20.943 -22.324  0.00  0.00     0.034 C 
BRANCH  11  12
ATOM     12  C   UNL d   1      33.223  20.246 -22.487  0.00  0.00     0.119 C 
BRANCH  12  13
ATOM     13  S   UNL d   1      32.817  19.607 -22.820  0.00  0.00     0.140 S 
ATOM     14  O   UNL d   1      32.417  18.981 -23.141  0.00  0.00    -0.591 OA
ATOM     15  O   UNL d   1      33.155  19.774 -23.552  0.00  0.00    -0.591 OA
ATOM     16  O   UNL d   1      32.477  19.440 -22.084  0.00  0.00    -0.591 OA
ENDBRANCH  12  13
ENDBRANCH  11  12
ENDBRANCH  10  11
ENDBRANCH   1  10
BRANCH   2  17
ATOM     17  S   UNL d   1      32.922  22.937 -23.382  0.00  0.00    -0.089 SA
ATOM     18  C   UNL d   1      32.885  23.617 -23.826  0.00  0.00     0.076 C 
ENDBRANCH   2  17
TORSDOF 5
ENDMDL
MODEL 6
REMARK VINA RESULT:      -1.4      4.054      5.461
REMARK  5 active torsions:
REMARK  status: ('A' for Active; 'I' for Inactive)
REMARK    1  A    between atoms: C_11  and  N_1 
REMARK    2  A    between atoms: S_10  and  C_2 
REMARK    3  A    between atoms: S_3  and  C_12 
REMARK    4  A    between atoms: C_13  and  C_11 
REMARK    5  A    between atoms: C_12  and  C_13 
ROOT
ATOM      1  N   UNL d   1      32.916  21.646 -21.947  0.00  0.00    -0.295 N 
ATOM      2  C   UNL d   1      32.521  21.892 -21.272  0.00  0.00     0.121 A 
ATOM      3  S   UNL d   1      32.280  22.672 -21.373  0.00  0.00    -0.062 SA
ATOM      4  C   UNL d   1      32.923  22.278 -22.478  0.00  0.00     0.071 A 
ATOM      5  C   UNL d   1      32.526  22.919 -22.119  0.00  0.00     0.047 A 
ATOM      6  C   UNL d   1      33.237  22.357 -23.237  0.00  0.00     0.018 A 
ATOM      7  C   UNL d   1      32.450  23.627 -22.527  0.00  0.00     0.008 A 
ATOM      8  C   UNL d   1      33.156  23.076 -23.642  0.00  0.00     0.002 A 
ATOM      9  C   UNL d   1      32.768  23.702 -23.292  0.00  0.00     0.001 A 
ENDROOT
BRANCH   1  10
ATOM     10  C   UNL d   1      33.241  20.912 -22.071  0.00  0.00     0.082 C 
BRANCH  10  11
ATOM     11  C   UNL d   1      32.839  20.345 -22.532  0.00  0.00     0.034 C 
BRANCH  11  12
ATOM     12  C   UNL d   1      33.117  19.574 -22.578  0.00  0.00     0.119 C 
BRANCH  12  13
ATOM     13  S   UNL d   1      32.767  19.042 -23.106  0.00  0.00     0.140 S 
ATOM     14  O   UNL d   1      32.423  18.519 -23.619  0.00  0.00    -0.591 OA
ATOM     15  O   UNL d   1      33.038  19.493 -23.740  0.00  0.00    -0.591 OA
ATOM     16  O   UNL d   1      32.495  18.589 -22.469  0.00  0.00    -0.591 OA
ENDBRANCH  12  13
ENDBRANCH  11  12
ENDBRANCH  10  11
ENDBRANCH   1  10
BRANCH   2  17
ATOM     17  S   UNL d   1      32.386  21.435 -20.603  0.00  0.00    -0.089 SA
ATOM     18  C   UNL d   1      32.122  21.777 -19.915  0.00  0.00     0.076 C 
ENDBRANCH   2  17
TORSDOF 5
ENDMDL
MODEL 7
REMARK VINA RESULT:      -1.3      4.257      5.498
REMARK  5 active torsions:
REMARK  status: ('A' for Active; 'I' for Inactive)
REMARK    1  A    between atoms: C_11  and  N_1 
REMARK    2  A    between atoms: S_10  and  C_2 
REMARK    3  A    between atoms: S_3  and  C_12 
REMARK    4  A    between atoms: C_13  and  C_11 
REMARK    5  A    between atoms: C_12  and  C_13 
ROOT
ATOM      1  N   UNL d   1      33.237  21.641 -22.830  0.00  0.00    -0.295 N 
ATOM      2  C   UNL d   1      33.236  21.624 -23.650  0.00  0.00     0.121 A 
ATOM      3  S   UNL d   1      33.232  20.840 -23.901  0.00  0.00    -0.062 SA
ATOM      4  C   UNL d   1      33.234  20.861 -22.563  0.00  0.00     0.071 A 
ATOM      5  C   UNL d   1      33.230  20.360 -23.232  0.00  0.00     0.047 A 
ATOM      6  C   UNL d   1      33.233  20.537 -21.804  0.00  0.00     0.018 A 
ATOM      7  C   UNL d   1      33.227  19.546 -23.128  0.00  0.00     0.008 A 
ATOM      8  C   UNL d   1      33.229  19.713 -21.708  0.00  0.00     0.002 A 
ATOM      9  C   UNL d   1      33.226  19.225 -22.361  0.00  0.00     0.001 A 
ENDROOT
BRANCH   1  10
ATOM     10  C   UNL d   1      33.241  22.307 -22.365  0.00  0.00     0.082 C 
BRANCH  10  11
ATOM     11  C   UNL d   1      32.538  22.572 -22.002  0.00  0.00     0.034 C 
BRANCH  11  12
ATOM     12  C   UNL d   1      32.526  23.281 -21.588  0.00  0.00     0.119 C 
BRANCH  12  13
ATOM     13  S   UNL d   1      31.854  23.491 -21.155  0.00  0.00     0.140 S 
ATOM     14  O   UNL d   1      31.199  23.698 -20.726  0.00  0.00    -0.591 OA
ATOM     15  O   UNL d   1      31.378  23.305 -21.801  0.00  0.00    -0.591 OA
ATOM     16  O   UNL d   1      32.332  23.678 -20.505  0.00  0.00    -0.591 OA
ENDBRANCH  12  13
ENDBRANCH  11  12
ENDBRANCH  10  11
ENDBRANCH   1  10
BRANCH   2  17
ATOM     17  S   UNL d   1      33.238  22.282 -24.142  0.00  0.00    -0.089 SA
ATOM     18  C   UNL d   1      33.071  22.206 -24.934  0.00  0.00     0.076 C 
ENDBRANCH   2  17
TORSDOF 5
ENDMDL
MODEL 8
REMARK VINA RESULT:      -0.5      2.536      3.475
REMARK  5 active torsions:
REMARK  status: ('A' for Active; 'I' for Inactive)
REMARK    1  A    between atoms: C_11  and  N_1 
REMARK    2  A    between atoms: S_10  and  C_2 
REMARK    3  A    between atoms: S_3  and  C_12 
REMARK    4  A    between atoms: C_13  and  C_11 
REMARK    5  A    between atoms: C_12  and  C_13 
ROOT
ATOM      1  N   UNL d   1      31.794  16.550 -24.082  0.00  0.00    -0.295 N 
ATOM      2  C   UNL d   1      32.441  16.343 -23.622  0.00  0.00     0.121 A 
ATOM      3  S   UNL d   1      32.985  16.959 -23.633  0.00  0.00    -0.062 SA
ATOM      4  C   UNL d   1      31.934  17.304 -24.385  0.00  0.00     0.071 A 
ATOM      5  C   UNL d   1      32.678  17.560 -24.105  0.00  0.00     0.047 A 
ATOM      6  C   UNL d   1      31.486  17.793 -24.878  0.00  0.00     0.018 A 
ATOM      7  C   UNL d   1      32.960  18.300 -24.323  0.00  0.00     0.008 A 
ATOM      8  C   UNL d   1      31.779  18.539 -25.093  0.00  0.00     0.002 A 
ATOM      9  C   UNL d   1      32.505  18.788 -24.819  0.00  0.00     0.001 A 
ENDROOT
BRANCH   1  10
ATOM     10  C   UNL d   1      31.135  16.095 -24.215  0.00  0.00     0.082 C 
BRANCH  10  11
ATOM     11  C   UNL d   1      30.440  16.219 -23.772  0.00  0.00     0.034 C 
BRANCH  11  12
ATOM     12  C   UNL d   1      29.796  15.717 -23.857  0.00  0.00     0.119 C 
BRANCH  12  13
ATOM     13  S   UNL d   1      29.059  15.939 -23.555  0.00  0.00     0.140 S 
ATOM     14  O   UNL d   1      28.336  16.157 -23.264  0.00  0.00    -0.591 OA
ATOM     15  O   UNL d   1      29.318  15.762 -22.793  0.00  0.00    -0.591 OA
ATOM     16  O   UNL d   1      28.799  16.117 -24.320  0.00  0.00    -0.591 OA
ENDBRANCH  12  13
ENDBRANCH  11  12
ENDBRANCH  10  11
ENDBRANCH   1  10
BRANCH   2  17
ATOM     17  S   UNL d   1      32.531  15.635 -23.215  0.00  0.00    -0.089 SA
ATOM     18  C   UNL d   1      33.236  15.452 -22.855  0.00  0.00     0.076 C 
ENDBRANCH   2  17
TORSDOF 5
ENDMDL
MODEL 9
REMARK VINA RESULT:      -0.5      4.262      5.410
REMARK  5 active torsions:
REMARK  status: ('A' for Active; 'I' for Inactive)
REMARK    1  A    between atoms: C_11  and  N_1 
REMARK    2  A    between atoms: S_10  and  C_2 
REMARK    3  A    between atoms: S_3  and  C_12 
REMARK    4  A    between atoms: C_13  and  C_11 
REMARK    5  A    between atoms: C_12  and  C_13 
ROOT
ATOM      1  N   UNL d   1      33.233  21.484 -22.726  0.00  0.00    -0.295 N 
ATOM      2  C   UNL d   1      33.227  20.670 -22.819  0.00  0.00     0.121 A 
ATOM      3  S   UNL d   1      33.225  20.491 -23.621  0.00  0.00    -0.062 SA
ATOM      4  C   UNL d   1      33.235  21.821 -23.480  0.00  0.00     0.071 A 
ATOM      5  C   UNL d   1      33.230  21.201 -24.039  0.00  0.00     0.047 A 
ATOM      6  C   UNL d   1      33.241  22.607 -23.733  0.00  0.00     0.018 A 
ATOM      7  C   UNL d   1      33.230  21.378 -24.840  0.00  0.00     0.008 A 
ATOM      8  C   UNL d   1      33.241  22.777 -24.545  0.00  0.00     0.002 A 
ATOM      9  C   UNL d   1      33.235  22.172 -25.090  0.00  0.00     0.001 A 
ENDROOT
BRANCH   1  10
ATOM     10  C   UNL d   1      33.238  21.887 -22.022  0.00  0.00     0.082 C 
BRANCH  10  11
ATOM     11  C   UNL d   1      32.529  22.003 -21.598  0.00  0.00     0.034 C 
BRANCH  11  12
ATOM     12  C   UNL d   1      32.543  22.324 -20.842  0.00  0.00     0.119 C 
BRANCH  12  13
ATOM     13  S   UNL d   1      32.121  23.016 -20.682  0.00  0.00     0.140 S 
ATOM     14  O   UNL d   1      31.712  23.697 -20.525  0.00  0.00    -0.591 OA
ATOM     15  O   UNL d   1      31.414  22.597 -20.733  0.00  0.00    -0.591 OA
ATOM     16  O   UNL d   1      32.832  23.438 -20.630  0.00  0.00    -0.591 OA
ENDBRANCH  12  13
ENDBRANCH  11  12
ENDBRANCH  10  11
ENDBRANCH   1  10
BRANCH   2  17
ATOM     17  S   UNL d   1      33.224  20.119 -22.208  0.00  0.00    -0.089 SA
ATOM     18  C   UNL d   1      32.926  19.373 -22.326  0.00  0.00     0.076 C 
ENDBRANCH   2  17
TORSDOF 5
ENDMDL
