MODEL 1
REMARK VINA RESULT:       0.8      0.000      0.000
REMARK  7 active torsions:
REMARK  status: ('A' for Active; 'I' for Inactive)
REMARK    1  A    between atoms: C_7  and  C_1 
REMARK    2  A    between atoms: C_9  and  N_2 
REMARK    3  A    between atoms: C_6  and  C_3 
REMARK    4  A    between atoms: C_8  and  C_7 
REMARK    5  A    between atoms: C_20  and  C_9 
REMARK    6  A    between atoms: O_24  and  C_10 
REMARK    7  A    between atoms: O_26  and  C_22 
ROOT
ATOM      1  C   UNL d   1      58.184  -1.558  29.880  0.00  0.00     0.101 A 
ATOM      2  N   UNL d   1      57.961  -0.562  30.734  0.00  0.00    -0.270 N 
ATOM      3  C   UNL d   1      58.355  -0.772  30.052  0.00  0.00     0.075 A 
ATOM      4  C   UNL d   1      57.672  -1.840  30.471  0.00  0.00     0.256 A 
ATOM      5  C   UNL d   1      57.534  -1.225  30.999  0.00  0.00     0.304 A 
ATOM      6  O   UNL d   1      57.055  -1.261  31.672  0.00  0.00    -0.263 OA
ATOM      7  O   UNL d   1      57.357  -2.602  30.522  0.00  0.00    -0.281 OA
ENDROOT
BRANCH   3   8
ATOM      8  C   UNL d   1      58.850  -0.286  29.595  0.00  0.00     0.041 A 
ATOM      9  C   UNL d   1      58.541   0.081  28.926  0.00  0.00     0.096 A 
ATOM     10  C   UNL d   1      59.026   0.570  28.460  0.00  0.00     0.026 A 
ATOM     11  C   UNL d   1      59.820   0.682  28.678  0.00  0.00     0.026 A 
ATOM     12  C   UNL d   1      60.126   0.310  29.352  0.00  0.00     0.094 A 
ATOM     13  C   UNL d   1      59.639  -0.172  29.808  0.00  0.00     0.028 A 
BRANCH   9  14
ATOM     14  O   UNL d   1      57.757  -0.029  28.711  0.00  0.00    -0.328 OA
ATOM     15  C   UNL d   1      57.295   0.605  28.459  0.00  0.00     0.181 C 
ENDBRANCH   9  14
BRANCH  12  16
ATOM     16  O   UNL d   1      60.918   0.423  29.567  0.00  0.00    -0.328 OA
ATOM     17  C   UNL d   1      61.132   0.393  30.370  0.00  0.00     0.181 C 
ENDBRANCH  12  16
ENDBRANCH   3   8
BRANCH   2  18
ATOM     18  C   UNL d   1      57.978   0.183  31.106  0.00  0.00     0.085 C 
BRANCH  18  19
ATOM     19  C   UNL d   1      57.473   0.335  31.743  0.00  0.00     0.037 A 
ATOM     20  C   UNL d   1      56.669   0.500  31.598  0.00  0.00     0.100 A 
ATOM     21  N   UNL d   1      56.168   0.651  32.230  0.00  0.00    -0.242 NA
ATOM     22  C   UNL d   1      56.453   0.642  33.004  0.00  0.00     0.099 A 
ATOM     23  C   UNL d   1      57.249   0.478  33.143  0.00  0.00     0.021 A 
ATOM     24  C   UNL d   1      57.760   0.325  32.510  0.00  0.00     0.005 A 
ENDBRANCH  18  19
ENDBRANCH   2  18
BRANCH   1  25
ATOM     25  C   UNL d   1      58.468  -1.997  29.236  0.00  0.00     0.223 C 
ATOM     26  O   UNL d   1      58.160  -1.868  28.486  0.00  0.00    -0.284 OA
BRANCH  25  27
ATOM     27  C   UNL d   1      59.051  -2.556  29.352  0.00  0.00     0.139 A 
ATOM     28  O   UNL d   1      59.445  -2.850  30.014  0.00  0.00    -0.302 OA
ATOM     29  C   UNL d   1      59.986  -3.418  29.762  0.00  0.00     0.123 A 
ATOM     30  C   UNL d   1      59.928  -3.475  28.949  0.00  0.00     0.029 A 
ATOM     31  C   UNL d   1      59.353  -2.944  28.695  0.00  0.00     0.030 A 
ENDBRANCH  25  27
ENDBRANCH   1  25
TORSDOF 7
ENDMDL
