MODEL 1
REMARK VINA RESULT:      59.5      0.000      0.000
REMARK  4 active torsions:
REMARK  status: ('A' for Active; 'I' for Inactive)
REMARK    1  A    between atoms: N_10  and  C_2 
REMARK    2  A    between atoms: N_11  and  C_6 
REMARK    3  A    between atoms: C_12  and  N_11 
REMARK    4  A    between atoms: O_19  and  C_15 
ROOT
ATOM      1  N   UNL d   1     -50.575  25.801  33.401  0.00  0.00    -0.041 NA
ATOM      2  C   UNL d   1     -50.681  25.026  33.400  0.00  0.00     0.738 A 
ATOM      3  C   UNL d   1     -51.193  26.281  33.370  0.00  0.00     0.187 A 
ATOM      4  N   UNL d   1     -51.410  24.728  33.368  0.00  0.00    -0.041 NA
ATOM      5  C   UNL d   1     -51.924  25.986  33.339  0.00  0.00     0.094 A 
ATOM      6  C   UNL d   1     -52.036  25.203  33.338  0.00  0.00     0.185 A 
ATOM      7  N   UNL d   1     -51.711  27.549  33.341  0.00  0.00    -0.162 NA
ATOM      8  N   UNL d   1     -51.081  27.062  33.371  0.00  0.00    -0.208 N 
ATOM      9  C   UNL d   1     -52.440  27.250  33.309  0.00  0.00     0.127 A 
ATOM     10  C   UNL d   1     -50.356  27.359  33.403  0.00  0.00     0.123 C 
ENDROOT
BRANCH   6  11
ATOM     11  N   UNL d   1     -52.791  24.885  33.306  0.00  0.00    -0.226 NA
BRANCH  11  12
ATOM     12  C   UNL d   1     -53.045  24.360  33.884  0.00  0.00     0.085 A 
ATOM     13  C   UNL d   1     -52.807  24.449  34.676  0.00  0.00     0.043 A 
ATOM     14  C   UNL d   1     -53.061  23.922  35.257  0.00  0.00     0.096 A 
ATOM     15  C   UNL d   1     -53.563  23.293  35.047  0.00  0.00     0.024 A 
ATOM     16  C   UNL d   1     -53.801  23.200  34.266  0.00  0.00     0.004 A 
ATOM     17  C   UNL d   1     -53.542  23.734  33.683  0.00  0.00     0.019 A 
BRANCH  14  18
ATOM     18  O   UNL d   1     -52.823  24.014  36.042  0.00  0.00    -0.328 OA
ATOM     19  C   UNL d   1     -53.021  24.551  36.642  0.00  0.00     0.181 C 
ENDBRANCH  14  18
ENDBRANCH  11  12
ENDBRANCH   6  11
BRANCH   2  20
ATOM     20  N   UNL d   1     -50.028  24.515  33.431  0.00  0.00    -0.133 N 
ATOM     21  C   UNL d   1     -50.139  23.699  33.437  0.00  0.00     0.125 A 
ATOM     22  C   UNL d   1     -49.487  23.192  33.469  0.00  0.00     0.142 A 
ATOM     23  O   UNL d   1     -48.716  23.503  33.495  0.00  0.00    -0.300 OA
ATOM     24  C   UNL d   1     -48.602  24.324  33.490  0.00  0.00     0.142 A 
ATOM     25  C   UNL d   1     -49.258  24.830  33.458  0.00  0.00     0.125 A 
ENDBRANCH   2  20
TORSDOF 4
ENDMDL
