MODEL 1
REMARK VINA RESULT:      -5.3      0.000      0.000
REMARK  4 active torsions:
REMARK  status: ('A' for Active; 'I' for Inactive)
REMARK    1  A    between atoms: N_3  and  C_1 
REMARK    2  A    between atoms: C_7  and  C_2 
REMARK       I    between atoms: C_5  and  N_3 
REMARK    3  A    between atoms: C_4  and  C_5 
REMARK    4  A    between atoms: O_17  and  C_7 
ROOT
ATOM      1  N   UNL d   1     -41.456-121.696 -51.226  0.00  0.00    -0.200 NA
ATOM      2  C   UNL d   1     -41.453-121.320 -51.959  0.00  0.00     0.304 C 
ATOM      3  O   UNL d   1     -41.377-120.491 -51.988  0.00  0.00    -0.263 OA
ENDROOT
BRANCH   2   4
ATOM      4  C   UNL d   1     -41.523-121.763 -52.651  0.00  0.00     0.182 A 
ATOM      5  O   UNL d   1     -41.988-121.485 -53.263  0.00  0.00    -0.298 OA
ATOM      6  C   UNL d   1     -42.054-121.929 -53.947  0.00  0.00     0.123 A 
ATOM      7  C   UNL d   1     -42.523-121.654 -54.572  0.00  0.00     0.027 A 
ATOM      8  C   UNL d   1     -41.668-122.644 -54.033  0.00  0.00     0.123 A 
ATOM      9  C   UNL d   1     -42.591-122.098 -55.260  0.00  0.00     0.002 A 
ATOM     10  C   UNL d   1     -42.195-122.821 -55.336  0.00  0.00     0.002 A 
ATOM     11  C   UNL d   1     -41.727-123.096 -54.713  0.00  0.00     0.027 A 
ATOM     12  O   UNL d   1     -41.195-122.920 -53.401  0.00  0.00    -0.301 OA
ATOM     13  C   UNL d   1     -41.123-122.480 -52.710  0.00  0.00     0.152 A 
ENDBRANCH   2   4
BRANCH   1  14
ATOM     14  C   UNL d   1     -41.531-122.514 -51.188  0.00  0.00     0.119 A 
ATOM     15  C   UNL d   1     -42.017-122.933 -50.668  0.00  0.00     0.087 A 
ATOM     16  C   UNL d   1     -41.919-123.744 -50.823  0.00  0.00     0.014 A 
ATOM     17  C   UNL d   1     -41.373-123.817 -51.438  0.00  0.00     0.037 A 
ATOM     18  S   UNL d   1     -41.138-123.059 -51.658  0.00  0.00    -0.067 SA
BRANCH  15  19
ATOM     19  C   UNL d   1     -42.513-122.611 -50.095  0.00  0.00     0.298 C 
ATOM     20  O   UNL d   1     -43.206-122.220 -50.327  0.00  0.00    -0.259 OA
BRANCH  19  21
ATOM     21  O   UNL d   1     -42.323-122.678 -49.295  0.00  0.00    -0.296 OA
ATOM     22  C   UNL d   1     -42.919-122.678 -48.732  0.00  0.00     0.185 C 
ENDBRANCH  19  21
ENDBRANCH  15  19
ENDBRANCH   1  14
TORSDOF 4
ENDMDL
MODEL 2
REMARK VINA RESULT:      -4.7      1.384      4.602
REMARK  4 active torsions:
REMARK  status: ('A' for Active; 'I' for Inactive)
REMARK    1  A    between atoms: N_3  and  C_1 
REMARK    2  A    between atoms: C_7  and  C_2 
REMARK       I    between atoms: C_5  and  N_3 
REMARK    3  A    between atoms: C_4  and  C_5 
REMARK    4  A    between atoms: O_17  and  C_7 
ROOT
ATOM      1  N   UNL d   1     -42.999-122.573 -50.902  0.00  0.00    -0.200 NA
ATOM      2  C   UNL d   1     -43.195-123.112 -50.310  0.00  0.00     0.304 C 
ATOM      3  O   UNL d   1     -43.919-123.519 -50.358  0.00  0.00    -0.263 OA
ENDROOT
BRANCH   2   4
ATOM      4  C   UNL d   1     -42.678-123.241 -49.681  0.00  0.00     0.182 A 
ATOM      5  O   UNL d   1     -42.900-123.024 -48.925  0.00  0.00    -0.298 OA
ATOM      6  C   UNL d   1     -42.382-123.154 -48.304  0.00  0.00     0.123 A 
ATOM      7  C   UNL d   1     -42.601-122.937 -47.535  0.00  0.00     0.027 A 
ATOM      8  C   UNL d   1     -41.650-123.495 -48.422  0.00  0.00     0.123 A 
ATOM      9  C   UNL d   1     -42.083-123.067 -46.911  0.00  0.00     0.002 A 
ATOM     10  C   UNL d   1     -41.342-123.413 -47.041  0.00  0.00     0.002 A 
ATOM     11  C   UNL d   1     -41.124-123.630 -47.809  0.00  0.00     0.027 A 
ATOM     12  O   UNL d   1     -41.432-123.713 -49.199  0.00  0.00    -0.301 OA
ATOM     13  C   UNL d   1     -41.946-123.586 -49.828  0.00  0.00     0.152 A 
ENDBRANCH   2   4
BRANCH   1  14
ATOM     14  C   UNL d   1     -42.285-122.166 -50.862  0.00  0.00     0.119 A 
ATOM     15  C   UNL d   1     -41.775-122.019 -51.496  0.00  0.00     0.087 A 
ATOM     16  C   UNL d   1     -41.123-121.592 -51.205  0.00  0.00     0.014 A 
ATOM     17  C   UNL d   1     -41.238-121.481 -50.395  0.00  0.00     0.037 A 
ATOM     18  S   UNL d   1     -41.953-121.835 -50.190  0.00  0.00    -0.067 SA
BRANCH  15  19
ATOM     19  C   UNL d   1     -41.885-122.251 -52.277  0.00  0.00     0.298 C 
ATOM     20  O   UNL d   1     -42.464-121.877 -52.737  0.00  0.00    -0.259 OA
BRANCH  19  21
ATOM     21  O   UNL d   1     -41.423-122.853 -52.602  0.00  0.00    -0.296 OA
ATOM     22  C   UNL d   1     -41.382-122.942 -53.417  0.00  0.00     0.185 C 
ENDBRANCH  19  21
ENDBRANCH  15  19
ENDBRANCH   1  14
TORSDOF 4
ENDMDL
MODEL 3
REMARK VINA RESULT:      -4.2      1.317      1.825
REMARK  4 active torsions:
REMARK  status: ('A' for Active; 'I' for Inactive)
REMARK    1  A    between atoms: N_3  and  C_1 
REMARK    2  A    between atoms: C_7  and  C_2 
REMARK       I    between atoms: C_5  and  N_3 
REMARK    3  A    between atoms: C_4  and  C_5 
REMARK    4  A    between atoms: O_17  and  C_7 
ROOT
ATOM      1  N   UNL d   1     -42.032-121.911 -49.846  0.00  0.00    -0.200 NA
ATOM      2  C   UNL d   1     -41.534-121.719 -50.474  0.00  0.00     0.304 C 
ATOM      3  O   UNL d   1     -41.127-120.993 -50.460  0.00  0.00    -0.263 OA
ENDROOT
BRANCH   2   4
ATOM      4  C   UNL d   1     -41.444-122.243 -51.105  0.00  0.00     0.182 A 
ATOM      5  O   UNL d   1     -41.582-121.984 -51.867  0.00  0.00    -0.298 OA
ATOM      6  C   UNL d   1     -41.491-122.508 -52.489  0.00  0.00     0.123 A 
ATOM      7  C   UNL d   1     -41.630-122.253 -53.265  0.00  0.00     0.027 A 
ATOM      8  C   UNL d   1     -41.265-123.283 -52.366  0.00  0.00     0.123 A 
ATOM      9  C   UNL d   1     -41.539-122.777 -53.891  0.00  0.00     0.002 A 
ATOM     10  C   UNL d   1     -41.310-123.561 -53.755  0.00  0.00     0.002 A 
ATOM     11  C   UNL d   1     -41.171-123.816 -52.981  0.00  0.00     0.027 A 
ATOM     12  O   UNL d   1     -41.125-123.538 -51.583  0.00  0.00    -0.301 OA
ATOM     13  C   UNL d   1     -41.215-123.018 -50.952  0.00  0.00     0.152 A 
ENDBRANCH   2   4
BRANCH   1  14
ATOM     14  C   UNL d   1     -42.438-122.626 -49.853  0.00  0.00     0.119 A 
ATOM     15  C   UNL d   1     -42.468-123.172 -49.232  0.00  0.00     0.087 A 
ATOM     16  C   UNL d   1     -42.938-123.813 -49.478  0.00  0.00     0.014 A 
ATOM     17  C   UNL d   1     -43.193-123.656 -50.247  0.00  0.00     0.037 A 
ATOM     18  S   UNL d   1     -42.883-122.927 -50.472  0.00  0.00    -0.067 SA
BRANCH  15  19
ATOM     19  C   UNL d   1     -42.101-123.100 -48.499  0.00  0.00     0.298 C 
ATOM     20  O   UNL d   1     -41.294-123.271 -48.427  0.00  0.00    -0.259 OA
BRANCH  19  21
ATOM     21  O   UNL d   1     -42.534-122.860 -47.839  0.00  0.00    -0.296 OA
ATOM     22  C   UNL d   1     -42.264-123.039 -47.085  0.00  0.00     0.185 C 
ENDBRANCH  19  21
ENDBRANCH  15  19
ENDBRANCH   1  14
TORSDOF 4
ENDMDL
