MODEL 1
REMARK VINA RESULT:       9.9      0.000      0.000
REMARK  4 active torsions:
REMARK  status: ('A' for Active; 'I' for Inactive)
REMARK    1  A    between atoms: C_2  and  C_1 
REMARK    2  A    between atoms: C_8  and  C_1 
REMARK    3  A    between atoms: C_9  and  C_2 
REMARK    4  A    between atoms: N_4  and  C_3 
ROOT
ATOM      1  C   UNL d   1      45.512 -14.068  44.522  0.00  0.00     0.064 A 
ATOM      2  C   UNL d   1      44.915 -14.502  44.887  0.00  0.00     0.018 A 
ATOM      3  C   UNL d   1      46.190 -14.443  44.216  0.00  0.00     0.018 A 
ATOM      4  C   UNL d   1      45.660 -15.704  44.652  0.00  0.00     0.000 A 
ATOM      5  C   UNL d   1      44.994 -15.316  44.950  0.00  0.00     0.002 A 
ATOM      6  C   UNL d   1      46.262 -15.256  44.282  0.00  0.00     0.002 A 
ENDROOT
BRANCH   4   7
ATOM      7  C   UNL d   1      45.739 -16.520  44.715  0.00  0.00     0.000 C 
BRANCH   7   8
ATOM      8  C   UNL d   1      46.022 -16.951  44.075  0.00  0.00     0.000 C 
BRANCH   8   9
ATOM      9  C   UNL d   1      46.174 -17.759  44.161  0.00  0.00     0.003 A 
ATOM     10  C   UNL d   1      46.254 -18.202  43.473  0.00  0.00     0.021 A 
ATOM     11  C   UNL d   1      46.408 -19.023  43.527  0.00  0.00     0.099 A 
ATOM     12  N   UNL d   1      46.479 -19.383  44.272  0.00  0.00    -0.242 NA
ATOM     13  C   UNL d   1      46.397 -18.924  44.954  0.00  0.00     0.099 A 
ATOM     14  C   UNL d   1      46.245 -18.116  44.905  0.00  0.00     0.021 A 
ENDBRANCH   8   9
ENDBRANCH   7   8
ENDBRANCH   4   7
BRANCH   1  15
ATOM     15  N   UNL d   1      45.443 -13.238  44.452  0.00  0.00    -0.301 N 
ATOM     16  C   UNL d   1      45.884 -12.750  44.955  0.00  0.00     0.100 C 
ATOM     17  C   UNL d   1      44.937 -12.913  43.885  0.00  0.00     0.100 C 
ENDBRANCH   1  15
TORSDOF 4
ENDMDL
MODEL 2
REMARK VINA RESULT:      10.3      0.730      4.577
REMARK  4 active torsions:
REMARK  status: ('A' for Active; 'I' for Inactive)
REMARK    1  A    between atoms: C_2  and  C_1 
REMARK    2  A    between atoms: C_8  and  C_1 
REMARK    3  A    between atoms: C_9  and  C_2 
REMARK    4  A    between atoms: N_4  and  C_3 
ROOT
ATOM      1  C   UNL d   1      46.330 -18.906  43.595  0.00  0.00     0.064 A 
ATOM      2  C   UNL d   1      46.328 -18.239  43.112  0.00  0.00     0.018 A 
ATOM      3  C   UNL d   1      46.237 -18.839  44.421  0.00  0.00     0.018 A 
ATOM      4  C   UNL d   1      46.140 -17.415  44.268  0.00  0.00     0.000 A 
ATOM      5  C   UNL d   1      46.234 -17.499  43.453  0.00  0.00     0.002 A 
ATOM      6  C   UNL d   1      46.143 -18.096  44.753  0.00  0.00     0.002 A 
ENDROOT
BRANCH   4   7
ATOM      7  C   UNL d   1      46.045 -16.672  44.610  0.00  0.00     0.000 C 
BRANCH   7   8
ATOM      8  C   UNL d   1      45.438 -16.182  44.354  0.00  0.00     0.000 C 
BRANCH   8   9
ATOM      9  C   UNL d   1      45.451 -15.379  44.551  0.00  0.00     0.003 A 
ATOM     10  C   UNL d   1      44.733 -15.028  44.747  0.00  0.00     0.021 A 
ATOM     11  C   UNL d   1      44.712 -14.217  44.951  0.00  0.00     0.099 A 
ATOM     12  N   UNL d   1      45.414 -13.773  44.954  0.00  0.00    -0.242 NA
ATOM     13  C   UNL d   1      46.127 -14.139  44.755  0.00  0.00     0.099 A 
ATOM     14  C   UNL d   1      46.152 -14.938  44.553  0.00  0.00     0.021 A 
ENDBRANCH   8   9
ENDBRANCH   7   8
ENDBRANCH   4   7
BRANCH   1  15
ATOM     15  N   UNL d   1      46.425 -19.666  43.260  0.00  0.00    -0.301 N 
ATOM     16  C   UNL d   1      46.472 -19.744  42.437  0.00  0.00     0.100 C 
ATOM     17  C   UNL d   1      46.472 -20.330  43.750  0.00  0.00     0.100 C 
ENDBRANCH   1  15
TORSDOF 4
ENDMDL
