MODEL 1
REMARK VINA RESULT:       0.8      0.000      0.000
REMARK  3 active torsions:
REMARK  status: ('A' for Active; 'I' for Inactive)
REMARK    1  A    between atoms: S_2  and  N_1 
REMARK    2  A    between atoms: C_8  and  S_2 
REMARK       I    between atoms: C_14  and  N_15 
REMARK    3  A    between atoms: N_15  and  C_19 
ROOT
ATOM      1  S   UNL d   1     -41.628-122.980 -51.575  0.00  0.00     0.273 S 
ATOM      2  O   UNL d   1     -41.260-122.280 -51.812  0.00  0.00    -0.200 OA
ATOM      3  O   UNL d   1     -41.921-123.500 -52.140  0.00  0.00    -0.200 OA
ENDROOT
BRANCH   1   4
ATOM      4  N   UNL d   1     -41.704-123.162 -50.776  0.00  0.00    -0.212 N 
ATOM      5  C   UNL d   1     -42.351-122.888 -50.344  0.00  0.00     0.094 A 
ATOM      6  C   UNL d   1     -42.420-123.076 -49.541  0.00  0.00     0.100 A 
ATOM      7  C   UNL d   1     -42.931-122.424 -50.710  0.00  0.00     0.020 A 
ATOM      8  C   UNL d   1     -43.071-122.801 -49.100  0.00  0.00     0.021 A 
ATOM      9  N   UNL d   1     -41.193-123.816 -49.600  0.00  0.00    -0.223 NA
ATOM     10  C   UNL d   1     -43.655-122.333 -49.474  0.00  0.00     0.002 A 
ATOM     11  C   UNL d   1     -43.578-122.150 -50.277  0.00  0.00     0.002 A 
ATOM     12  C   UNL d   1     -44.298-122.059 -49.046  0.00  0.00     0.000 C 
ATOM     13  C   UNL d   1     -44.148-121.690 -50.652  0.00  0.00     0.000 C 
ATOM     14  C   UNL d   1     -41.123-123.627 -50.406  0.00  0.00     0.193 A 
ENDBRANCH   1   4
BRANCH   1  15
ATOM     15  C   UNL d   1     -41.559-122.811 -52.378  0.00  0.00     0.104 A 
ATOM     16  C   UNL d   1     -41.491-122.035 -52.633  0.00  0.00     0.014 A 
ATOM     17  C   UNL d   1     -41.423-121.870 -53.437  0.00  0.00     0.020 A 
ATOM     18  C   UNL d   1     -41.423-122.489 -53.986  0.00  0.00     0.085 A 
ATOM     19  C   UNL d   1     -41.492-123.266 -53.722  0.00  0.00     0.020 A 
ATOM     20  C   UNL d   1     -41.560-123.434 -52.925  0.00  0.00     0.014 A 
BRANCH  18  21
ATOM     21  N   UNL d   1     -41.355-122.315 -54.784  0.00  0.00    -0.208 NA
ATOM     22  C   UNL d   1     -42.004-122.012 -55.189  0.00  0.00     0.279 C 
ATOM     23  O   UNL d   1     -41.948-121.834 -55.991  0.00  0.00    -0.265 OA
ATOM     24  C   UNL d   1     -42.718-121.883 -54.797  0.00  0.00     0.068 C 
ENDBRANCH  18  21
ENDBRANCH   1  15
TORSDOF 3
ENDMDL
MODEL 2
REMARK VINA RESULT:       1.5      0.972      1.254
REMARK  3 active torsions:
REMARK  status: ('A' for Active; 'I' for Inactive)
REMARK    1  A    between atoms: S_2  and  N_1 
REMARK    2  A    between atoms: C_8  and  S_2 
REMARK       I    between atoms: C_14  and  N_15 
REMARK    3  A    between atoms: N_15  and  C_19 
ROOT
ATOM      1  S   UNL d   1     -41.629-122.433 -50.945  0.00  0.00     0.273 S 
ATOM      2  O   UNL d   1     -41.464-123.133 -51.350  0.00  0.00    -0.200 OA
ATOM      3  O   UNL d   1     -41.712-121.729 -51.360  0.00  0.00    -0.200 OA
ENDROOT
BRANCH   1   4
ATOM      4  N   UNL d   1     -41.712-122.433 -50.126  0.00  0.00    -0.212 N 
ATOM      5  C   UNL d   1     -42.373-122.778 -49.773  0.00  0.00     0.094 A 
ATOM      6  C   UNL d   1     -42.449-122.774 -48.949  0.00  0.00     0.100 A 
ATOM      7  C   UNL d   1     -42.962-123.127 -50.239  0.00  0.00     0.020 A 
ATOM      8  C   UNL d   1     -43.115-123.120 -48.588  0.00  0.00     0.021 A 
ATOM      9  N   UNL d   1     -41.200-122.080 -48.828  0.00  0.00    -0.223 NA
ATOM     10  C   UNL d   1     -43.707-123.472 -49.063  0.00  0.00     0.002 A 
ATOM     11  C   UNL d   1     -43.623-123.471 -49.886  0.00  0.00     0.002 A 
ATOM     12  C   UNL d   1     -44.364-123.815 -48.714  0.00  0.00     0.000 C 
ATOM     13  C   UNL d   1     -44.200-123.815 -50.359  0.00  0.00     0.000 C 
ATOM     14  C   UNL d   1     -41.123-122.084 -49.656  0.00  0.00     0.193 A 
ENDBRANCH   1   4
BRANCH   1  15
ATOM     15  C   UNL d   1     -41.549-122.417 -51.764  0.00  0.00     0.104 A 
ATOM     16  C   UNL d   1     -41.219-123.053 -52.161  0.00  0.00     0.014 A 
ATOM     17  C   UNL d   1     -41.141-123.034 -52.980  0.00  0.00     0.020 A 
ATOM     18  C   UNL d   1     -41.395-122.370 -53.402  0.00  0.00     0.085 A 
ATOM     19  C   UNL d   1     -41.725-121.733 -52.997  0.00  0.00     0.020 A 
ATOM     20  C   UNL d   1     -41.805-121.749 -52.183  0.00  0.00     0.014 A 
BRANCH  18  21
ATOM     21  N   UNL d   1     -41.313-122.358 -54.217  0.00  0.00    -0.208 NA
ATOM     22  C   UNL d   1     -41.986-122.328 -54.691  0.00  0.00     0.279 C 
ATOM     23  O   UNL d   1     -41.917-122.316 -55.511  0.00  0.00    -0.265 OA
ATOM     24  C   UNL d   1     -42.736-122.310 -54.350  0.00  0.00     0.068 C 
ENDBRANCH  18  21
ENDBRANCH   1  15
TORSDOF 3
ENDMDL
MODEL 3
REMARK VINA RESULT:       2.0      1.651      2.326
REMARK  3 active torsions:
REMARK  status: ('A' for Active; 'I' for Inactive)
REMARK    1  A    between atoms: S_2  and  N_1 
REMARK    2  A    between atoms: C_8  and  S_2 
REMARK       I    between atoms: C_14  and  N_15 
REMARK    3  A    between atoms: N_15  and  C_19 
ROOT
ATOM      1  S   UNL d   1     -42.940-123.027 -50.313  0.00  0.00     0.273 S 
ATOM      2  O   UNL d   1     -42.136-123.208 -50.365  0.00  0.00    -0.200 OA
ATOM      3  O   UNL d   1     -43.293-122.563 -50.892  0.00  0.00    -0.200 OA
ENDROOT
BRANCH   1   4
ATOM      4  N   UNL d   1     -43.392-123.308 -49.685  0.00  0.00    -0.212 N 
ATOM      5  C   UNL d   1     -43.056-123.405 -48.938  0.00  0.00     0.094 A 
ATOM      6  C   UNL d   1     -43.517-123.688 -48.312  0.00  0.00     0.100 A 
ATOM      7  C   UNL d   1     -42.258-123.221 -48.812  0.00  0.00     0.020 A 
ATOM      8  C   UNL d   1     -43.182-123.788 -47.556  0.00  0.00     0.021 A 
ATOM      9  N   UNL d   1     -44.655-123.777 -49.180  0.00  0.00    -0.223 NA
ATOM     10  C   UNL d   1     -42.376-123.601 -47.433  0.00  0.00     0.002 A 
ATOM     11  C   UNL d   1     -41.922-123.319 -48.064  0.00  0.00     0.002 A 
ATOM     12  C   UNL d   1     -42.040-123.697 -46.692  0.00  0.00     0.000 C 
ATOM     13  C   UNL d   1     -41.129-123.133 -47.952  0.00  0.00     0.000 C 
ATOM     14  C   UNL d   1     -44.192-123.493 -49.809  0.00  0.00     0.193 A 
ENDBRANCH   1   4
BRANCH   1  15
ATOM     15  C   UNL d   1     -42.500-122.739 -50.947  0.00  0.00     0.104 A 
ATOM     16  C   UNL d   1     -42.419-121.932 -51.062  0.00  0.00     0.014 A 
ATOM     17  C   UNL d   1     -41.979-121.648 -51.697  0.00  0.00     0.020 A 
ATOM     18  C   UNL d   1     -41.619-122.178 -52.219  0.00  0.00     0.085 A 
ATOM     19  C   UNL d   1     -41.705-122.989 -52.097  0.00  0.00     0.020 A 
ATOM     20  C   UNL d   1     -42.141-123.275 -51.467  0.00  0.00     0.014 A 
BRANCH  18  21
ATOM     21  N   UNL d   1     -41.183-121.887 -52.848  0.00  0.00    -0.208 NA
ATOM     22  C   UNL d   1     -41.550-121.773 -53.577  0.00  0.00     0.279 C 
ATOM     23  O   UNL d   1     -41.123-121.481 -54.216  0.00  0.00    -0.265 OA
ATOM     24  C   UNL d   1     -42.349-121.950 -53.673  0.00  0.00     0.068 C 
ENDBRANCH  18  21
ENDBRANCH   1  15
TORSDOF 3
ENDMDL
MODEL 4
REMARK VINA RESULT:       2.6      1.772      4.509
REMARK  3 active torsions:
REMARK  status: ('A' for Active; 'I' for Inactive)
REMARK    1  A    between atoms: S_2  and  N_1 
REMARK    2  A    between atoms: C_8  and  S_2 
REMARK       I    between atoms: C_14  and  N_15 
REMARK    3  A    between atoms: N_15  and  C_19 
ROOT
ATOM      1  S   UNL d   1     -41.802-123.291 -51.168  0.00  0.00     0.273 S 
ATOM      2  O   UNL d   1     -42.561-123.202 -50.855  0.00  0.00    -0.200 OA
ATOM      3  O   UNL d   1     -41.179-123.509 -50.679  0.00  0.00    -0.200 OA
ENDROOT
BRANCH   1   4
ATOM      4  N   UNL d   1     -41.663-123.163 -51.970  0.00  0.00    -0.212 N 
ATOM      5  C   UNL d   1     -41.528-122.400 -52.254  0.00  0.00     0.094 A 
ATOM      6  C   UNL d   1     -41.389-122.279 -53.061  0.00  0.00     0.100 A 
ATOM      7  C   UNL d   1     -41.531-121.754 -51.736  0.00  0.00     0.020 A 
ATOM      8  C   UNL d   1     -41.253-121.511 -53.353  0.00  0.00     0.021 A 
ATOM      9  N   UNL d   1     -41.520-123.687 -53.303  0.00  0.00    -0.223 NA
ATOM     10  C   UNL d   1     -41.257-120.862 -52.825  0.00  0.00     0.002 A 
ATOM     11  C   UNL d   1     -41.396-120.991 -52.021  0.00  0.00     0.002 A 
ATOM     12  C   UNL d   1     -41.123-120.104 -53.106  0.00  0.00     0.000 C 
ATOM     13  C   UNL d   1     -41.402-120.358 -51.496  0.00  0.00     0.000 C 
ATOM     14  C   UNL d   1     -41.660-123.808 -52.492  0.00  0.00     0.193 A 
ENDBRANCH   1   4
BRANCH   1  15
ATOM     15  C   UNL d   1     -41.926-123.422 -50.365  0.00  0.00     0.104 A 
ATOM     16  C   UNL d   1     -42.678-123.579 -50.083  0.00  0.00     0.014 A 
ATOM     17  C   UNL d   1     -42.798-123.710 -49.279  0.00  0.00     0.020 A 
ATOM     18  C   UNL d   1     -42.157-123.684 -48.757  0.00  0.00     0.085 A 
ATOM     19  C   UNL d   1     -41.403-123.525 -49.048  0.00  0.00     0.020 A 
ATOM     20  C   UNL d   1     -41.280-123.394 -49.847  0.00  0.00     0.014 A 
BRANCH  18  21
ATOM     21  N   UNL d   1     -42.285-123.815 -47.959  0.00  0.00    -0.208 NA
ATOM     22  C   UNL d   1     -42.526-123.190 -47.479  0.00  0.00     0.279 C 
ATOM     23  O   UNL d   1     -42.658-123.310 -46.675  0.00  0.00    -0.265 OA
ATOM     24  C   UNL d   1     -42.639-122.439 -47.798  0.00  0.00     0.068 C 
ENDBRANCH  18  21
ENDBRANCH   1  15
TORSDOF 3
ENDMDL
