MODEL 1
REMARK VINA RESULT:      -9.0      0.000      0.000
REMARK  5 active torsions:
REMARK  status: ('A' for Active; 'I' for Inactive)
REMARK    1  A    between atoms: N_2  and  S_1 
REMARK    2  A    between atoms: C_6  and  S_1 
REMARK       I    between atoms: C_3  and  N_4 
REMARK    3  A    between atoms: C_5  and  C_3 
REMARK    4  A    between atoms: O_20  and  C_21 
REMARK    5  A    between atoms: C_24  and  O_20 
ROOT
ATOM      1  S   UNL d   1      54.483  33.691  54.970  0.00  0.00     0.271 S 
ATOM      2  O   UNL d   1      55.117  33.317  55.339  0.00  0.00    -0.200 OA
ATOM      3  O   UNL d   1      54.631  34.372  55.407  0.00  0.00    -0.200 OA
ENDROOT
BRANCH   1   4
ATOM      4  N   UNL d   1      54.332  33.010  54.531  0.00  0.00    -0.226 N 
ATOM      5  C   UNL d   1      53.841  32.424  54.824  0.00  0.00     0.111 A 
ATOM      6  C   UNL d   1      53.692  31.745  54.383  0.00  0.00     0.103 A 
ATOM      7  N   UNL d   1      54.043  31.661  53.644  0.00  0.00    -0.267 N 
ATOM      8  C   UNL d   1      53.894  30.982  53.203  0.00  0.00     0.288 C 
ATOM      9  C   UNL d   1      54.535  32.241  53.344  0.00  0.00     0.103 A 
ATOM     10  O   UNL d   1      54.240  30.887  52.460  0.00  0.00    -0.264 OA
ATOM     11  C   UNL d   1      54.686  32.923  53.783  0.00  0.00     0.111 A 
BRANCH   8  12
ATOM     12  C   UNL d   1      53.398  30.391  53.500  0.00  0.00     0.156 A 
ATOM     13  O   UNL d   1      53.595  29.814  54.058  0.00  0.00    -0.300 OA
ATOM     14  C   UNL d   1      52.936  29.344  54.189  0.00  0.00     0.123 A 
ATOM     15  C   UNL d   1      52.319  29.623  53.715  0.00  0.00     0.029 A 
ATOM     16  C   UNL d   1      52.610  30.273  53.289  0.00  0.00     0.032 A 
ENDBRANCH   8  12
ENDBRANCH   1   4
BRANCH   1  17
ATOM     17  C   UNL d   1      53.849  34.069  54.602  0.00  0.00     0.104 A 
ATOM     18  C   UNL d   1      53.956  34.488  53.898  0.00  0.00     0.015 A 
ATOM     19  C   UNL d   1      53.320  34.862  53.537  0.00  0.00     0.025 A 
ATOM     20  C   UNL d   1      52.575  34.819  53.877  0.00  0.00     0.100 A 
ATOM     21  C   UNL d   1      52.457  34.403  54.581  0.00  0.00     0.025 A 
ATOM     22  C   UNL d   1      53.092  34.027  54.945  0.00  0.00     0.015 A 
BRANCH  20  23
ATOM     23  O   UNL d   1      51.933  35.199  53.508  0.00  0.00    -0.307 OA
BRANCH  23  24
ATOM     24  C   UNL d   1      51.423  34.763  53.021  0.00  0.00     0.100 A 
ATOM     25  C   UNL d   1      51.680  34.484  52.282  0.00  0.00     0.025 A 
ATOM     26  C   UNL d   1      51.167  34.050  51.803  0.00  0.00     0.002 A 
ATOM     27  C   UNL d   1      50.399  33.893  52.059  0.00  0.00     0.000 A 
ATOM     28  C   UNL d   1      50.142  34.172  52.799  0.00  0.00     0.002 A 
ATOM     29  C   UNL d   1      50.654  34.606  53.278  0.00  0.00     0.025 A 
ENDBRANCH  23  24
ENDBRANCH  20  23
ENDBRANCH   1  17
TORSDOF 5
ENDMDL
MODEL 2
REMARK VINA RESULT:      -8.2      1.022      3.828
REMARK  5 active torsions:
REMARK  status: ('A' for Active; 'I' for Inactive)
REMARK    1  A    between atoms: N_2  and  S_1 
REMARK    2  A    between atoms: C_6  and  S_1 
REMARK       I    between atoms: C_3  and  N_4 
REMARK    3  A    between atoms: C_5  and  C_3 
REMARK    4  A    between atoms: O_20  and  C_21 
REMARK    5  A    between atoms: C_24  and  O_20 
ROOT
ATOM      1  S   UNL d   1      53.915  34.296  54.745  0.00  0.00     0.271 S 
ATOM      2  O   UNL d   1      53.809  35.086  54.952  0.00  0.00    -0.200 OA
ATOM      3  O   UNL d   1      54.502  34.225  55.318  0.00  0.00    -0.200 OA
ENDROOT
BRANCH   1   4
ATOM      4  N   UNL d   1      53.328  34.364  54.171  0.00  0.00    -0.226 N 
ATOM      5  C   UNL d   1      52.538  34.271  54.368  0.00  0.00     0.111 A 
ATOM      6  C   UNL d   1      51.954  34.340  53.793  0.00  0.00     0.103 A 
ATOM      7  N   UNL d   1      52.171  34.503  53.016  0.00  0.00    -0.267 N 
ATOM      8  C   UNL d   1      51.587  34.571  52.441  0.00  0.00     0.288 C 
ATOM      9  C   UNL d   1      52.957  34.597  52.811  0.00  0.00     0.103 A 
ATOM     10  O   UNL d   1      51.793  34.735  51.659  0.00  0.00    -0.264 OA
ATOM     11  C   UNL d   1      53.546  34.529  53.386  0.00  0.00     0.111 A 
BRANCH   8  12
ATOM     12  C   UNL d   1      50.790  34.477  52.641  0.00  0.00     0.156 A 
ATOM     13  O   UNL d   1      50.288  35.054  52.955  0.00  0.00    -0.300 OA
ATOM     14  C   UNL d   1      49.547  34.719  53.067  0.00  0.00     0.123 A 
ATOM     15  C   UNL d   1      49.579  33.929  52.825  0.00  0.00     0.029 A 
ATOM     16  C   UNL d   1      50.352  33.783  52.561  0.00  0.00     0.032 A 
ENDBRANCH   8  12
ENDBRANCH   1   4
BRANCH   1  17
ATOM     17  C   UNL d   1      54.024  33.505  54.540  0.00  0.00     0.104 A 
ATOM     18  C   UNL d   1      54.489  33.295  53.889  0.00  0.00     0.015 A 
ATOM     19  C   UNL d   1      54.593  32.506  53.690  0.00  0.00     0.025 A 
ATOM     20  C   UNL d   1      54.235  31.921  54.140  0.00  0.00     0.100 A 
ATOM     21  C   UNL d   1      53.769  32.119  54.792  0.00  0.00     0.025 A 
ATOM     22  C   UNL d   1      53.662  32.909  54.994  0.00  0.00     0.015 A 
BRANCH  20  23
ATOM     23  O   UNL d   1      54.343  31.121  53.935  0.00  0.00    -0.307 OA
BRANCH  23  24
ATOM     24  C   UNL d   1      53.703  30.684  53.641  0.00  0.00     0.100 A 
ATOM     25  C   UNL d   1      53.322  30.912  52.938  0.00  0.00     0.025 A 
ATOM     26  C   UNL d   1      52.686  30.472  52.652  0.00  0.00     0.002 A 
ATOM     27  C   UNL d   1      52.428  29.805  53.063  0.00  0.00     0.000 A 
ATOM     28  C   UNL d   1      52.809  29.577  53.766  0.00  0.00     0.002 A 
ATOM     29  C   UNL d   1      53.445  30.017  54.053  0.00  0.00     0.025 A 
ENDBRANCH  23  24
ENDBRANCH  20  23
ENDBRANCH   1  17
TORSDOF 5
ENDMDL
MODEL 3
REMARK VINA RESULT:      -6.7      1.339      2.035
REMARK  5 active torsions:
REMARK  status: ('A' for Active; 'I' for Inactive)
REMARK    1  A    between atoms: N_2  and  S_1 
REMARK    2  A    between atoms: C_6  and  S_1 
REMARK       I    between atoms: C_3  and  N_4 
REMARK    3  A    between atoms: C_5  and  C_3 
REMARK    4  A    between atoms: O_20  and  C_21 
REMARK    5  A    between atoms: C_24  and  O_20 
ROOT
ATOM      1  S   UNL d   1      52.643  34.516  53.959  0.00  0.00     0.271 S 
ATOM      2  O   UNL d   1      53.278  34.683  54.455  0.00  0.00    -0.200 OA
ATOM      3  O   UNL d   1      52.323  35.257  54.120  0.00  0.00    -0.200 OA
ENDROOT
BRANCH   1   4
ATOM      4  N   UNL d   1      52.962  33.773  53.795  0.00  0.00    -0.226 N 
ATOM      5  C   UNL d   1      52.575  33.092  54.035  0.00  0.00     0.111 A 
ATOM      6  C   UNL d   1      52.895  32.352  53.870  0.00  0.00     0.103 A 
ATOM      7  N   UNL d   1      53.608  32.303  53.462  0.00  0.00    -0.267 N 
ATOM      8  C   UNL d   1      53.928  31.563  53.298  0.00  0.00     0.288 C 
ATOM      9  C   UNL d   1      54.000  32.979  53.220  0.00  0.00     0.103 A 
ATOM     10  O   UNL d   1      54.642  31.503  52.889  0.00  0.00    -0.264 OA
ATOM     11  C   UNL d   1      53.682  33.723  53.383  0.00  0.00     0.111 A 
BRANCH   8  12
ATOM     12  C   UNL d   1      53.537  30.876  53.540  0.00  0.00     0.156 A 
ATOM     13  O   UNL d   1      53.574  30.523  54.287  0.00  0.00    -0.300 OA
ATOM     14  C   UNL d   1      53.101  29.853  54.281  0.00  0.00     0.123 A 
ATOM     15  C   UNL d   1      52.764  29.779  53.529  0.00  0.00     0.029 A 
ATOM     16  C   UNL d   1      53.038  30.416  53.073  0.00  0.00     0.032 A 
ENDBRANCH   8  12
ENDBRANCH   1   4
BRANCH   1  17
ATOM     17  C   UNL d   1      52.005  34.352  53.462  0.00  0.00     0.104 A 
ATOM     18  C   UNL d   1      51.325  33.982  53.753  0.00  0.00     0.015 A 
ATOM     19  C   UNL d   1      50.694  33.822  53.254  0.00  0.00     0.025 A 
ATOM     20  C   UNL d   1      50.737  34.030  52.462  0.00  0.00     0.100 A 
ATOM     21  C   UNL d   1      51.412  34.400  52.160  0.00  0.00     0.025 A 
ATOM     22  C   UNL d   1      52.046  34.562  52.658  0.00  0.00     0.015 A 
BRANCH  20  23
ATOM     23  O   UNL d   1      50.095  33.866  51.958  0.00  0.00    -0.307 OA
BRANCH  23  24
ATOM     24  C   UNL d   1      49.468  34.406  51.905  0.00  0.00     0.100 A 
ATOM     25  C   UNL d   1      49.183  34.791  52.584  0.00  0.00     0.025 A 
ATOM     26  C   UNL d   1      48.559  35.327  52.523  0.00  0.00     0.002 A 
ATOM     27  C   UNL d   1      48.219  35.481  51.787  0.00  0.00     0.000 A 
ATOM     28  C   UNL d   1      48.504  35.096  51.108  0.00  0.00     0.002 A 
ATOM     29  C   UNL d   1      49.129  34.559  51.168  0.00  0.00     0.025 A 
ENDBRANCH  23  24
ENDBRANCH  20  23
ENDBRANCH   1  17
TORSDOF 5
ENDMDL
