MODEL 1
REMARK VINA RESULT:      68.7      0.000      0.000
REMARK  6 active torsions:
REMARK  status: ('A' for Active; 'I' for Inactive)
REMARK    1  A    between atoms: C_8  and  C_1 
REMARK    2  A    between atoms: C_6  and  O_10 
REMARK    3  A    between atoms: C_7  and  C_6 
REMARK    4  A    between atoms: C_18  and  C_8 
REMARK    5  A    between atoms: O_10  and  C_12 
REMARK    6  A    between atoms: O_20  and  C_13 
ROOT
ATOM      1  C   UNL d   1     -50.784  26.405  33.811  0.00  0.00     0.139 A 
ATOM      2  C   UNL d   1     -50.308  27.028  34.894  0.00  0.00     0.064 A 
ATOM      3  C   UNL d   1     -50.933  26.565  34.610  0.00  0.00     0.220 A 
ATOM      4  C   UNL d   1     -49.774  27.155  34.276  0.00  0.00     0.105 A 
ATOM      5  O   UNL d   1     -50.069  26.769  33.606  0.00  0.00    -0.304 OA
ATOM      6  C   UNL d   1     -49.098  27.602  34.411  0.00  0.00     0.050 A 
ATOM      7  C   UNL d   1     -50.161  27.349  35.640  0.00  0.00     0.007 A 
ATOM      8  C   UNL d   1     -48.956  27.917  35.151  0.00  0.00     0.105 A 
ATOM      9  O   UNL d   1     -51.588  26.308  35.040  0.00  0.00    -0.284 OA
ATOM     10  C   UNL d   1     -49.480  27.796  35.768  0.00  0.00     0.025 A 
ENDROOT
BRANCH   8  11
ATOM     11  O   UNL d   1     -48.275  28.365  35.279  0.00  0.00    -0.273 OA
BRANCH  11  12
ATOM     12  C   UNL d   1     -48.280  29.185  35.160  0.00  0.00     0.302 C 
ATOM     13  O   UNL d   1     -48.829  29.514  34.638  0.00  0.00    -0.259 OA
BRANCH  12  14
ATOM     14  C   UNL d   1     -47.749  29.674  35.551  0.00  0.00     0.086 A 
ATOM     15  C   UNL d   1     -47.505  30.389  35.192  0.00  0.00     0.099 A 
ATOM     16  C   UNL d   1     -46.975  30.877  35.583  0.00  0.00     0.024 A 
ATOM     17  C   UNL d   1     -46.680  30.674  36.321  0.00  0.00     0.002 A 
ATOM     18  C   UNL d   1     -46.925  29.956  36.682  0.00  0.00     0.000 A 
ATOM     19  C   UNL d   1     -47.457  29.463  36.292  0.00  0.00     0.007 A 
BRANCH  15  20
ATOM     20  O   UNL d   1     -47.807  30.587  34.449  0.00  0.00    -0.328 OA
ATOM     21  C   UNL d   1     -48.063  31.361  34.314  0.00  0.00     0.181 C 
ENDBRANCH  15  20
ENDBRANCH  12  14
ENDBRANCH  11  12
ENDBRANCH   8  11
BRANCH   1  22
ATOM     22  C   UNL d   1     -51.263  25.961  33.306  0.00  0.00     0.028 C 
BRANCH  22  23
ATOM     23  C   UNL d   1     -51.220  25.135  33.308  0.00  0.00     0.005 A 
ATOM     24  C   UNL d   1     -50.486  24.769  33.306  0.00  0.00     0.021 A 
ATOM     25  C   UNL d   1     -50.435  23.948  33.309  0.00  0.00     0.099 A 
ATOM     26  N   UNL d   1     -51.127  23.487  33.313  0.00  0.00    -0.242 NA
ATOM     27  C   UNL d   1     -51.867  23.861  33.315  0.00  0.00     0.099 A 
ATOM     28  C   UNL d   1     -51.909  24.686  33.313  0.00  0.00     0.021 A 
ENDBRANCH  22  23
ENDBRANCH   1  22
TORSDOF 6
ENDMDL
