MODEL 1
REMARK VINA RESULT:      88.9      0.000      0.000
REMARK  4 active torsions:
REMARK  status: ('A' for Active; 'I' for Inactive)
REMARK    1  A    between atoms: N_10  and  C_5 
REMARK    2  A    between atoms: C_12  and  N_6 
REMARK    3  A    between atoms: C_19  and  N_11 
REMARK    4  A    between atoms: C_20  and  C_12 
ROOT
ATOM      1  C   UNL d   1      14.654  16.321  -4.432  0.00  0.00     0.191 A 
ATOM      2  C   UNL d   1      13.946  15.935  -4.637  0.00  0.00     0.173 A 
ATOM      3  N   UNL d   1      14.954  15.931  -3.768  0.00  0.00    -0.042 NA
ATOM      4  N   UNL d   1      14.924  16.986  -4.891  0.00  0.00    -0.240 N 
ATOM      5  C   UNL d   1      14.426  15.292  -3.556  0.00  0.00     0.722 A 
ATOM      6  N   UNL d   1      13.827  15.331  -4.111  0.00  0.00    -0.133 N 
ATOM      7  N   UNL d   1      13.805  16.856  -5.717  0.00  0.00    -0.223 N 
ATOM      8  C   UNL d   1      14.519  17.259  -5.524  0.00  0.00     0.343 A 
ATOM      9  C   UNL d   1      13.531  16.216  -5.285  0.00  0.00     0.288 A 
ATOM     10  O   UNL d   1      14.784  17.911  -5.974  0.00  0.00    -0.245 OA
ATOM     11  O   UNL d   1      12.824  15.842  -5.503  0.00  0.00    -0.265 OA
ATOM     12  C   UNL d   1      15.618  17.358  -4.683  0.00  0.00     0.105 C 
ATOM     13  C   UNL d   1      13.339  17.106  -6.376  0.00  0.00     0.107 C 
ENDROOT
BRANCH   5  14
ATOM     14  N   UNL d   1      14.477  14.730  -2.927  0.00  0.00    -0.136 N 
ATOM     15  C   UNL d   1      14.442  13.913  -3.109  0.00  0.00     0.117 A 
ATOM     16  C   UNL d   1      14.492  13.353  -2.485  0.00  0.00     0.100 A 
ATOM     17  N   UNL d   1      14.577  13.611  -1.687  0.00  0.00    -0.301 N 
ATOM     18  C   UNL d   1      14.610  14.433  -1.523  0.00  0.00     0.100 A 
ATOM     19  C   UNL d   1      14.561  14.997  -2.138  0.00  0.00     0.117 A 
BRANCH  17  20
ATOM     20  C   UNL d   1      14.620  13.001  -1.126  0.00  0.00     0.064 A 
ATOM     21  C   UNL d   1      15.236  12.989  -0.570  0.00  0.00     0.018 A 
ATOM     22  C   UNL d   1      15.271  12.378  -0.016  0.00  0.00     0.002 A 
ATOM     23  C   UNL d   1      14.694  11.780  -0.015  0.00  0.00     0.000 A 
ATOM     24  C   UNL d   1      14.076  11.792  -0.574  0.00  0.00     0.002 A 
ATOM     25  C   UNL d   1      14.040  12.402  -1.128  0.00  0.00     0.018 A 
ENDBRANCH  17  20
ENDBRANCH   5  14
BRANCH   6  26
ATOM     26  C   UNL d   1      13.142  14.948  -4.300  0.00  0.00     0.098 C 
BRANCH  26  27
ATOM     27  C   UNL d   1      13.169  14.191  -4.563  0.00  0.00     0.018 A 
ATOM     28  C   UNL d   1      13.585  14.018  -5.209  0.00  0.00     0.002 A 
ATOM     29  C   UNL d   1      13.616  13.263  -5.477  0.00  0.00     0.000 A 
ATOM     30  C   UNL d   1      13.976  12.892  -6.101  0.00  0.00     0.000 C 
ATOM     31  C   UNL d   1      13.224  12.678  -5.090  0.00  0.00     0.000 A 
ATOM     32  C   UNL d   1      12.797  12.867  -4.424  0.00  0.00     0.000 A 
ATOM     33  C   UNL d   1      12.770  13.613  -4.164  0.00  0.00     0.002 A 
ENDBRANCH  26  27
ENDBRANCH   6  26
TORSDOF 4
ENDMDL
MODEL 2
REMARK VINA RESULT:      91.8      1.950      3.554
REMARK  4 active torsions:
REMARK  status: ('A' for Active; 'I' for Inactive)
REMARK    1  A    between atoms: N_10  and  C_5 
REMARK    2  A    between atoms: C_12  and  N_6 
REMARK    3  A    between atoms: C_19  and  N_11 
REMARK    4  A    between atoms: C_20  and  C_12 
ROOT
ATOM      1  C   UNL d   1      13.937  17.954  -5.588  0.00  0.00     0.191 A 
ATOM      2  C   UNL d   1      14.606  17.816  -5.112  0.00  0.00     0.173 A 
ATOM      3  N   UNL d   1      13.520  17.241  -5.623  0.00  0.00    -0.042 NA
ATOM      4  N   UNL d   1      13.806  18.725  -5.925  0.00  0.00    -0.240 N 
ATOM      5  C   UNL d   1      13.936  16.651  -5.163  0.00  0.00     0.722 A 
ATOM      6  N   UNL d   1      14.589  17.045  -4.871  0.00  0.00    -0.133 N 
ATOM      7  N   UNL d   1      14.980  19.178  -5.317  0.00  0.00    -0.223 N 
ATOM      8  C   UNL d   1      14.308  19.335  -5.801  0.00  0.00     0.343 A 
ATOM      9  C   UNL d   1      15.120  18.442  -4.987  0.00  0.00     0.288 A 
ATOM     10  O   UNL d   1      14.178  20.091  -6.132  0.00  0.00    -0.245 OA
ATOM     11  O   UNL d   1      15.792  18.322  -4.515  0.00  0.00    -0.265 OA
ATOM     12  C   UNL d   1      13.148  18.850  -6.389  0.00  0.00     0.105 C 
ATOM     13  C   UNL d   1      15.541  19.789  -5.156  0.00  0.00     0.107 C 
ENDROOT
BRANCH   5  14
ATOM     14  N   UNL d   1      13.746  15.840  -5.019  0.00  0.00    -0.136 N 
ATOM     15  C   UNL d   1      14.154  15.245  -5.445  0.00  0.00     0.117 A 
ATOM     16  C   UNL d   1      13.967  14.439  -5.304  0.00  0.00     0.100 A 
ATOM     17  N   UNL d   1      13.375  14.232  -4.740  0.00  0.00    -0.301 N 
ATOM     18  C   UNL d   1      12.976  14.841  -4.322  0.00  0.00     0.100 A 
ATOM     19  C   UNL d   1      13.156  15.645  -4.457  0.00  0.00     0.117 A 
BRANCH  17  20
ATOM     20  C   UNL d   1      13.245  13.417  -4.655  0.00  0.00     0.064 A 
ATOM     21  C   UNL d   1      13.455  12.895  -5.265  0.00  0.00     0.018 A 
ATOM     22  C   UNL d   1      13.322  12.086  -5.172  0.00  0.00     0.002 A 
ATOM     23  C   UNL d   1      12.981  11.796  -4.473  0.00  0.00     0.000 A 
ATOM     24  C   UNL d   1      12.770  12.320  -3.859  0.00  0.00     0.002 A 
ATOM     25  C   UNL d   1      12.903  13.129  -3.952  0.00  0.00     0.018 A 
ENDBRANCH  17  20
ENDBRANCH   5  14
BRANCH   6  26
ATOM     26  C   UNL d   1      15.235  16.899  -4.408  0.00  0.00     0.098 C 
BRANCH  26  27
ATOM     27  C   UNL d   1      15.148  16.831  -3.613  0.00  0.00     0.018 A 
ATOM     28  C   UNL d   1      15.223  16.127  -3.272  0.00  0.00     0.002 A 
ATOM     29  C   UNL d   1      15.137  16.054  -2.478  0.00  0.00     0.000 A 
ATOM     30  C   UNL d   1      15.175  15.437  -1.952  0.00  0.00     0.000 C 
ATOM     31  C   UNL d   1      14.974  16.697  -2.025  0.00  0.00     0.000 A 
ATOM     32  C   UNL d   1      14.898  17.421  -2.388  0.00  0.00     0.000 A 
ATOM     33  C   UNL d   1      14.984  17.487  -3.171  0.00  0.00     0.002 A 
ENDBRANCH  26  27
ENDBRANCH   6  26
TORSDOF 4
ENDMDL
