MODEL 1
REMARK VINA RESULT:      16.5      0.000      0.000
REMARK  4 active torsions:
REMARK  status: ('A' for Active; 'I' for Inactive)
REMARK    1  A    between atoms: C_3  and  C_1 
REMARK    2  A    between atoms: C_7  and  C_3 
REMARK    3  A    between atoms: N_9  and  C_4 
REMARK    4  A    between atoms: C_8  and  C_7 
ROOT
ATOM      1  C   UNL d   1      45.487 -15.628  44.653  0.00  0.00     0.106 C 
ATOM      2  C   UNL d   1      44.799 -16.003  44.802  0.00  0.00     0.104 C 
ATOM      3  N   UNL d   1      44.079 -16.375  44.954  0.00  0.00    -0.191 NA
ENDROOT
BRANCH   1   4
ATOM      4  C   UNL d   1      45.519 -14.821  44.485  0.00  0.00     0.172 A 
ATOM      5  N   UNL d   1      45.187 -14.429  43.870  0.00  0.00    -0.225 NA
ATOM      6  C   UNL d   1      45.364 -13.630  43.928  0.00  0.00     0.101 A 
ATOM      7  C   UNL d   1      45.174 -12.972  43.458  0.00  0.00     0.021 A 
ATOM      8  C   UNL d   1      45.826 -13.540  44.611  0.00  0.00     0.101 A 
ATOM      9  C   UNL d   1      45.437 -12.219  43.660  0.00  0.00     0.002 A 
ATOM     10  C   UNL d   1      45.906 -12.136  44.358  0.00  0.00     0.002 A 
ATOM     11  C   UNL d   1      46.096 -12.793  44.826  0.00  0.00     0.021 A 
ATOM     12  N   UNL d   1      45.915 -14.280  44.947  0.00  0.00    -0.225 NA
ENDBRANCH   1   4
BRANCH   1  13
ATOM     13  C   UNL d   1      46.200 -16.055  44.665  0.00  0.00     0.038 C 
BRANCH  13  14
ATOM     14  C   UNL d   1      46.223 -16.844  44.406  0.00  0.00     0.103 A 
ATOM     15  O   UNL d   1      46.298 -17.181  43.657  0.00  0.00    -0.290 OA
ATOM     16  C   UNL d   1      46.286 -17.991  43.751  0.00  0.00     0.168 A 
ATOM     17  C   UNL d   1      46.204 -18.162  44.536  0.00  0.00     0.045 A 
ATOM     18  C   UNL d   1      46.164 -17.456  44.955  0.00  0.00     0.028 A 
BRANCH  16  19
ATOM     19  N   UNL d   1      46.342 -18.584  43.179  0.00  0.00    -0.281 N 
ATOM     20  C   UNL d   1      46.218 -19.360  43.384  0.00  0.00     0.109 A 
ATOM     21  C   UNL d   1      46.274 -19.953  42.812  0.00  0.00     0.142 A 
ATOM     22  O   UNL d   1      46.456 -19.746  42.040  0.00  0.00    -0.300 OA
ATOM     23  C   UNL d   1      46.582 -18.966  41.827  0.00  0.00     0.142 A 
ATOM     24  C   UNL d   1      46.524 -18.379  42.405  0.00  0.00     0.109 A 
ENDBRANCH  16  19
ENDBRANCH  13  14
ENDBRANCH   1  13
TORSDOF 4
ENDMDL
