MODEL 1
REMARK VINA RESULT:      16.5      0.000      0.000
REMARK  5 active torsions:
REMARK  status: ('A' for Active; 'I' for Inactive)
REMARK    1  A    between atoms: C_2  and  N_1 
REMARK    2  A    between atoms: N_5  and  C_3 
REMARK       I    between atoms: C_4  and  N_5 
REMARK       I    between atoms: N_9  and  C_4 
REMARK    3  A    between atoms: O_11  and  N_9 
REMARK    4  A    between atoms: C_13  and  O_11 
REMARK    5  A    between atoms: C_14  and  C_13 
ROOT
ATOM      1  C   UNL d   1      60.449  49.555  50.946  0.00  0.00     0.156 A 
ATOM      2  C   UNL d   1      59.773  49.632  51.412  0.00  0.00     0.160 A 
ATOM      3  C   UNL d   1      61.190  49.537  51.294  0.00  0.00     0.026 A 
ATOM      4  C   UNL d   1      59.844  49.692  52.241  0.00  0.00     0.034 A 
ATOM      5  C   UNL d   1      61.262  49.596  52.117  0.00  0.00     0.002 A 
ATOM      6  C   UNL d   1      60.580  49.674  52.587  0.00  0.00     0.003 A 
ENDROOT
BRANCH   2   7
ATOM      7  N   UNL d   1      59.023  49.650  51.061  0.00  0.00    -0.335 NA
ATOM      8  C   UNL d   1      58.278  49.668  50.710  0.00  0.00     0.499 C 
ATOM      9  O   UNL d   1      57.937  49.648  51.456  0.00  0.00    -0.211 OA
ATOM     10  N   UNL d   1      57.536  49.686  50.362  0.00  0.00    -0.199 NA
BRANCH  10  11
ATOM     11  O   UNL d   1      56.786  49.704  50.010  0.00  0.00    -0.156 OA
BRANCH  11  12
ATOM     12  C   UNL d   1      56.510  49.671  49.232  0.00  0.00     0.163 C 
BRANCH  12  13
ATOM     13  C   UNL d   1      56.049  49.022  49.429  0.00  0.00     0.030 C 
ATOM     14  C   UNL d   1      56.433  48.576  48.858  0.00  0.00     0.002 C 
ENDBRANCH  12  13
ENDBRANCH  11  12
ENDBRANCH  10  11
ENDBRANCH   2   7
BRANCH   1  15
ATOM     15  N   UNL d   1      60.375  49.495  50.122  0.00  0.00    -0.111 N 
ATOM     16  O   UNL d   1      59.643  49.580  49.753  0.00  0.00    -0.532 OA
ATOM     17  O   UNL d   1      61.057  49.346  49.662  0.00  0.00    -0.532 OA
ENDBRANCH   1  15
TORSDOF 5
ENDMDL
