MODEL 1
REMARK VINA RESULT:      36.3      0.000      0.000
REMARK  1 active torsions:
REMARK  status: ('A' for Active; 'I' for Inactive)
REMARK    1  A    between atoms: C_10  and  C_4 
ROOT
ATOM      1  C   UNL d   1     -51.651  25.481  33.374  0.00  0.00     0.186 A 
ATOM      2  N   UNL d   1     -52.485  25.424  33.343  0.00  0.00    -0.193 N 
ATOM      3  N   UNL d   1     -51.193  24.795  33.405  0.00  0.00    -0.214 NA
ATOM      4  C   UNL d   1     -51.462  26.291  33.366  0.00  0.00     0.140 A 
ATOM      5  N   UNL d   1     -52.798  26.193  33.316  0.00  0.00    -0.058 NA
ATOM      6  N   UNL d   1     -52.159  26.721  33.331  0.00  0.00    -0.127 NA
ATOM      7  C   UNL d   1     -51.552  24.051  33.405  0.00  0.00     0.142 A 
ATOM      8  C   UNL d   1     -52.379  24.000  33.374  0.00  0.00     0.046 A 
ATOM      9  C   UNL d   1     -52.840  24.682  33.343  0.00  0.00     0.088 A 
ATOM     10 CL   UNL d   1     -51.094  23.367  33.435  0.00  0.00    -0.061 Cl
ATOM     11  C   UNL d   1     -52.734  23.258  33.374  0.00  0.00     0.004 A 
ATOM     12  C   UNL d   1     -53.663  24.618  33.312  0.00  0.00     0.019 A 
ATOM     13  C   UNL d   1     -53.554  23.196  33.343  0.00  0.00     0.000 A 
ATOM     14  C   UNL d   1     -54.018  23.876  33.312  0.00  0.00     0.002 A 
ENDROOT
BRANCH   4  15
ATOM     15  C   UNL d   1     -50.705  26.597  33.389  0.00  0.00     0.022 A 
ATOM     16  C   UNL d   1     -50.594  27.409  33.488  0.00  0.00     0.002 A 
ATOM     17  C   UNL d   1     -49.828  27.721  33.513  0.00  0.00     0.000 A 
ATOM     18  C   UNL d   1     -49.177  27.219  33.437  0.00  0.00     0.000 A 
ATOM     19  C   UNL d   1     -49.292  26.404  33.338  0.00  0.00     0.000 A 
ATOM     20  C   UNL d   1     -48.415  27.528  33.461  0.00  0.00     0.000 C 
ATOM     21  C   UNL d   1     -50.054  26.095  33.314  0.00  0.00     0.002 A 
ENDBRANCH   4  15
TORSDOF 1
ENDMDL
