MODEL 1
REMARK VINA RESULT:      46.4      0.000      0.000
REMARK  4 active torsions:
REMARK  status: ('A' for Active; 'I' for Inactive)
REMARK    1  A    between atoms: C_6  and  C_2 
REMARK    2  A    between atoms: C_8  and  N_3 
REMARK       I    between atoms: N_7  and  C_6 
REMARK    3  A    between atoms: C_16  and  N_7 
REMARK    4  A    between atoms: C_9  and  C_16 
ROOT
ATOM      1  C   UNL d   1      59.038  49.189  50.433  0.00  0.00     0.211 A 
ATOM      2  C   UNL d   1      59.724  49.221  50.898  0.00  0.00     0.199 A 
ATOM      3  N   UNL d   1      58.410  49.490  50.870  0.00  0.00    -0.191 N 
ATOM      4  N   UNL d   1      58.710  49.707  51.608  0.00  0.00    -0.058 NA
ATOM      5  N   UNL d   1      59.520  49.538  51.617  0.00  0.00    -0.122 NA
ATOM      6  N   UNL d   1      58.987  48.905  49.659  0.00  0.00    -0.125 N 
ENDROOT
BRANCH   2   7
ATOM      7  C   UNL d   1      60.474  48.972  50.663  0.00  0.00     0.302 C 
ATOM      8  N   UNL d   1      60.740  48.220  50.855  0.00  0.00    -0.203 NA
ATOM      9  O   UNL d   1      60.954  49.487  50.233  0.00  0.00    -0.263 OA
BRANCH   8  10
ATOM     10  C   UNL d   1      61.497  47.974  50.616  0.00  0.00     0.127 C 
BRANCH  10  11
ATOM     11  C   UNL d   1      61.604  47.237  50.274  0.00  0.00     0.119 A 
ATOM     12  O   UNL d   1      62.097  47.068  49.620  0.00  0.00    -0.304 OA
ATOM     13  C   UNL d   1      62.037  46.264  49.464  0.00  0.00     0.123 A 
ATOM     14  C   UNL d   1      61.504  45.930  50.022  0.00  0.00     0.029 A 
ATOM     15  C   UNL d   1      61.250  46.531  50.506  0.00  0.00     0.028 A 
ENDBRANCH  10  11
ENDBRANCH   8  10
ENDBRANCH   2   7
BRANCH   3  16
ATOM     16  C   UNL d   1      57.626  49.562  50.623  0.00  0.00     0.086 A 
ATOM     17  C   UNL d   1      57.022  49.595  51.186  0.00  0.00     0.019 A 
ATOM     18  C   UNL d   1      56.238  49.668  50.939  0.00  0.00     0.002 A 
ATOM     19  C   UNL d   1      56.058  49.708  50.131  0.00  0.00     0.000 A 
ATOM     20  C   UNL d   1      56.668  49.674  49.576  0.00  0.00     0.002 A 
ATOM     21  C   UNL d   1      57.454  49.601  49.819  0.00  0.00     0.019 A 
ENDBRANCH   3  16
TORSDOF 4
ENDMDL
