MODEL 1
REMARK VINA RESULT:      -4.9      0.000      0.000
REMARK  6 active torsions:
REMARK  status: ('A' for Active; 'I' for Inactive)
REMARK    1  A    between atoms: N_3  and  S_1 
REMARK    2  A    between atoms: C_6  and  S_1 
REMARK    3  A    between atoms: N_2  and  C_5 
REMARK    4  A    between atoms: C_4  and  N_3 
REMARK    5  A    between atoms: C_5  and  C_4 
REMARK    6  A    between atoms: C_10  and  C_5 
ROOT
ATOM      1  C   UNL d   1     -48.196  13.188  22.492  0.00  0.00     0.086 C 
ENDROOT
BRANCH   1   2
ATOM      2  N   UNL d   1     -48.658  13.875  22.574  0.00  0.00    -0.300 N 
ATOM      3  C   UNL d   1     -48.634  14.308  23.276  0.00  0.00     0.100 A 
ATOM      4  C   UNL d   1     -49.093  14.989  23.356  0.00  0.00     0.100 A 
ATOM      5  N   UNL d   1     -49.573  15.234  22.737  0.00  0.00    -0.299 N 
ATOM      6  C   UNL d   1     -49.598  14.801  22.035  0.00  0.00     0.100 A 
ATOM      7  C   UNL d   1     -50.036  15.921  22.819  0.00  0.00     0.100 C 
ATOM      8  C   UNL d   1     -49.142  14.122  21.953  0.00  0.00     0.100 A 
ENDBRANCH   1   2
BRANCH   1   9
ATOM      9  C   UNL d   1     -47.430  13.244  22.202  0.00  0.00     0.130 C 
BRANCH   9  10
ATOM     10  N   UNL d   1     -46.795  13.309  22.725  0.00  0.00    -0.155 NA
BRANCH  10  11
ATOM     11  S   UNL d   1     -46.022  13.222  22.450  0.00  0.00     0.285 S 
ATOM     12  O   UNL d   1     -45.721  13.534  23.161  0.00  0.00    -0.198 OA
ATOM     13  O   UNL d   1     -46.307  12.907  21.728  0.00  0.00    -0.198 OA
BRANCH  11  14
ATOM     14  C   UNL d   1     -45.243  13.134  22.171  0.00  0.00     0.105 A 
ATOM     15  C   UNL d   1     -44.845  13.779  21.847  0.00  0.00     0.014 A 
ATOM     16  C   UNL d   1     -44.076  13.694  21.571  0.00  0.00     0.012 A 
ATOM     17  C   UNL d   1     -43.698  12.956  21.619  0.00  0.00     0.058 A 
ATOM     18  C   UNL d   1     -44.096  12.311  21.944  0.00  0.00     0.012 A 
ATOM     19 CL   UNL d   1     -42.921  12.865  21.342  0.00  0.00    -0.082 Cl
ATOM     20  C   UNL d   1     -44.869  12.400  22.220  0.00  0.00     0.014 A 
ENDBRANCH  11  14
ENDBRANCH  10  11
ENDBRANCH   9  10
ENDBRANCH   1   9
BRANCH   1  21
ATOM     21  C   UNL d   1     -48.507  12.453  22.702  0.00  0.00     0.037 A 
ATOM     22  C   UNL d   1     -48.773  11.935  22.116  0.00  0.00     0.100 A 
ATOM     23  N   UNL d   1     -49.083  11.200  22.326  0.00  0.00    -0.242 NA
ATOM     24  C   UNL d   1     -49.128  10.983  23.121  0.00  0.00     0.099 A 
ATOM     25  C   UNL d   1     -48.863  11.498  23.698  0.00  0.00     0.021 A 
ATOM     26  C   UNL d   1     -48.553  12.233  23.488  0.00  0.00     0.005 A 
ENDBRANCH   1  21
TORSDOF 6
ENDMDL
MODEL 2
REMARK VINA RESULT:      -4.4      0.953      2.535
REMARK  6 active torsions:
REMARK  status: ('A' for Active; 'I' for Inactive)
REMARK    1  A    between atoms: N_3  and  S_1 
REMARK    2  A    between atoms: C_6  and  S_1 
REMARK    3  A    between atoms: N_2  and  C_5 
REMARK    4  A    between atoms: C_4  and  N_3 
REMARK    5  A    between atoms: C_5  and  C_4 
REMARK    6  A    between atoms: C_10  and  C_5 
ROOT
ATOM      1  C   UNL d   1     -48.721  13.440  22.727  0.00  0.00     0.086 C 
ENDROOT
BRANCH   1   2
ATOM      2  N   UNL d   1     -49.285  12.878  22.968  0.00  0.00    -0.300 N 
ATOM      3  C   UNL d   1     -50.068  12.944  22.718  0.00  0.00     0.100 A 
ATOM      4  C   UNL d   1     -50.626  12.386  22.957  0.00  0.00     0.100 A 
ATOM      5  N   UNL d   1     -50.401  11.765  23.444  0.00  0.00    -0.299 N 
ATOM      6  C   UNL d   1     -49.618  11.698  23.695  0.00  0.00     0.100 A 
ATOM      7  C   UNL d   1     -50.965  11.202  23.685  0.00  0.00     0.100 C 
ATOM      8  C   UNL d   1     -49.060  12.252  23.458  0.00  0.00     0.100 A 
ENDBRANCH   1   2
BRANCH   1   9
ATOM      9  C   UNL d   1     -47.967  13.196  22.513  0.00  0.00     0.130 C 
BRANCH   9  10
ATOM     10  N   UNL d   1     -47.324  13.367  23.002  0.00  0.00    -0.155 NA
BRANCH  10  11
ATOM     11  S   UNL d   1     -46.558  13.181  22.758  0.00  0.00     0.285 S 
ATOM     12  O   UNL d   1     -46.245  13.786  23.237  0.00  0.00    -0.198 OA
ATOM     13  O   UNL d   1     -46.855  12.567  22.271  0.00  0.00    -0.198 OA
BRANCH  11  14
ATOM     14  C   UNL d   1     -45.787  12.991  22.512  0.00  0.00     0.105 A 
ATOM     15  C   UNL d   1     -45.452  12.267  22.722  0.00  0.00     0.014 A 
ATOM     16  C   UNL d   1     -44.690  12.078  22.479  0.00  0.00     0.012 A 
ATOM     17  C   UNL d   1     -44.255  12.617  22.022  0.00  0.00     0.058 A 
ATOM     18  C   UNL d   1     -44.590  13.342  21.812  0.00  0.00     0.012 A 
ATOM     19 CL   UNL d   1     -43.485  12.431  21.775  0.00  0.00    -0.082 Cl
ATOM     20  C   UNL d   1     -45.355  13.528  22.057  0.00  0.00     0.014 A 
ENDBRANCH  11  14
ENDBRANCH  10  11
ENDBRANCH   9  10
ENDBRANCH   1   9
BRANCH   1  21
ATOM     21  C   UNL d   1     -48.919  14.241  22.704  0.00  0.00     0.037 A 
ATOM     22  C   UNL d   1     -49.017  14.662  23.408  0.00  0.00     0.100 A 
ATOM     23  N   UNL d   1     -49.215  15.463  23.385  0.00  0.00    -0.242 NA
ATOM     24  C   UNL d   1     -49.315  15.842  22.658  0.00  0.00     0.099 A 
ATOM     25  C   UNL d   1     -49.217  15.421  21.964  0.00  0.00     0.021 A 
ATOM     26  C   UNL d   1     -49.019  14.621  21.987  0.00  0.00     0.005 A 
ENDBRANCH   1  21
TORSDOF 6
ENDMDL
MODEL 3
REMARK VINA RESULT:      -3.7      6.194      8.724
REMARK  6 active torsions:
REMARK  status: ('A' for Active; 'I' for Inactive)
REMARK    1  A    between atoms: N_3  and  S_1 
REMARK    2  A    between atoms: C_6  and  S_1 
REMARK    3  A    between atoms: N_2  and  C_5 
REMARK    4  A    between atoms: C_4  and  N_3 
REMARK    5  A    between atoms: C_5  and  C_4 
REMARK    6  A    between atoms: C_10  and  C_5 
ROOT
ATOM      1  C   UNL d   1     -39.858  14.965  20.824  0.00  0.00     0.086 C 
ENDROOT
BRANCH   1   2
ATOM      2  N   UNL d   1     -40.589  14.579  20.911  0.00  0.00    -0.300 N 
ATOM      3  C   UNL d   1     -40.615  13.760  21.012  0.00  0.00     0.100 A 
ATOM      4  C   UNL d   1     -41.342  13.379  21.098  0.00  0.00     0.100 A 
ATOM      5  N   UNL d   1     -42.037  13.814  21.084  0.00  0.00    -0.299 N 
ATOM      6  C   UNL d   1     -42.012  14.633  20.983  0.00  0.00     0.100 A 
ATOM      7  C   UNL d   1     -42.769  13.428  21.172  0.00  0.00     0.100 C 
ATOM      8  C   UNL d   1     -41.290  15.015  20.897  0.00  0.00     0.100 A 
ENDBRANCH   1   2
BRANCH   1   9
ATOM      9  C   UNL d   1     -39.620  15.226  20.082  0.00  0.00     0.130 C 
BRANCH   9  10
ATOM     10  N   UNL d   1     -39.139  14.748  19.613  0.00  0.00    -0.155 NA
BRANCH  10  11
ATOM     11  S   UNL d   1     -38.979  14.962  18.832  0.00  0.00     0.285 S 
ATOM     12  O   UNL d   1     -39.085  14.175  18.581  0.00  0.00    -0.198 OA
ATOM     13  O   UNL d   1     -38.868  15.758  19.066  0.00  0.00    -0.198 OA
BRANCH  11  14
ATOM     14  C   UNL d   1     -38.817  15.179  18.045  0.00  0.00     0.105 A 
ATOM     15  C   UNL d   1     -39.323  14.942  17.438  0.00  0.00     0.014 A 
ATOM     16  C   UNL d   1     -39.164  15.156  16.661  0.00  0.00     0.012 A 
ATOM     17  C   UNL d   1     -38.493  15.613  16.486  0.00  0.00     0.058 A 
ATOM     18  C   UNL d   1     -37.988  15.850  17.093  0.00  0.00     0.012 A 
ATOM     19 CL   UNL d   1     -38.329  15.832  15.702  0.00  0.00    -0.082 Cl
ATOM     20  C   UNL d   1     -38.150  15.633  17.872  0.00  0.00     0.014 A 
ENDBRANCH  11  14
ENDBRANCH  10  11
ENDBRANCH   9  10
ENDBRANCH   1   9
BRANCH   1  21
ATOM     21  C   UNL d   1     -39.373  15.086  21.480  0.00  0.00     0.037 A 
ATOM     22  C   UNL d   1     -38.871  14.484  21.739  0.00  0.00     0.100 A 
ATOM     23  N   UNL d   1     -38.386  14.605  22.396  0.00  0.00    -0.242 NA
ATOM     24  C   UNL d   1     -38.403  15.328  22.793  0.00  0.00     0.099 A 
ATOM     25  C   UNL d   1     -38.901  15.922  22.534  0.00  0.00     0.021 A 
ATOM     26  C   UNL d   1     -39.386  15.801  21.878  0.00  0.00     0.005 A 
ENDBRANCH   1  21
TORSDOF 6
ENDMDL
MODEL 4
REMARK VINA RESULT:      -2.9      4.529      7.500
REMARK  6 active torsions:
REMARK  status: ('A' for Active; 'I' for Inactive)
REMARK    1  A    between atoms: N_3  and  S_1 
REMARK    2  A    between atoms: C_6  and  S_1 
REMARK    3  A    between atoms: N_2  and  C_5 
REMARK    4  A    between atoms: C_4  and  N_3 
REMARK    5  A    between atoms: C_5  and  C_4 
REMARK    6  A    between atoms: C_10  and  C_5 
ROOT
ATOM      1  C   UNL d   1     -40.733  14.570  20.427  0.00  0.00     0.086 C 
ENDROOT
BRANCH   1   2
ATOM      2  N   UNL d   1     -40.674  14.746  19.616  0.00  0.00    -0.300 N 
ATOM      3  C   UNL d   1     -40.384  14.181  19.090  0.00  0.00     0.100 A 
ATOM      4  C   UNL d   1     -40.327  14.357  18.286  0.00  0.00     0.100 A 
ATOM      5  N   UNL d   1     -40.558  15.095  18.011  0.00  0.00    -0.299 N 
ATOM      6  C   UNL d   1     -40.848  15.661  18.538  0.00  0.00     0.100 A 
ATOM      7  C   UNL d   1     -40.500  15.271  17.200  0.00  0.00     0.100 C 
ATOM      8  C   UNL d   1     -40.907  15.488  19.339  0.00  0.00     0.100 A 
ENDBRANCH   1   2
BRANCH   1   9
ATOM      9  C   UNL d   1     -41.452  14.328  20.742  0.00  0.00     0.130 C 
BRANCH   9  10
ATOM     10  N   UNL d   1     -41.650  13.527  20.747  0.00  0.00    -0.155 NA
BRANCH  10  11
ATOM     11  S   UNL d   1     -42.366  13.281  21.076  0.00  0.00     0.285 S 
ATOM     12  O   UNL d   1     -42.212  13.715  21.769  0.00  0.00    -0.198 OA
ATOM     13  O   UNL d   1     -42.538  12.838  20.386  0.00  0.00    -0.198 OA
BRANCH  11  14
ATOM     14  C   UNL d   1     -43.088  13.031  21.406  0.00  0.00     0.105 A 
ATOM     15  C   UNL d   1     -43.122  12.335  21.846  0.00  0.00     0.014 A 
ATOM     16  C   UNL d   1     -43.834  12.087  22.173  0.00  0.00     0.012 A 
ATOM     17  C   UNL d   1     -44.521  12.538  22.059  0.00  0.00     0.058 A 
ATOM     18  C   UNL d   1     -44.487  13.234  21.618  0.00  0.00     0.012 A 
ATOM     19 CL   UNL d   1     -45.243  12.292  22.387  0.00  0.00    -0.082 Cl
ATOM     20  C   UNL d   1     -43.770  13.481  21.292  0.00  0.00     0.014 A 
ENDBRANCH  11  14
ENDBRANCH  10  11
ENDBRANCH   9  10
ENDBRANCH   1   9
BRANCH   1  21
ATOM     21  C   UNL d   1     -40.070  14.638  20.914  0.00  0.00     0.037 A 
ATOM     22  C   UNL d   1     -39.505  14.035  20.929  0.00  0.00     0.100 A 
ATOM     23  N   UNL d   1     -38.843  14.103  21.416  0.00  0.00    -0.242 NA
ATOM     24  C   UNL d   1     -38.745  14.773  21.888  0.00  0.00     0.099 A 
ATOM     25  C   UNL d   1     -39.306  15.367  21.871  0.00  0.00     0.021 A 
ATOM     26  C   UNL d   1     -39.968  15.300  21.384  0.00  0.00     0.005 A 
ENDBRANCH   1  21
TORSDOF 6
ENDMDL
