MODEL 1
REMARK VINA RESULT:      -8.4      0.000      0.000
REMARK  8 active torsions:
REMARK  status: ('A' for Active; 'I' for Inactive)
REMARK    1  A    between atoms: C_20  and  N_7 
REMARK    2  A    between atoms: C_10  and  C_8 
REMARK       I    between atoms: N_18  and  C_10 
REMARK    3  A    between atoms: N_14  and  C_22 
REMARK    4  A    between atoms: C_21  and  N_18 
REMARK    5  A    between atoms: C_23  and  C_20 
REMARK    6  A    between atoms: C_22  and  C_21 
REMARK    7  A    between atoms: C_30  and  C_23 
REMARK    8  A    between atoms: O_27  and  C_30 
ROOT
ATOM      1  C   UNL d   1      52.776  33.915  53.816  0.00  0.00     0.154 A 
ATOM      2  C   UNL d   1      53.006  34.706  53.864  0.00  0.00     0.093 A 
ATOM      3  N   UNL d   1      53.169  33.351  54.241  0.00  0.00    -0.210 NA
ATOM      4  N   UNL d   1      54.010  34.362  54.752  0.00  0.00    -0.258 N 
ATOM      5  C   UNL d   1      53.780  33.571  54.705  0.00  0.00     0.152 A 
ATOM      6  C   UNL d   1      53.623  34.935  54.330  0.00  0.00     0.269 A 
ATOM      7  N   UNL d   1      52.169  33.695  53.356  0.00  0.00    -0.285 N 
ATOM      8  C   UNL d   1      51.782  34.257  52.936  0.00  0.00     0.137 A 
ATOM      9  C   UNL d   1      52.008  35.035  52.982  0.00  0.00     0.031 A 
ATOM     10  C   UNL d   1      54.164  33.015  55.122  0.00  0.00     0.035 A 
ATOM     11  C   UNL d   1      54.624  34.597  55.216  0.00  0.00     0.084 A 
ATOM     12  O   UNL d   1      53.853  35.726  54.377  0.00  0.00    -0.266 OA
ATOM     13  C   UNL d   1      55.003  34.021  55.632  0.00  0.00     0.019 A 
ATOM     14  C   UNL d   1      54.773  33.230  55.585  0.00  0.00     0.005 A 
ATOM     15  C   UNL d   1      53.925  32.214  55.069  0.00  0.00     0.003 C 
ENDROOT
BRANCH   8  16
ATOM     16  C   UNL d   1      51.159  34.029  52.464  0.00  0.00     0.344 C 
ATOM     17  O   UNL d   1      51.294  33.564  51.801  0.00  0.00    -0.249 OA
ATOM     18  N   UNL d   1      50.387  34.275  52.667  0.00  0.00    -0.359 NA
BRANCH  18  19
ATOM     19  C   UNL d   1      49.615  34.517  52.862  0.00  0.00     0.184 C 
BRANCH  19  20
ATOM     20  C   UNL d   1      49.130  34.882  52.285  0.00  0.00     0.116 C 
BRANCH  20  21
ATOM     21  N   UNL d   1      48.518  35.397  52.527  0.00  0.00    -0.297 N 
ATOM     22  C   UNL d   1      48.154  35.895  53.090  0.00  0.00     0.107 A 
ATOM     23  C   UNL d   1      47.436  36.286  52.904  0.00  0.00     0.142 A 
ATOM     24  O   UNL d   1      47.083  36.176  52.145  0.00  0.00    -0.300 OA
ATOM     25  C   UNL d   1      47.450  35.674  51.577  0.00  0.00     0.142 A 
ATOM     26  C   UNL d   1      48.168  35.285  51.769  0.00  0.00     0.107 A 
ENDBRANCH  20  21
ENDBRANCH  19  20
ENDBRANCH  18  19
ENDBRANCH   8  16
BRANCH   7  27
ATOM     27  C   UNL d   1      51.943  32.894  53.314  0.00  0.00     0.084 C 
BRANCH  27  28
ATOM     28  C   UNL d   1      52.356  32.368  52.820  0.00  0.00     0.045 C 
BRANCH  28  29
ATOM     29  C   UNL d   1      52.171  31.556  52.836  0.00  0.00     0.118 C 
BRANCH  29  30
ATOM     30  O   UNL d   1      52.645  31.018  52.417  0.00  0.00    -0.326 OA
ATOM     31  C   UNL d   1      52.740  30.235  52.699  0.00  0.00     0.181 C 
ENDBRANCH  29  30
ENDBRANCH  28  29
ENDBRANCH  27  28
ENDBRANCH   7  27
TORSDOF 8
ENDMDL
MODEL 2
REMARK VINA RESULT:      -7.6      1.156      2.747
REMARK  8 active torsions:
REMARK  status: ('A' for Active; 'I' for Inactive)
REMARK    1  A    between atoms: C_20  and  N_7 
REMARK    2  A    between atoms: C_10  and  C_8 
REMARK       I    between atoms: N_18  and  C_10 
REMARK    3  A    between atoms: N_14  and  C_22 
REMARK    4  A    between atoms: C_21  and  N_18 
REMARK    5  A    between atoms: C_23  and  C_20 
REMARK    6  A    between atoms: C_22  and  C_21 
REMARK    7  A    between atoms: C_30  and  C_23 
REMARK    8  A    between atoms: O_27  and  C_30 
ROOT
ATOM      1  C   UNL d   1      52.267  32.884  53.074  0.00  0.00     0.154 A 
ATOM      2  C   UNL d   1      51.798  32.213  52.969  0.00  0.00     0.093 A 
ATOM      3  N   UNL d   1      53.035  32.809  53.316  0.00  0.00    -0.210 NA
ATOM      4  N   UNL d   1      52.859  31.410  53.347  0.00  0.00    -0.258 N 
ATOM      5  C   UNL d   1      53.329  32.080  53.452  0.00  0.00     0.152 A 
ATOM      6  C   UNL d   1      52.089  31.473  53.105  0.00  0.00     0.269 A 
ATOM      7  N   UNL d   1      51.977  33.609  52.939  0.00  0.00    -0.285 N 
ATOM      8  C   UNL d   1      51.216  33.679  52.699  0.00  0.00     0.137 A 
ATOM      9  C   UNL d   1      50.753  33.020  52.596  0.00  0.00     0.031 A 
ATOM     10  C   UNL d   1      54.083  32.009  53.690  0.00  0.00     0.035 A 
ATOM     11  C   UNL d   1      53.144  30.669  53.481  0.00  0.00     0.084 A 
ATOM     12  O   UNL d   1      51.619  30.803  53.000  0.00  0.00    -0.266 OA
ATOM     13  C   UNL d   1      53.910  30.615  53.722  0.00  0.00     0.019 A 
ATOM     14  C   UNL d   1      54.380  31.285  53.826  0.00  0.00     0.005 A 
ATOM     15  C   UNL d   1      54.555  32.694  53.794  0.00  0.00     0.003 C 
ENDROOT
BRANCH   8  16
ATOM     16  C   UNL d   1      50.919  34.425  52.561  0.00  0.00     0.344 C 
ATOM     17  O   UNL d   1      51.329  34.948  52.079  0.00  0.00    -0.249 OA
ATOM     18  N   UNL d   1      50.196  34.644  52.918  0.00  0.00    -0.359 NA
BRANCH  18  19
ATOM     19  C   UNL d   1      49.476  34.870  53.269  0.00  0.00     0.184 C 
BRANCH  19  20
ATOM     20  C   UNL d   1      48.939  35.358  52.851  0.00  0.00     0.116 C 
BRANCH  20  21
ATOM     21  N   UNL d   1      48.346  35.772  53.270  0.00  0.00    -0.297 N 
ATOM     22  C   UNL d   1      48.006  36.055  53.978  0.00  0.00     0.107 A 
ATOM     23  C   UNL d   1      47.297  36.502  53.955  0.00  0.00     0.142 A 
ATOM     24  O   UNL d   1      46.928  36.666  53.214  0.00  0.00    -0.300 OA
ATOM     25  C   UNL d   1      47.272  36.381  52.499  0.00  0.00     0.142 A 
ATOM     26  C   UNL d   1      47.981  35.934  52.528  0.00  0.00     0.107 A 
ENDBRANCH  20  21
ENDBRANCH  19  20
ENDBRANCH  18  19
ENDBRANCH   8  16
BRANCH   7  27
ATOM     27  C   UNL d   1      52.458  34.281  53.047  0.00  0.00     0.084 C 
BRANCH  27  28
ATOM     28  C   UNL d   1      52.511  34.642  53.794  0.00  0.00     0.045 C 
BRANCH  28  29
ATOM     29  C   UNL d   1      53.006  35.305  53.897  0.00  0.00     0.118 C 
BRANCH  29  30
ATOM     30  O   UNL d   1      53.127  35.611  54.660  0.00  0.00    -0.326 OA
ATOM     31  C   UNL d   1      53.367  36.408  54.756  0.00  0.00     0.181 C 
ENDBRANCH  29  30
ENDBRANCH  28  29
ENDBRANCH  27  28
ENDBRANCH   7  27
TORSDOF 8
ENDMDL
MODEL 3
REMARK VINA RESULT:      -5.5      1.122      2.862
REMARK  8 active torsions:
REMARK  status: ('A' for Active; 'I' for Inactive)
REMARK    1  A    between atoms: C_20  and  N_7 
REMARK    2  A    between atoms: C_10  and  C_8 
REMARK       I    between atoms: N_18  and  C_10 
REMARK    3  A    between atoms: N_14  and  C_22 
REMARK    4  A    between atoms: C_21  and  N_18 
REMARK    5  A    between atoms: C_23  and  C_20 
REMARK    6  A    between atoms: C_22  and  C_21 
REMARK    7  A    between atoms: C_30  and  C_23 
REMARK    8  A    between atoms: O_27  and  C_30 
ROOT
ATOM      1  C   UNL d   1      52.668  32.236  53.451  0.00  0.00     0.154 A 
ATOM      2  C   UNL d   1      52.469  31.817  52.768  0.00  0.00     0.093 A 
ATOM      3  N   UNL d   1      53.035  31.861  54.065  0.00  0.00    -0.210 NA
ATOM      4  N   UNL d   1      53.001  30.665  53.319  0.00  0.00    -0.258 N 
ATOM      5  C   UNL d   1      53.201  31.083  54.002  0.00  0.00     0.152 A 
ATOM      6  C   UNL d   1      52.634  31.031  52.697  0.00  0.00     0.269 A 
ATOM      7  N   UNL d   1      52.505  33.009  53.516  0.00  0.00    -0.285 N 
ATOM      8  C   UNL d   1      52.141  33.377  52.905  0.00  0.00     0.137 A 
ATOM      9  C   UNL d   1      51.945  32.965  52.233  0.00  0.00     0.031 A 
ATOM     10  C   UNL d   1      53.561  30.717  54.607  0.00  0.00     0.035 A 
ATOM     11  C   UNL d   1      53.163  29.880  53.242  0.00  0.00     0.084 A 
ATOM     12  O   UNL d   1      52.434  30.612  52.015  0.00  0.00    -0.266 OA
ATOM     13  C   UNL d   1      53.528  29.524  53.865  0.00  0.00     0.019 A 
ATOM     14  C   UNL d   1      53.727  29.942  54.548  0.00  0.00     0.005 A 
ATOM     15  C   UNL d   1      53.760  31.148  55.298  0.00  0.00     0.003 C 
ENDROOT
BRANCH   8  16
ATOM     16  C   UNL d   1      51.974  34.171  52.973  0.00  0.00     0.344 C 
ATOM     17  O   UNL d   1      52.572  34.727  52.887  0.00  0.00    -0.249 OA
ATOM     18  N   UNL d   1      51.188  34.406  53.132  0.00  0.00    -0.359 NA
BRANCH  18  19
ATOM     19  C   UNL d   1      50.408  34.648  53.290  0.00  0.00     0.184 C 
BRANCH  19  20
ATOM     20  C   UNL d   1      49.881  34.809  52.659  0.00  0.00     0.116 C 
BRANCH  20  21
ATOM     21  N   UNL d   1      49.167  35.215  52.811  0.00  0.00    -0.297 N 
ATOM     22  C   UNL d   1      48.655  35.642  53.314  0.00  0.00     0.107 A 
ATOM     23  C   UNL d   1      47.914  35.912  53.029  0.00  0.00     0.142 A 
ATOM     24  O   UNL d   1      47.686  35.751  52.233  0.00  0.00    -0.300 OA
ATOM     25  C   UNL d   1      48.203  35.320  51.725  0.00  0.00     0.142 A 
ATOM     26  C   UNL d   1      48.943  35.053  52.015  0.00  0.00     0.107 A 
ENDBRANCH  20  21
ENDBRANCH  19  20
ENDBRANCH  18  19
ENDBRANCH   8  16
BRANCH   7  27
ATOM     27  C   UNL d   1      52.709  33.424  54.209  0.00  0.00     0.084 C 
BRANCH  27  28
ATOM     28  C   UNL d   1      53.454  33.788  54.275  0.00  0.00     0.045 C 
BRANCH  28  29
ATOM     29  C   UNL d   1      53.708  34.076  55.014  0.00  0.00     0.118 C 
BRANCH  29  30
ATOM     30  O   UNL d   1      54.404  34.528  55.061  0.00  0.00    -0.326 OA
ATOM     31  C   UNL d   1      55.094  34.199  55.404  0.00  0.00     0.181 C 
ENDBRANCH  29  30
ENDBRANCH  28  29
ENDBRANCH  27  28
ENDBRANCH   7  27
TORSDOF 8
ENDMDL
