MODEL 1
REMARK VINA RESULT:      45.7      0.000      0.000
REMARK  1 active torsions:
REMARK  status: ('A' for Active; 'I' for Inactive)
REMARK    1  A    between atoms: C_14  and  C_7 
ROOT
ATOM      1  C   UNL d   1      14.511  14.978  -2.000  0.00  0.00     0.121 A 
ATOM      2  C   UNL d   1      14.644  14.371  -1.457  0.00  0.00     0.058 A 
ATOM      3  N   UNL d   1      14.778  15.681  -1.659  0.00  0.00    -0.195 NA
ATOM      4  S   UNL d   1      14.167  14.811  -2.728  0.00  0.00    -0.068 SA
ATOM      5  C   UNL d   1      13.958  14.043  -2.909  0.00  0.00     0.027 A 
ATOM      6  C   UNL d   1      14.091  13.437  -2.366  0.00  0.00     0.003 A 
ATOM      7  C   UNL d   1      14.432  13.598  -1.643  0.00  0.00     0.010 A 
ATOM      8  C   UNL d   1      15.073  15.513  -0.913  0.00  0.00     0.311 A 
ATOM      9  S   UNL d   1      14.992  14.701  -0.782  0.00  0.00    -0.024 SA
ATOM     10  C   UNL d   1      13.704  12.807  -3.013  0.00  0.00    -0.017 A 
ATOM     11  C   UNL d   1      13.516  13.388  -3.672  0.00  0.00    -0.012 A 
ATOM     12  C   UNL d   1      13.159  13.585  -4.573  0.00  0.00     0.053 A 
ATOM     13  O   UNL d   1      15.394  16.058  -0.384  0.00  0.00    -0.258 OA
ATOM     14  C   UNL d   1      13.587  11.783  -2.883  0.00  0.00    -0.004 A 
ATOM     15  C   UNL d   1      13.467  12.485  -3.434  0.00  0.00    -0.004 A 
ENDROOT
BRANCH   7  16
ATOM     16  C   UNL d   1      14.565  12.992  -1.100  0.00  0.00     0.020 A 
ATOM     17  C   UNL d   1      15.291  12.589  -1.102  0.00  0.00     0.099 A 
ATOM     18  N   UNL d   1      15.416  11.983  -0.555  0.00  0.00    -0.242 NA
ATOM     19  C   UNL d   1      14.830  11.779  -0.014  0.00  0.00     0.099 A 
ATOM     20  C   UNL d   1      14.112  12.184  -0.019  0.00  0.00     0.021 A 
ATOM     21  C   UNL d   1      13.980  12.787  -0.559  0.00  0.00     0.003 A 
ENDBRANCH   7  16
TORSDOF 1
ENDMDL
MODEL 2
REMARK VINA RESULT:      45.8      1.345      2.746
REMARK  1 active torsions:
REMARK  status: ('A' for Active; 'I' for Inactive)
REMARK    1  A    between atoms: C_14  and  C_7 
ROOT
ATOM      1  C   UNL d   1      14.296  12.150  -1.943  0.00  0.00     0.121 A 
ATOM      2  C   UNL d   1      14.443  12.959  -1.870  0.00  0.00     0.058 A 
ATOM      3  N   UNL d   1      14.597  11.779  -1.270  0.00  0.00    -0.195 NA
ATOM      4  S   UNL d   1      13.909  11.861  -2.609  0.00  0.00    -0.068 SA
ATOM      5  C   UNL d   1      13.672  12.378  -3.194  0.00  0.00     0.027 A 
ATOM      6  C   UNL d   1      13.820  13.186  -3.121  0.00  0.00     0.003 A 
ATOM      7  C   UNL d   1      14.203  13.477  -2.462  0.00  0.00     0.010 A 
ATOM      8  C   UNL d   1      14.928  12.350  -0.785  0.00  0.00     0.311 A 
ATOM      9  S   UNL d   1      14.836  13.085  -1.151  0.00  0.00    -0.024 SA
ATOM     10  C   UNL d   1      13.383  13.320  -3.990  0.00  0.00    -0.017 A 
ATOM     11  C   UNL d   1      13.174  12.464  -4.170  0.00  0.00    -0.012 A 
ATOM     12  C   UNL d   1      12.774  11.779  -4.759  0.00  0.00     0.053 A 
ATOM     13  O   UNL d   1      15.291  12.217  -0.056  0.00  0.00    -0.258 OA
ATOM     14  C   UNL d   1      13.249  14.226  -4.481  0.00  0.00    -0.004 A 
ATOM     15  C   UNL d   1      13.116  13.335  -4.505  0.00  0.00    -0.004 A 
ENDROOT
BRANCH   7  16
ATOM     16  C   UNL d   1      14.351  14.285  -2.388  0.00  0.00     0.020 A 
ATOM     17  C   UNL d   1      14.365  14.635  -1.635  0.00  0.00     0.099 A 
ATOM     18  N   UNL d   1      14.513  15.444  -1.571  0.00  0.00    -0.242 NA
ATOM     19  C   UNL d   1      14.646  15.901  -2.241  0.00  0.00     0.099 A 
ATOM     20  C   UNL d   1      14.630  15.546  -2.986  0.00  0.00     0.021 A 
ATOM     21  C   UNL d   1      14.483  14.743  -3.059  0.00  0.00     0.003 A 
ENDBRANCH   7  16
TORSDOF 1
ENDMDL
MODEL 3
REMARK VINA RESULT:      46.0      1.984      3.730
REMARK  1 active torsions:
REMARK  status: ('A' for Active; 'I' for Inactive)
REMARK    1  A    between atoms: C_14  and  C_7 
ROOT
ATOM      1  C   UNL d   1      13.600  12.145  -3.013  0.00  0.00     0.121 A 
ATOM      2  C   UNL d   1      13.709  12.940  -3.202  0.00  0.00     0.058 A 
ATOM      3  N   UNL d   1      13.249  11.779  -3.665  0.00  0.00    -0.195 NA
ATOM      4  S   UNL d   1      13.832  11.860  -2.278  0.00  0.00    -0.068 SA
ATOM      5  C   UNL d   1      14.171  12.369  -1.737  0.00  0.00     0.027 A 
ATOM      6  C   UNL d   1      14.280  13.164  -1.926  0.00  0.00     0.003 A 
ATOM      7  C   UNL d   1      14.050  13.450  -2.654  0.00  0.00     0.010 A 
ATOM      8  C   UNL d   1      13.142  12.341  -4.252  0.00  0.00     0.311 A 
ATOM      9  S   UNL d   1      13.425  13.065  -3.970  0.00  0.00    -0.024 SA
ATOM     10  C   UNL d   1      14.673  13.296  -1.035  0.00  0.00    -0.017 A 
ATOM     11  C   UNL d   1      14.600  12.453  -0.729  0.00  0.00    -0.012 A 
ATOM     12  C   UNL d   1      14.732  11.779  -0.019  0.00  0.00     0.053 A 
ATOM     13  O   UNL d   1      12.809  12.211  -4.996  0.00  0.00    -0.258 OA
ATOM     14  C   UNL d   1      15.039  14.187  -0.647  0.00  0.00    -0.004 A 
ATOM     15  C   UNL d   1      14.894  13.310  -0.499  0.00  0.00    -0.004 A 
ENDROOT
BRANCH   7  16
ATOM     16  C   UNL d   1      14.159  14.246  -2.843  0.00  0.00     0.020 A 
ATOM     17  C   UNL d   1      14.659  14.716  -2.375  0.00  0.00     0.099 A 
ATOM     18  N   UNL d   1      14.763  15.510  -2.570  0.00  0.00    -0.242 NA
ATOM     19  C   UNL d   1      14.377  15.837  -3.219  0.00  0.00     0.099 A 
ATOM     20  C   UNL d   1      13.882  15.363  -3.679  0.00  0.00     0.021 A 
ATOM     21  C   UNL d   1      13.774  14.572  -3.492  0.00  0.00     0.003 A 
ENDBRANCH   7  16
TORSDOF 1
ENDMDL
