MODEL 1
REMARK VINA RESULT:      -3.9      0.000      0.000
REMARK  3 active torsions:
REMARK  status: ('A' for Active; 'I' for Inactive)
REMARK    1  A    between atoms: C_6  and  C_1 
REMARK    2  A    between atoms: C_7  and  N_3 
REMARK    3  A    between atoms: C_10  and  C_7 
ROOT
ATOM      1  C   UNL d   1     -41.667-123.204 -51.415  0.00  0.00     0.148 A 
ATOM      2  N   UNL d   1     -41.691-123.813 -51.982  0.00  0.00    -0.227 NA
ATOM      3  N   UNL d   1     -41.473-122.520 -51.831  0.00  0.00    -0.289 N 
ATOM      4  C   UNL d   1     -41.380-122.691 -52.613  0.00  0.00     0.083 A 
ATOM      5  C   UNL d   1     -41.517-123.502 -52.707  0.00  0.00     0.099 A 
ATOM      6  C   UNL d   1     -41.189-122.229 -53.269  0.00  0.00     0.019 A 
ATOM      7  C   UNL d   1     -41.457-123.817 -53.453  0.00  0.00     0.021 A 
ATOM      8  C   UNL d   1     -41.138-122.571 -53.992  0.00  0.00     0.002 A 
ATOM      9  C   UNL d   1     -41.274-123.383 -54.087  0.00  0.00     0.002 A 
ENDROOT
BRANCH   1  10
ATOM     10  C   UNL d   1     -41.810-123.275 -50.603  0.00  0.00     0.035 A 
ATOM     11  C   UNL d   1     -41.209-123.524 -50.098  0.00  0.00     0.005 A 
ATOM     12  C   UNL d   1     -41.352-123.594 -49.285  0.00  0.00     0.021 A 
ATOM     13  C   UNL d   1     -42.095-123.416 -48.979  0.00  0.00     0.103 A 
ATOM     14  C   UNL d   1     -42.699-123.165 -49.485  0.00  0.00     0.021 A 
ATOM     15  N   UNL d   1     -42.238-123.486 -48.167  0.00  0.00    -0.148 N 
ATOM     16  C   UNL d   1     -42.557-123.095 -50.298  0.00  0.00     0.005 A 
ENDBRANCH   1  10
BRANCH   3  17
ATOM     17  C   UNL d   1     -41.421-121.851 -51.368  0.00  0.00     0.082 C 
BRANCH  17  18
ATOM     18  C   UNL d   1     -41.127-121.142 -51.643  0.00  0.00     0.019 C 
ATOM     19  C   UNL d   1     -41.132-120.452 -51.199  0.00  0.00     0.002 C 
ENDBRANCH  17  18
ENDBRANCH   3  17
TORSDOF 3
ENDMDL
MODEL 2
REMARK VINA RESULT:      -2.6      1.246      4.251
REMARK  3 active torsions:
REMARK  status: ('A' for Active; 'I' for Inactive)
REMARK    1  A    between atoms: C_6  and  C_1 
REMARK    2  A    between atoms: C_7  and  N_3 
REMARK    3  A    between atoms: C_10  and  C_7 
ROOT
ATOM      1  C   UNL d   1     -41.668-122.960 -49.417  0.00  0.00     0.148 A 
ATOM      2  N   UNL d   1     -41.123-122.830 -48.802  0.00  0.00    -0.227 NA
ATOM      3  N   UNL d   1     -42.351-123.244 -49.054  0.00  0.00    -0.289 N 
ATOM      4  C   UNL d   1     -42.240-123.290 -48.258  0.00  0.00     0.083 A 
ATOM      5  C   UNL d   1     -41.470-123.030 -48.100  0.00  0.00     0.099 A 
ATOM      6  C   UNL d   1     -42.726-123.531 -47.637  0.00  0.00     0.019 A 
ATOM      7  C   UNL d   1     -41.219-123.022 -47.328  0.00  0.00     0.021 A 
ATOM      8  C   UNL d   1     -42.448-123.511 -46.885  0.00  0.00     0.002 A 
ATOM      9  C   UNL d   1     -41.678-123.251 -46.727  0.00  0.00     0.002 A 
ENDROOT
BRANCH   1  10
ATOM     10  C   UNL d   1     -41.546-122.830 -50.226  0.00  0.00     0.035 A 
ATOM     11  C   UNL d   1     -41.274-123.440 -50.706  0.00  0.00     0.005 A 
ATOM     12  C   UNL d   1     -41.152-123.310 -51.515  0.00  0.00     0.021 A 
ATOM     13  C   UNL d   1     -41.302-122.569 -51.842  0.00  0.00     0.103 A 
ATOM     14  C   UNL d   1     -41.574-121.955 -51.360  0.00  0.00     0.021 A 
ATOM     15  N   UNL d   1     -41.180-122.439 -52.649  0.00  0.00    -0.148 N 
ATOM     16  C   UNL d   1     -41.697-122.085 -50.551  0.00  0.00     0.005 A 
ENDBRANCH   1  10
BRANCH   3  17
ATOM     17  C   UNL d   1     -42.960-123.408 -49.571  0.00  0.00     0.082 C 
BRANCH  17  18
ATOM     18  C   UNL d   1     -43.635-123.808 -49.350  0.00  0.00     0.019 C 
ATOM     19  C   UNL d   1     -44.322-123.811 -49.797  0.00  0.00     0.002 C 
ENDBRANCH  17  18
ENDBRANCH   3  17
TORSDOF 3
ENDMDL
MODEL 3
REMARK VINA RESULT:      -2.5      1.255      3.680
REMARK  3 active torsions:
REMARK  status: ('A' for Active; 'I' for Inactive)
REMARK    1  A    between atoms: C_6  and  C_1 
REMARK    2  A    between atoms: C_7  and  N_3 
REMARK    3  A    between atoms: C_10  and  C_7 
ROOT
ATOM      1  C   UNL d   1     -41.598-122.634 -52.661  0.00  0.00     0.148 A 
ATOM      2  N   UNL d   1     -41.684-123.375 -52.294  0.00  0.00    -0.227 NA
ATOM      3  N   UNL d   1     -41.373-122.113 -52.062  0.00  0.00    -0.289 N 
ATOM      4  C   UNL d   1     -41.321-122.507 -51.362  0.00  0.00     0.083 A 
ATOM      5  C   UNL d   1     -41.516-123.298 -51.507  0.00  0.00     0.099 A 
ATOM      6  C   UNL d   1     -41.124-122.268 -50.598  0.00  0.00     0.019 A 
ATOM      7  C   UNL d   1     -41.506-123.817 -50.882  0.00  0.00     0.021 A 
ATOM      8  C   UNL d   1     -41.123-122.805 -50.002  0.00  0.00     0.002 A 
ATOM      9  C   UNL d   1     -41.318-123.597 -50.148  0.00  0.00     0.002 A 
ENDROOT
BRANCH   1  10
ATOM     10  C   UNL d   1     -41.714-122.458 -53.462  0.00  0.00     0.035 A 
ATOM     11  C   UNL d   1     -42.388-122.050 -53.701  0.00  0.00     0.005 A 
ATOM     12  C   UNL d   1     -42.505-121.874 -54.502  0.00  0.00     0.021 A 
ATOM     13  C   UNL d   1     -41.948-122.107 -55.062  0.00  0.00     0.103 A 
ATOM     14  C   UNL d   1     -41.270-122.516 -54.822  0.00  0.00     0.021 A 
ATOM     15  N   UNL d   1     -42.064-121.931 -55.862  0.00  0.00    -0.148 N 
ATOM     16  C   UNL d   1     -41.154-122.692 -54.022  0.00  0.00     0.005 A 
ENDBRANCH   1  10
BRANCH   3  17
ATOM     17  C   UNL d   1     -41.259-121.346 -52.313  0.00  0.00     0.082 C 
BRANCH  17  18
ATOM     18  C   UNL d   1     -41.164-120.721 -51.799  0.00  0.00     0.019 C 
ATOM     19  C   UNL d   1     -41.191-119.936 -52.036  0.00  0.00     0.002 C 
ENDBRANCH  17  18
ENDBRANCH   3  17
TORSDOF 3
ENDMDL
