MODEL 1
REMARK VINA RESULT:      53.0      0.000      0.000
REMARK  3 active torsions:
REMARK  status: ('A' for Active; 'I' for Inactive)
REMARK    1  A    between atoms: C_8  and  C_2 
REMARK    2  A    between atoms: N_9  and  C_8 
REMARK    3  A    between atoms: C_20  and  C_13 
ROOT
ATOM      1  C   UNL d   1     -57.163 -98.756 -44.787  0.00  0.00     0.108 A 
ATOM      2  C   UNL d   1     -56.404 -98.756 -45.112  0.00  0.00     0.079 A 
ATOM      3  O   UNL d   1     -57.273 -98.757 -43.983  0.00  0.00    -0.273 OA
ATOM      4  C   UNL d   1     -58.035 -98.757 -43.655  0.00  0.00     0.300 A 
ATOM      5  C   UNL d   1     -58.580 -98.756 -44.989  0.00  0.00     0.007 A 
ATOM      6  C   UNL d   1     -57.817 -98.756 -45.290  0.00  0.00     0.023 A 
ATOM      7  C   UNL d   1     -58.695 -98.756 -44.163  0.00  0.00     0.064 A 
ATOM      8  C   UNL d   1     -57.717 -98.755 -46.111  0.00  0.00     0.005 A 
ATOM      9  C   UNL d   1     -56.289 -98.756 -45.923  0.00  0.00     0.199 A 
ATOM     10  O   UNL d   1     -58.154 -98.757 -42.837  0.00  0.00    -0.259 OA
ATOM     11  C   UNL d   1     -56.943 -98.755 -46.426  0.00  0.00     0.042 A 
ATOM     12  C   UNL d   1     -59.317 -98.755 -45.350  0.00  0.00     0.000 A 
ATOM     13  C   UNL d   1     -59.512 -98.756 -44.024  0.00  0.00     0.005 A 
ATOM     14  O   UNL d   1     -55.532 -98.755 -46.245  0.00  0.00    -0.286 OA
ATOM     15  C   UNL d   1     -59.901 -98.756 -44.749  0.00  0.00     0.000 A 
ENDROOT
BRANCH   2  16
ATOM     16  C   UNL d   1     -55.749 -98.756 -44.597  0.00  0.00     0.085 C 
BRANCH  16  17
ATOM     17  N   UNL d   1     -55.445 -99.463 -44.304  0.00  0.00    -0.304 N 
ATOM     18  C   UNL d   1     -55.051 -99.460 -43.603  0.00  0.00     0.064 A 
ATOM     19  C   UNL d   1     -54.747-100.167 -43.310  0.00  0.00     0.018 A 
ATOM     20  C   UNL d   1     -54.848-100.869 -43.736  0.00  0.00     0.003 A 
ATOM     21  C   UNL d   1     -55.244-100.859 -44.436  0.00  0.00     0.019 A 
ATOM     22  C   UNL d   1     -55.548-100.152 -44.729  0.00  0.00     0.080 A 
BRANCH  18  23
ATOM     23  C   UNL d   1     -54.948 -98.766 -43.177  0.00  0.00     0.018 C 
ATOM     24  C   UNL d   1     -54.736 -98.783 -42.386  0.00  0.00     0.002 C 
ENDBRANCH  18  23
ENDBRANCH  16  17
ENDBRANCH   2  16
TORSDOF 3
ENDMDL
