MODEL 1
REMARK VINA RESULT:      13.0      0.000      0.000
REMARK  2 active torsions:
REMARK  status: ('A' for Active; 'I' for Inactive)
REMARK    1  A    between atoms: N_2  and  S_1 
REMARK    2  A    between atoms: C_3  and  S_1 
ROOT
ATOM      1  N   UNL d   1      45.698 -13.695  44.436  0.00  0.00    -0.231 N 
ATOM      2  C   UNL d   1      45.312 -13.297  43.830  0.00  0.00     0.075 A 
ATOM      3  C   UNL d   1      45.432 -12.487  43.735  0.00  0.00     0.017 A 
ATOM      4  C   UNL d   1      46.207 -13.293  44.955  0.00  0.00     0.092 A 
ATOM      5  C   UNL d   1      44.801 -13.697  43.309  0.00  0.00     0.018 A 
ATOM      6  C   UNL d   1      46.325 -12.487  44.858  0.00  0.00     0.020 A 
ATOM      7  C   UNL d   1      45.936 -12.080  44.245  0.00  0.00     0.003 A 
ATOM      8  C   UNL d   1      45.038 -12.084  43.116  0.00  0.00     0.002 A 
ATOM      9  C   UNL d   1      44.409 -13.304  42.696  0.00  0.00     0.002 A 
ATOM     10  C   UNL d   1      44.527 -12.493  42.598  0.00  0.00     0.000 A 
ENDROOT
BRANCH   1  11
ATOM     11  S   UNL d   1      45.576 -14.505  44.530  0.00  0.00     0.277 S 
ATOM     12  O   UNL d   1      46.276 -14.657  44.121  0.00  0.00    -0.199 OA
ATOM     13  O   UNL d   1      44.885 -14.355  44.933  0.00  0.00    -0.199 OA
BRANCH  11  14
ATOM     14  C   UNL d   1      45.456 -15.301  44.622  0.00  0.00     0.133 A 
ATOM     15  S   UNL d   1      44.777 -15.641  44.939  0.00  0.00    -0.074 SA
ATOM     16  C   UNL d   1      44.890 -16.487  44.931  0.00  0.00     0.036 A 
ATOM     17  C   UNL d   1      45.633 -16.615  44.607  0.00  0.00     0.008 A 
ATOM     18  C   UNL d   1      45.999 -15.931  44.412  0.00  0.00     0.020 A 
ENDBRANCH  11  14
ENDBRANCH   1  11
TORSDOF 2
ENDMDL
