MODEL 1
REMARK VINA RESULT:      51.8      0.000      0.000
REMARK  4 active torsions:
REMARK  status: ('A' for Active; 'I' for Inactive)
REMARK    1  A    between atoms: N_5  and  C_2 
REMARK    2  A    between atoms: C_9  and  C_3 
REMARK       I    between atoms: C_7  and  N_5 
REMARK    3  A    between atoms: C_8  and  C_7 
REMARK    4  A    between atoms: O_16  and  C_13 
ROOT
ATOM      1  N   UNL d   1     -50.237  26.008  33.592  0.00  0.00    -0.200 NA
ATOM      2  C   UNL d   1     -50.344  26.821  33.579  0.00  0.00     0.216 A 
ATOM      3  C   UNL d   1     -50.958  25.648  33.431  0.00  0.00     0.172 A 
ATOM      4  N   UNL d   1     -51.517  26.244  33.318  0.00  0.00    -0.187 NA
ATOM      5  S   UNL d   1     -51.134  26.966  33.410  0.00  0.00     0.054 SA
ENDROOT
BRANCH   2   6
ATOM      6  N   UNL d   1     -49.763  27.391  33.712  0.00  0.00    -0.181 NA
ATOM      7  C   UNL d   1     -49.651  27.685  34.467  0.00  0.00     0.281 C 
ATOM      8  O   UNL d   1     -50.114  27.415  35.092  0.00  0.00    -0.265 OA
BRANCH   7   9
ATOM      9  C   UNL d   1     -49.069  28.255  34.600  0.00  0.00     0.058 A 
ATOM     10  C   UNL d   1     -49.209  29.041  34.398  0.00  0.00     0.007 A 
ATOM     11  C   UNL d   1     -48.627  29.611  34.531  0.00  0.00     0.024 A 
ATOM     12  C   UNL d   1     -47.906  29.395  34.866  0.00  0.00     0.094 A 
ATOM     13  C   UNL d   1     -47.768  28.609  35.068  0.00  0.00     0.024 A 
ATOM     14  C   UNL d   1     -48.349  28.039  34.935  0.00  0.00     0.007 A 
BRANCH  12  15
ATOM     15  O   UNL d   1     -47.325  29.965  34.999  0.00  0.00    -0.328 OA
ATOM     16  C   UNL d   1     -47.238  30.299  35.745  0.00  0.00     0.181 C 
ENDBRANCH  12  15
ENDBRANCH   7   9
ENDBRANCH   2   6
BRANCH   3  17
ATOM     17  C   UNL d   1     -51.101  24.843  33.390  0.00  0.00     0.036 A 
ATOM     18  C   UNL d   1     -51.877  24.565  33.362  0.00  0.00     0.003 A 
ATOM     19  C   UNL d   1     -52.021  23.746  33.320  0.00  0.00     0.000 A 
ATOM     20  C   UNL d   1     -51.385  23.211  33.307  0.00  0.00     0.000 A 
ATOM     21  C   UNL d   1     -50.609  23.499  33.337  0.00  0.00     0.000 A 
ATOM     22  C   UNL d   1     -50.466  24.309  33.378  0.00  0.00     0.003 A 
ENDBRANCH   3  17
TORSDOF 4
ENDMDL
