MODEL 1
REMARK VINA RESULT:       8.3      0.000      0.000
REMARK  5 active torsions:
REMARK  status: ('A' for Active; 'I' for Inactive)
REMARK    1  A    between atoms: C_3  and  N_1 
REMARK    2  A    between atoms: C_4  and  N_1 
REMARK    3  A    between atoms: N_7  and  C_3 
REMARK    4  A    between atoms: C_10  and  N_7 
REMARK    5  A    between atoms: C_8  and  C_10 
ROOT
ATOM      1  N   UNL d   1      45.932 -14.658  44.103  0.00  0.00    -0.198 NA
ENDROOT
BRANCH   1   2
ATOM      2  C   UNL d   1      45.508 -15.171  44.601  0.00  0.00     0.222 C 
ATOM      3  S   UNL d   1      44.849 -14.925  44.955  0.00  0.00    -0.037 SA
BRANCH   2   4
ATOM      4  N   UNL d   1      45.774 -15.915  44.718  0.00  0.00    -0.216 NA
BRANCH   4   5
ATOM      5  C   UNL d   1      45.536 -16.520  44.217  0.00  0.00     0.101 C 
BRANCH   5   6
ATOM      6  C   UNL d   1      45.925 -17.260  44.240  0.00  0.00     0.019 C 
ATOM      7  C   UNL d   1      46.217 -17.550  44.955  0.00  0.00     0.002 C 
ATOM      8  C   UNL d   1      46.017 -17.696  43.546  0.00  0.00     0.002 C 
ENDBRANCH   5   6
ENDBRANCH   4   5
ENDBRANCH   2   4
ENDBRANCH   1   2
BRANCH   1   9
ATOM      9  C   UNL d   1      45.854 -13.842  44.195  0.00  0.00     0.167 A 
ATOM     10  N   UNL d   1      45.454 -13.397  43.627  0.00  0.00    -0.206 NA
ATOM     11  C   UNL d   1      45.376 -12.581  43.719  0.00  0.00     0.185 A 
ATOM     12  N   UNL d   1      44.976 -12.150  43.146  0.00  0.00    -0.127 N 
ATOM     13  C   UNL d   1      45.698 -12.211  44.379  0.00  0.00     0.041 A 
ATOM     14  C   UNL d   1      46.102 -12.654  44.955  0.00  0.00     0.006 A 
ATOM     15  C   UNL d   1      46.178 -13.475  44.857  0.00  0.00     0.039 A 
ENDBRANCH   1   9
TORSDOF 5
ENDMDL
MODEL 2
REMARK VINA RESULT:       9.1      2.130      4.857
REMARK  5 active torsions:
REMARK  status: ('A' for Active; 'I' for Inactive)
REMARK    1  A    between atoms: C_3  and  N_1 
REMARK    2  A    between atoms: C_4  and  N_1 
REMARK    3  A    between atoms: N_7  and  C_3 
REMARK    4  A    between atoms: C_10  and  N_7 
REMARK    5  A    between atoms: C_8  and  C_10 
ROOT
ATOM      1  N   UNL d   1      46.133 -17.571  43.582  0.00  0.00    -0.198 NA
ENDROOT
BRANCH   1   2
ATOM      2  C   UNL d   1      46.021 -17.230  44.332  0.00  0.00     0.222 C 
ATOM      3  S   UNL d   1      45.851 -17.684  44.952  0.00  0.00    -0.037 SA
BRANCH   2   4
ATOM      4  N   UNL d   1      46.088 -16.440  44.419  0.00  0.00    -0.216 NA
BRANCH   4   5
ATOM      5  C   UNL d   1      45.461 -16.005  44.722  0.00  0.00     0.101 C 
BRANCH   5   6
ATOM      6  C   UNL d   1      45.516 -15.172  44.775  0.00  0.00     0.019 C 
ATOM      7  C   UNL d   1      44.844 -14.724  44.943  0.00  0.00     0.002 C 
ATOM      8  C   UNL d   1      46.243 -14.801  44.658  0.00  0.00     0.002 C 
ENDBRANCH   5   6
ENDBRANCH   4   5
ENDBRANCH   2   4
ENDBRANCH   1   2
BRANCH   1   9
ATOM      9  C   UNL d   1      46.304 -18.375  43.520  0.00  0.00     0.167 A 
ATOM     10  N   UNL d   1      46.328 -18.739  42.779  0.00  0.00    -0.206 NA
ATOM     11  C   UNL d   1      46.499 -19.543  42.717  0.00  0.00     0.185 A 
ATOM     12  N   UNL d   1      46.519 -19.892  41.974  0.00  0.00    -0.127 N 
ATOM     13  C   UNL d   1      46.647 -19.984  43.396  0.00  0.00     0.041 A 
ATOM     14  C   UNL d   1      46.625 -19.623  44.145  0.00  0.00     0.006 A 
ATOM     15  C   UNL d   1      46.452 -18.814  44.201  0.00  0.00     0.039 A 
ENDBRANCH   1   9
TORSDOF 5
ENDMDL
MODEL 3
REMARK VINA RESULT:      10.1      1.108      1.732
REMARK  5 active torsions:
REMARK  status: ('A' for Active; 'I' for Inactive)
REMARK    1  A    between atoms: C_3  and  N_1 
REMARK    2  A    between atoms: C_4  and  N_1 
REMARK    3  A    between atoms: N_7  and  C_3 
REMARK    4  A    between atoms: C_10  and  N_7 
REMARK    5  A    between atoms: C_8  and  C_10 
ROOT
ATOM      1  N   UNL d   1      46.180 -15.727  43.991  0.00  0.00    -0.198 NA
ENDROOT
BRANCH   1   2
ATOM      2  C   UNL d   1      46.010 -16.494  44.265  0.00  0.00     0.222 C 
ATOM      3  S   UNL d   1      45.632 -16.595  44.948  0.00  0.00    -0.037 SA
BRANCH   2   4
ATOM      4  N   UNL d   1      46.233 -17.126  43.831  0.00  0.00    -0.216 NA
BRANCH   4   5
ATOM      5  C   UNL d   1      46.100 -17.885  44.113  0.00  0.00     0.101 C 
BRANCH   5   6
ATOM      6  C   UNL d   1      46.342 -18.547  43.662  0.00  0.00     0.019 C 
ATOM      7  C   UNL d   1      46.281 -18.531  42.839  0.00  0.00     0.002 C 
ATOM      8  C   UNL d   1      46.641 -19.215  44.043  0.00  0.00     0.002 C 
ENDBRANCH   5   6
ENDBRANCH   4   5
ENDBRANCH   2   4
ENDBRANCH   1   2
BRANCH   1   9
ATOM      9  C   UNL d   1      45.782 -15.081  44.312  0.00  0.00     0.167 A 
ATOM     10  N   UNL d   1      46.138 -14.336  44.317  0.00  0.00    -0.206 NA
ATOM     11  C   UNL d   1      45.740 -13.689  44.638  0.00  0.00     0.185 A 
ATOM     12  N   UNL d   1      46.104 -12.953  44.637  0.00  0.00    -0.127 N 
ATOM     13  C   UNL d   1      44.987 -13.787  44.955  0.00  0.00     0.041 A 
ATOM     14  C   UNL d   1      44.624 -14.535  44.953  0.00  0.00     0.006 A 
ATOM     15  C   UNL d   1      45.029 -15.183  44.628  0.00  0.00     0.039 A 
ENDBRANCH   1   9
TORSDOF 5
ENDMDL
MODEL 4
REMARK VINA RESULT:      11.2      7.392      7.941
REMARK  5 active torsions:
REMARK  status: ('A' for Active; 'I' for Inactive)
REMARK    1  A    between atoms: C_3  and  N_1 
REMARK    2  A    between atoms: C_4  and  N_1 
REMARK    3  A    between atoms: N_7  and  C_3 
REMARK    4  A    between atoms: C_10  and  N_7 
REMARK    5  A    between atoms: C_8  and  C_10 
ROOT
ATOM      1  N   UNL d   1      44.795 -15.935  37.291  0.00  0.00    -0.198 NA
ENDROOT
BRANCH   1   2
ATOM      2  C   UNL d   1      44.207 -16.129  36.736  0.00  0.00     0.222 C 
ATOM      3  S   UNL d   1      44.250 -16.804  36.333  0.00  0.00    -0.037 SA
BRANCH   2   4
ATOM      4  N   UNL d   1      43.598 -15.627  36.615  0.00  0.00    -0.216 NA
BRANCH   4   5
ATOM      5  C   UNL d   1      42.826 -15.908  36.616  0.00  0.00     0.101 C 
BRANCH   5   6
ATOM      6  C   UNL d   1      42.203 -15.417  36.878  0.00  0.00     0.019 C 
ATOM      7  C   UNL d   1      41.742 -15.007  36.330  0.00  0.00     0.002 C 
ATOM      8  C   UNL d   1      42.050 -15.344  37.685  0.00  0.00     0.002 C 
ENDBRANCH   5   6
ENDBRANCH   4   5
ENDBRANCH   2   4
ENDBRANCH   1   2
BRANCH   1   9
ATOM      9  C   UNL d   1      45.385 -15.397  37.089  0.00  0.00     0.167 A 
ATOM     10  N   UNL d   1      45.397 -14.645  37.431  0.00  0.00    -0.206 NA
ATOM     11  C   UNL d   1      45.988 -14.107  37.229  0.00  0.00     0.185 A 
ATOM     12  N   UNL d   1      45.988 -13.363  37.576  0.00  0.00    -0.127 N 
ATOM     13  C   UNL d   1      46.567 -14.320  36.685  0.00  0.00     0.041 A 
ATOM     14  C   UNL d   1      46.561 -15.075  36.338  0.00  0.00     0.006 A 
ATOM     15  C   UNL d   1      45.964 -15.613  36.544  0.00  0.00     0.039 A 
ENDBRANCH   1   9
TORSDOF 5
ENDMDL
