MODEL 1
REMARK VINA RESULT:      38.9      0.000      0.000
REMARK  4 active torsions:
REMARK  status: ('A' for Active; 'I' for Inactive)
REMARK    1  A    between atoms: N_2  and  S_1 
REMARK    2  A    between atoms: C_6  and  S_1 
REMARK    3  A    between atoms: O_17  and  C_12 
REMARK    4  A    between atoms: C_19  and  O_17 
ROOT
ATOM      1  S   UNL d   1      58.646  49.563  51.020  0.00  0.00     0.271 S 
ATOM      2  O   UNL d   1      58.571  49.583  51.847  0.00  0.00    -0.200 OA
ATOM      3  O   UNL d   1      58.720  49.544  50.197  0.00  0.00    -0.200 OA
ENDROOT
BRANCH   1   4
ATOM      4  N   UNL d   1      57.820  49.613  50.944  0.00  0.00    -0.232 N 
ATOM      5  C   UNL d   1      57.277  49.660  51.566  0.00  0.00     0.075 A 
ATOM      6  C   UNL d   1      56.519  49.699  51.246  0.00  0.00     0.020 A 
ATOM      7  C   UNL d   1      57.467  49.666  52.371  0.00  0.00     0.020 C 
ATOM      8  C   UNL d   1      56.593  49.676  50.419  0.00  0.00     0.018 A 
ATOM      9  C   UNL d   1      57.396  49.623  50.239  0.00  0.00     0.075 A 
ATOM     10  C   UNL d   1      56.035  49.697  49.814  0.00  0.00     0.002 A 
ATOM     11  C   UNL d   1      57.642  49.590  49.448  0.00  0.00     0.018 A 
ATOM     12  C   UNL d   1      57.084  49.610  48.846  0.00  0.00     0.002 A 
ATOM     13  C   UNL d   1      56.282  49.664  49.023  0.00  0.00     0.000 A 
ENDBRANCH   1   4
BRANCH   1  14
ATOM     14  C   UNL d   1      59.467  49.515  51.095  0.00  0.00     0.104 A 
ATOM     15  C   UNL d   1      59.944  49.522  50.417  0.00  0.00     0.015 A 
ATOM     16  C   UNL d   1      60.761  49.474  50.492  0.00  0.00     0.025 A 
ATOM     17  C   UNL d   1      61.111  49.417  51.246  0.00  0.00     0.100 A 
ATOM     18  C   UNL d   1      60.627  49.410  51.918  0.00  0.00     0.025 A 
ATOM     19  C   UNL d   1      59.809  49.458  51.843  0.00  0.00     0.015 A 
BRANCH  17  20
ATOM     20  O   UNL d   1      61.928  49.368  51.321  0.00  0.00    -0.305 OA
BRANCH  20  21
ATOM     21  C   UNL d   1      62.263  49.153  52.038  0.00  0.00     0.123 C 
ATOM     22  C   UNL d   1      62.316  49.701  52.649  0.00  0.00     0.029 C 
ENDBRANCH  20  21
ENDBRANCH  17  20
ENDBRANCH   1  14
TORSDOF 4
ENDMDL
