MODEL 1
REMARK VINA RESULT:      24.1      0.000      0.000
REMARK  1 active torsions:
REMARK  status: ('A' for Active; 'I' for Inactive)
REMARK    1  A    between atoms: C_8  and  C_3 
ROOT
ATOM      1  C   UNL d   1      59.033  49.541  50.005  0.00  0.00     0.199 A 
ATOM      2  C   UNL d   1      58.561  49.604  51.262  0.00  0.00     0.199 A 
ATOM      3  C   UNL d   1      58.350  49.555  50.459  0.00  0.00     0.078 A 
ATOM      4  C   UNL d   1      59.689  49.581  50.501  0.00  0.00     0.042 A 
ATOM      5  C   UNL d   1      59.396  49.620  51.280  0.00  0.00     0.042 A 
ATOM      6  O   UNL d   1      58.026  49.632  51.923  0.00  0.00    -0.286 OA
ATOM      7  O   UNL d   1      59.065  49.494  49.155  0.00  0.00    -0.286 OA
ATOM      8  C   UNL d   1      59.912  49.665  51.922  0.00  0.00     0.003 A 
ATOM      9  C   UNL d   1      60.495  49.588  50.369  0.00  0.00     0.003 A 
ATOM     10  C   UNL d   1      60.731  49.672  51.779  0.00  0.00     0.000 A 
ATOM     11  C   UNL d   1      61.024  49.633  51.000  0.00  0.00     0.000 A 
ENDROOT
BRANCH   3  12
ATOM     12  C   UNL d   1      57.587  49.523  50.147  0.00  0.00     0.009 A 
ATOM     13  C   UNL d   1      56.940  49.664  50.639  0.00  0.00     0.021 A 
ATOM     14  C   UNL d   1      56.184  49.633  50.330  0.00  0.00     0.099 A 
ATOM     15  N   UNL d   1      56.035  49.466  49.545  0.00  0.00    -0.242 NA
ATOM     16  C   UNL d   1      56.708  49.325  49.056  0.00  0.00     0.099 A 
ATOM     17  C   UNL d   1      57.471  49.356  49.367  0.00  0.00     0.021 A 
ENDBRANCH   3  12
TORSDOF 1
ENDMDL
