MODEL 1
REMARK VINA RESULT:      -4.9      0.000      0.000
REMARK  5 active torsions:
REMARK  status: ('A' for Active; 'I' for Inactive)
REMARK    1  A    between atoms: N_6  and  C_1 
REMARK    2  A    between atoms: S_10  and  C_4 
REMARK       I    between atoms: C_7  and  N_6 
REMARK       I    between atoms: N_8  and  C_7 
REMARK    3  A    between atoms: C_11  and  N_8 
REMARK    4  A    between atoms: C_18  and  S_10 
REMARK    5  A    between atoms: C_19  and  C_18 
ROOT
ATOM      1  N   UNL d   1      57.535   0.069  31.134  0.00  0.00    -0.321 NA
ATOM      2  C   UNL d   1      57.406   0.053  31.829  0.00  0.00     0.422 C 
ATOM      3  N   UNL d   1      57.270   0.035  32.693  0.00  0.00    -0.180 NA
ATOM      4  O   UNL d   1      56.715   0.026  31.719  0.00  0.00    -0.228 OA
ENDROOT
BRANCH   1   5
ATOM      5  C   UNL d   1      57.864   0.095  30.328  0.00  0.00     0.271 A 
ATOM      6  S   UNL d   1      58.378  -0.232  29.972  0.00  0.00    -0.006 SA
ATOM      7  C   UNL d   1      58.489  -0.057  29.290  0.00  0.00     0.166 A 
ATOM      8  N   UNL d   1      58.089   0.435  28.978  0.00  0.00    -0.132 NA
ATOM      9  N   UNL d   1      57.464   0.587  30.015  0.00  0.00    -0.107 NA
BRANCH   7  10
ATOM     10  S   UNL d   1      58.975  -0.311  28.818  0.00  0.00    -0.059 SA
BRANCH  10  11
ATOM     11  C   UNL d   1      59.774  -0.308  29.010  0.00  0.00     0.037 C 
BRANCH  11  12
ATOM     12  C   UNL d   1      60.328  -0.549  28.455  0.00  0.00     0.007 C 
ATOM     13  C   UNL d   1      61.129  -0.528  28.632  0.00  0.00     0.001 C 
ENDBRANCH  11  12
ENDBRANCH  10  11
ENDBRANCH   7  10
ENDBRANCH   1   5
BRANCH   3  14
ATOM     14  C   UNL d   1      56.493  -0.002  32.985  0.00  0.00     0.087 A 
ATOM     15  C   UNL d   1      56.131   0.682  33.274  0.00  0.00     0.022 A 
ATOM     16  C   UNL d   1      55.359   0.634  33.560  0.00  0.00     0.031 A 
ATOM     17  C   UNL d   1      54.950  -0.082  33.561  0.00  0.00     0.140 A 
ATOM     18  C   UNL d   1      55.317  -0.762  33.271  0.00  0.00     0.031 A 
ATOM     19  F   UNL d   1      54.172  -0.119  33.853  0.00  0.00    -0.204 F 
ATOM     20  C   UNL d   1      56.089  -0.722  32.983  0.00  0.00     0.022 A 
ENDBRANCH   3  14
TORSDOF 5
ENDMDL
MODEL 2
REMARK VINA RESULT:      -4.8      2.644      5.253
REMARK  5 active torsions:
REMARK  status: ('A' for Active; 'I' for Inactive)
REMARK    1  A    between atoms: N_6  and  C_1 
REMARK    2  A    between atoms: S_10  and  C_4 
REMARK       I    between atoms: C_7  and  N_6 
REMARK       I    between atoms: N_8  and  C_7 
REMARK    3  A    between atoms: C_11  and  N_8 
REMARK    4  A    between atoms: C_18  and  S_10 
REMARK    5  A    between atoms: C_19  and  C_18 
ROOT
ATOM      1  N   UNL d   1      57.807  -0.698  30.432  0.00  0.00    -0.321 NA
ATOM      2  C   UNL d   1      58.135  -0.873  29.831  0.00  0.00     0.422 C 
ATOM      3  N   UNL d   1      58.532  -1.070  29.076  0.00  0.00    -0.180 NA
ATOM      4  O   UNL d   1      58.390  -1.459  30.118  0.00  0.00    -0.228 OA
ENDROOT
BRANCH   1   5
ATOM      5  C   UNL d   1      57.350  -0.341  31.081  0.00  0.00     0.271 A 
ATOM      6  S   UNL d   1      57.071  -0.556  31.693  0.00  0.00    -0.006 SA
ATOM      7  C   UNL d   1      56.719  -0.085  32.095  0.00  0.00     0.166 A 
ATOM      8  N   UNL d   1      56.652   0.586  31.884  0.00  0.00    -0.132 NA
ATOM      9  N   UNL d   1      57.283   0.331  30.870  0.00  0.00    -0.107 NA
BRANCH   7  10
ATOM     10  S   UNL d   1      56.390  -0.173  32.734  0.00  0.00    -0.059 SA
BRANCH  10  11
ATOM     11  C   UNL d   1      55.705   0.246  32.903  0.00  0.00     0.037 C 
BRANCH  11  12
ATOM     12  C   UNL d   1      55.245   0.033  33.549  0.00  0.00     0.007 C 
ATOM     13  C   UNL d   1      54.769   0.588  33.921  0.00  0.00     0.001 C 
ENDBRANCH  11  12
ENDBRANCH  10  11
ENDBRANCH   7  10
ENDBRANCH   1   5
BRANCH   3  14
ATOM     14  C   UNL d   1      58.980  -1.767  29.019  0.00  0.00     0.087 A 
ATOM     15  C   UNL d   1      58.600  -2.490  28.896  0.00  0.00     0.022 A 
ATOM     16  C   UNL d   1      59.056  -3.176  28.841  0.00  0.00     0.031 A 
ATOM     17  C   UNL d   1      59.878  -3.146  28.908  0.00  0.00     0.140 A 
ATOM     18  C   UNL d   1      60.251  -2.421  29.031  0.00  0.00     0.031 A 
ATOM     19  F   UNL d   1      60.327  -3.843  28.851  0.00  0.00    -0.204 F 
ATOM     20  C   UNL d   1      59.802  -1.731  29.087  0.00  0.00     0.022 A 
ENDBRANCH   3  14
TORSDOF 5
ENDMDL
MODEL 3
REMARK VINA RESULT:      -3.6      1.787      2.126
REMARK  5 active torsions:
REMARK  status: ('A' for Active; 'I' for Inactive)
REMARK    1  A    between atoms: N_6  and  C_1 
REMARK    2  A    between atoms: S_10  and  C_4 
REMARK       I    between atoms: C_7  and  N_6 
REMARK       I    between atoms: N_8  and  C_7 
REMARK    3  A    between atoms: C_11  and  N_8 
REMARK    4  A    between atoms: C_18  and  S_10 
REMARK    5  A    between atoms: C_19  and  C_18 
ROOT
ATOM      1  N   UNL d   1      58.118  -0.744  30.090  0.00  0.00    -0.321 NA
ATOM      2  C   UNL d   1      57.786  -0.221  30.431  0.00  0.00     0.422 C 
ATOM      3  N   UNL d   1      57.375   0.440  30.831  0.00  0.00    -0.180 NA
ATOM      4  O   UNL d   1      57.782  -0.587  31.028  0.00  0.00    -0.228 OA
ENDROOT
BRANCH   1   5
ATOM      5  C   UNL d   1      58.517  -1.280  29.532  0.00  0.00     0.271 A 
ATOM      6  S   UNL d   1      59.168  -1.541  29.446  0.00  0.00    -0.006 SA
ATOM      7  C   UNL d   1      59.291  -1.983  28.901  0.00  0.00     0.166 A 
ATOM      8  N   UNL d   1      58.770  -2.157  28.456  0.00  0.00    -0.132 NA
ATOM      9  N   UNL d   1      57.996  -1.454  29.087  0.00  0.00    -0.107 NA
BRANCH   7  10
ATOM     10  S   UNL d   1      59.902  -2.316  28.701  0.00  0.00    -0.059 SA
BRANCH  10  11
ATOM     11  C   UNL d   1      60.006  -3.114  28.862  0.00  0.00     0.037 C 
BRANCH  11  12
ATOM     12  C   UNL d   1      60.691  -3.495  28.618  0.00  0.00     0.007 C 
ATOM     13  C   UNL d   1      61.127  -3.944  29.147  0.00  0.00     0.001 C 
ENDBRANCH  11  12
ENDBRANCH  10  11
ENDBRANCH   7  10
ENDBRANCH   1   5
BRANCH   3  14
ATOM     14  C   UNL d   1      57.179   0.371  31.636  0.00  0.00     0.087 A 
ATOM     15  C   UNL d   1      57.690   0.675  32.209  0.00  0.00     0.022 A 
ATOM     16  C   UNL d   1      57.485   0.602  33.005  0.00  0.00     0.031 A 
ATOM     17  C   UNL d   1      56.782   0.233  33.231  0.00  0.00     0.140 A 
ATOM     18  C   UNL d   1      56.277  -0.069  32.652  0.00  0.00     0.031 A 
ATOM     19  F   UNL d   1      56.586   0.164  34.035  0.00  0.00    -0.204 F 
ATOM     20  C   UNL d   1      56.475   0.001  31.855  0.00  0.00     0.022 A 
ENDBRANCH   3  14
TORSDOF 5
ENDMDL
