MODEL 1
REMARK VINA RESULT:      -9.4      0.000      0.000
REMARK  6 active torsions:
REMARK  status: ('A' for Active; 'I' for Inactive)
REMARK    1  A    between atoms: C_4  and  S_1 
REMARK    2  A    between atoms: C_5  and  S_1 
REMARK    3  A    between atoms: C_2  and  N_7 
REMARK    4  A    between atoms: N_3  and  C_2 
REMARK    5  A    between atoms: C_8  and  N_6 
REMARK    6  A    between atoms: N_7  and  C_14 
ROOT
ATOM      1  C   UNL d   1      52.108  33.621  53.016  0.00  0.00     0.206 C 
ATOM      2  S   UNL d   1      52.437  33.937  53.705  0.00  0.00    -0.038 SA
ENDROOT
BRANCH   1   3
ATOM      3  N   UNL d   1      52.503  33.025  52.605  0.00  0.00    -0.218 NA
BRANCH   3   4
ATOM      4  C   UNL d   1      53.029  32.530  53.003  0.00  0.00     0.085 A 
ATOM      5  C   UNL d   1      52.867  31.724  53.068  0.00  0.00     0.031 A 
ATOM      6  C   UNL d   1      53.389  31.227  53.465  0.00  0.00     0.094 A 
ATOM      7  C   UNL d   1      54.082  31.540  53.801  0.00  0.00     0.012 A 
ATOM      8  C   UNL d   1      54.244  32.346  53.737  0.00  0.00     0.002 A 
ATOM      9  C   UNL d   1      53.715  32.840  53.336  0.00  0.00     0.019 A 
BRANCH   6  10
ATOM     10  S   UNL d   1      53.229  30.414  53.532  0.00  0.00     0.262 S 
ATOM     11  O   UNL d   1      53.130  30.371  52.715  0.00  0.00    -0.213 OA
ATOM     12  O   UNL d   1      53.332  30.472  54.353  0.00  0.00    -0.213 OA
BRANCH  10  13
ATOM     13  C   UNL d   1      53.070  29.607  53.603  0.00  0.00     0.364 C 
ATOM     14  F   UNL d   1      53.340  29.188  54.263  0.00  0.00    -0.159 F 
ATOM     15  F   UNL d   1      52.640  29.215  53.012  0.00  0.00    -0.159 F 
ENDBRANCH  10  13
ENDBRANCH   6  10
ENDBRANCH   3   4
ENDBRANCH   1   3
BRANCH   1  16
ATOM     16  N   UNL d   1      51.381  33.904  52.738  0.00  0.00    -0.278 N 
ATOM     17  C   UNL d   1      50.729  33.933  53.245  0.00  0.00     0.101 A 
ATOM     18  C   UNL d   1      50.010  34.215  52.966  0.00  0.00     0.100 A 
ATOM     19  N   UNL d   1      49.930  34.467  52.189  0.00  0.00    -0.301 N 
ATOM     20  C   UNL d   1      50.578  34.441  51.675  0.00  0.00     0.100 A 
ATOM     21  C   UNL d   1      51.308  34.156  51.956  0.00  0.00     0.101 A 
BRANCH  19  22
ATOM     22  C   UNL d   1      49.197  34.752  51.911  0.00  0.00     0.065 A 
ATOM     23  C   UNL d   1      48.758  35.281  52.369  0.00  0.00     0.029 A 
ATOM     24  C   UNL d   1      48.033  35.563  52.095  0.00  0.00     0.059 A 
ATOM     25 CL   UNL d   1      47.594  36.092  52.553  0.00  0.00    -0.082 Cl
ATOM     26  C   UNL d   1      47.747  35.315  51.361  0.00  0.00     0.011 A 
ATOM     27  C   UNL d   1      48.186  34.786  50.903  0.00  0.00     0.002 A 
ATOM     28  C   UNL d   1      48.911  34.504  51.178  0.00  0.00     0.018 A 
ENDBRANCH  19  22
ENDBRANCH   1  16
TORSDOF 6
ENDMDL
MODEL 2
REMARK VINA RESULT:      -9.0      1.832      2.142
REMARK  6 active torsions:
REMARK  status: ('A' for Active; 'I' for Inactive)
REMARK    1  A    between atoms: C_4  and  S_1 
REMARK    2  A    between atoms: C_5  and  S_1 
REMARK    3  A    between atoms: C_2  and  N_7 
REMARK    4  A    between atoms: N_3  and  C_2 
REMARK    5  A    between atoms: C_8  and  N_6 
REMARK    6  A    between atoms: N_7  and  C_14 
ROOT
ATOM      1  C   UNL d   1      51.546  33.902  52.758  0.00  0.00     0.206 C 
ATOM      2  S   UNL d   1      52.180  34.079  52.258  0.00  0.00    -0.038 SA
ENDROOT
BRANCH   1   3
ATOM      3  N   UNL d   1      51.654  33.392  53.398  0.00  0.00    -0.218 NA
BRANCH   3   4
ATOM      4  C   UNL d   1      52.356  32.966  53.470  0.00  0.00     0.085 A 
ATOM      5  C   UNL d   1      52.943  33.225  53.989  0.00  0.00     0.031 A 
ATOM      6  C   UNL d   1      53.645  32.802  54.063  0.00  0.00     0.094 A 
ATOM      7  C   UNL d   1      53.761  32.112  53.614  0.00  0.00     0.012 A 
ATOM      8  C   UNL d   1      53.174  31.853  53.096  0.00  0.00     0.002 A 
ATOM      9  C   UNL d   1      52.471  32.283  53.025  0.00  0.00     0.019 A 
BRANCH   6  10
ATOM     10  S   UNL d   1      54.239  33.060  54.585  0.00  0.00     0.262 S 
ATOM     11  O   UNL d   1      53.716  32.972  55.216  0.00  0.00    -0.213 OA
ATOM     12  O   UNL d   1      54.754  33.144  53.940  0.00  0.00    -0.213 OA
BRANCH  10  13
ATOM     13  C   UNL d   1      54.831  33.317  55.099  0.00  0.00     0.364 C 
ATOM     14  F   UNL d   1      54.824  33.081  55.892  0.00  0.00    -0.159 F 
ATOM     15  F   UNL d   1      55.435  33.812  54.820  0.00  0.00    -0.159 F 
ENDBRANCH  10  13
ENDBRANCH   6  10
ENDBRANCH   3   4
ENDBRANCH   1   3
BRANCH   1  16
ATOM     16  N   UNL d   1      50.802  34.237  52.616  0.00  0.00    -0.278 N 
ATOM     17  C   UNL d   1      50.399  34.620  53.228  0.00  0.00     0.101 A 
ATOM     18  C   UNL d   1      49.662  34.951  53.083  0.00  0.00     0.100 A 
ATOM     19  N   UNL d   1      49.320  34.907  52.338  0.00  0.00    -0.301 N 
ATOM     20  C   UNL d   1      49.717  34.526  51.721  0.00  0.00     0.100 A 
ATOM     21  C   UNL d   1      50.464  34.190  51.865  0.00  0.00     0.101 A 
BRANCH  19  22
ATOM     22  C   UNL d   1      48.571  35.246  52.197  0.00  0.00     0.065 A 
ATOM     23  C   UNL d   1      48.266  35.809  52.719  0.00  0.00     0.029 A 
ATOM     24  C   UNL d   1      47.525  36.144  52.580  0.00  0.00     0.059 A 
ATOM     25 CL   UNL d   1      47.220  36.707  53.102  0.00  0.00    -0.082 Cl
ATOM     26  C   UNL d   1      47.089  35.915  51.918  0.00  0.00     0.011 A 
ATOM     27  C   UNL d   1      47.394  35.353  51.395  0.00  0.00     0.002 A 
ATOM     28  C   UNL d   1      48.135  35.017  51.534  0.00  0.00     0.018 A 
ENDBRANCH  19  22
ENDBRANCH   1  16
TORSDOF 6
ENDMDL
MODEL 3
REMARK VINA RESULT:      -8.2      4.047      6.246
REMARK  6 active torsions:
REMARK  status: ('A' for Active; 'I' for Inactive)
REMARK    1  A    between atoms: C_4  and  S_1 
REMARK    2  A    between atoms: C_5  and  S_1 
REMARK    3  A    between atoms: C_2  and  N_7 
REMARK    4  A    between atoms: N_3  and  C_2 
REMARK    5  A    between atoms: C_8  and  N_6 
REMARK    6  A    between atoms: N_7  and  C_14 
ROOT
ATOM      1  C   UNL d   1      49.891  34.572  52.571  0.00  0.00     0.206 C 
ATOM      2  S   UNL d   1      49.423  34.271  51.959  0.00  0.00    -0.038 SA
ENDROOT
BRANCH   1   3
ATOM      3  N   UNL d   1      49.668  35.264  52.960  0.00  0.00    -0.218 NA
BRANCH   3   4
ATOM      4  C   UNL d   1      48.895  35.545  52.889  0.00  0.00     0.085 A 
ATOM      5  C   UNL d   1      48.468  35.747  53.565  0.00  0.00     0.031 A 
ATOM      6  C   UNL d   1      47.697  36.027  53.498  0.00  0.00     0.094 A 
ATOM      7  C   UNL d   1      47.350  36.106  52.747  0.00  0.00     0.012 A 
ATOM      8  C   UNL d   1      47.778  35.904  52.071  0.00  0.00     0.002 A 
ATOM      9  C   UNL d   1      48.552  35.623  52.145  0.00  0.00     0.019 A 
BRANCH   6  10
ATOM     10  S   UNL d   1      47.263  36.232  54.177  0.00  0.00     0.262 S 
ATOM     11  O   UNL d   1      47.887  36.709  54.426  0.00  0.00    -0.213 OA
ATOM     12  O   UNL d   1      46.643  35.748  53.913  0.00  0.00    -0.213 OA
BRANCH  10  13
ATOM     13  C   UNL d   1      46.828  36.433  54.849  0.00  0.00     0.364 C 
ATOM     14  F   UNL d   1      46.002  36.451  54.819  0.00  0.00    -0.159 F 
ATOM     15  F   UNL d   1      47.221  36.617  55.557  0.00  0.00    -0.159 F 
ENDBRANCH  10  13
ENDBRANCH   6  10
ENDBRANCH   3   4
ENDBRANCH   1   3
BRANCH   1  16
ATOM     16  N   UNL d   1      50.584  34.176  52.794  0.00  0.00    -0.278 N 
ATOM     17  C   UNL d   1      50.537  33.472  53.224  0.00  0.00     0.101 A 
ATOM     18  C   UNL d   1      51.226  33.084  53.443  0.00  0.00     0.100 A 
ATOM     19  N   UNL d   1      51.962  33.386  53.239  0.00  0.00    -0.301 N 
ATOM     20  C   UNL d   1      52.017  34.089  52.808  0.00  0.00     0.100 A 
ATOM     21  C   UNL d   1      51.320  34.485  52.586  0.00  0.00     0.101 A 
BRANCH  19  22
ATOM     22  C   UNL d   1      52.659  32.986  53.464  0.00  0.00     0.065 A 
ATOM     23  C   UNL d   1      53.131  33.286  54.072  0.00  0.00     0.029 A 
ATOM     24  C   UNL d   1      53.820  32.891  54.295  0.00  0.00     0.059 A 
ATOM     25 CL   UNL d   1      54.292  33.192  54.902  0.00  0.00    -0.082 Cl
ATOM     26  C   UNL d   1      54.037  32.195  53.908  0.00  0.00     0.011 A 
ATOM     27  C   UNL d   1      53.565  31.894  53.301  0.00  0.00     0.002 A 
ATOM     28  C   UNL d   1      52.876  32.289  53.078  0.00  0.00     0.018 A 
ENDBRANCH  19  22
ENDBRANCH   1  16
TORSDOF 6
ENDMDL
