MODEL 1
REMARK VINA RESULT:      22.6      0.000      0.000
REMARK  4 active torsions:
REMARK  status: ('A' for Active; 'I' for Inactive)
REMARK    1  A    between atoms: C_2  and  C_1 
REMARK    2  A    between atoms: C_6  and  C_2 
REMARK    3  A    between atoms: C_9  and  C_6 
REMARK    4  A    between atoms: O_18  and  C_12 
ROOT
ATOM      1  C   UNL d   1      14.791  12.697  -0.631  0.00  0.00     0.199 C 
ATOM      2  O   UNL d   1      14.356  12.470  -0.015  0.00  0.00    -0.286 OA
ENDROOT
BRANCH   1   3
ATOM      3  C   UNL d   1      14.439  12.470  -1.435  0.00  0.00     0.078 A 
ATOM      4  C   UNL d   1      13.750  12.015  -1.423  0.00  0.00     0.202 A 
ATOM      5  C   UNL d   1      13.390  11.782  -2.192  0.00  0.00     0.084 A 
ATOM      6  O   UNL d   1      13.409  11.785  -0.711  0.00  0.00    -0.286 OA
ATOM      7  C   UNL d   1      13.751  12.026  -2.916  0.00  0.00     0.199 A 
ATOM      8  C   UNL d   1      14.433  12.476  -2.895  0.00  0.00     0.042 A 
ATOM      9  O   UNL d   1      13.389  11.792  -3.655  0.00  0.00    -0.286 OA
ATOM     10  C   UNL d   1      14.791  12.707  -2.143  0.00  0.00     0.010 A 
ENDBRANCH   1   3
BRANCH   1  11
ATOM     11  C   UNL d   1      15.419  13.054  -0.601  0.00  0.00     0.042 C 
BRANCH  11  12
ATOM     12  C   UNL d   1      15.412  13.847  -0.469  0.00  0.00     0.003 A 
ATOM     13  C   UNL d   1      16.100  14.247  -0.366  0.00  0.00     0.002 A 
ATOM     14  C   UNL d   1      16.095  15.080  -0.227  0.00  0.00     0.024 A 
ATOM     15  C   UNL d   1      15.393  15.503  -0.193  0.00  0.00     0.094 A 
ATOM     16  C   UNL d   1      14.696  15.103  -0.297  0.00  0.00     0.024 A 
ATOM     17  C   UNL d   1      14.683  14.293  -0.433  0.00  0.00     0.002 A 
BRANCH  15  18
ATOM     18  O   UNL d   1      15.386  16.345  -0.052  0.00  0.00    -0.328 OA
ATOM     19  C   UNL d   1      15.245  16.871  -0.667  0.00  0.00     0.181 C 
ENDBRANCH  15  18
ENDBRANCH  11  12
ENDBRANCH   1  11
TORSDOF 4
ENDMDL
MODEL 2
REMARK VINA RESULT:      24.3      1.522      2.656
REMARK  4 active torsions:
REMARK  status: ('A' for Active; 'I' for Inactive)
REMARK    1  A    between atoms: C_2  and  C_1 
REMARK    2  A    between atoms: C_6  and  C_2 
REMARK    3  A    between atoms: C_9  and  C_6 
REMARK    4  A    between atoms: O_18  and  C_12 
ROOT
ATOM      1  C   UNL d   1      13.481  12.534  -2.834  0.00  0.00     0.199 C 
ATOM      2  O   UNL d   1      13.412  11.847  -2.455  0.00  0.00    -0.286 OA
ENDROOT
BRANCH   1   3
ATOM      3  C   UNL d   1      13.356  12.476  -3.730  0.00  0.00     0.078 A 
ATOM      4  C   UNL d   1      12.998  13.122  -4.098  0.00  0.00     0.202 A 
ATOM      5  C   UNL d   1      12.867  13.087  -4.968  0.00  0.00     0.084 A 
ATOM      6  O   UNL d   1      12.770  13.781  -3.663  0.00  0.00    -0.286 OA
ATOM      7  C   UNL d   1      13.106  12.403  -5.402  0.00  0.00     0.199 A 
ATOM      8  C   UNL d   1      13.458  11.779  -5.009  0.00  0.00     0.042 A 
ATOM      9  O   UNL d   1      12.972  12.384  -6.246  0.00  0.00    -0.286 OA
ATOM     10  C   UNL d   1      13.590  11.808  -4.155  0.00  0.00     0.010 A 
ENDBRANCH   1   3
BRANCH   1  11
ATOM     11  C   UNL d   1      13.630  13.174  -2.532  0.00  0.00     0.042 C 
BRANCH  11  12
ATOM     12  C   UNL d   1      14.165  13.210  -1.933  0.00  0.00     0.003 A 
ATOM     13  C   UNL d   1      14.228  12.607  -1.408  0.00  0.00     0.002 A 
ATOM     14  C   UNL d   1      14.790  12.643  -0.779  0.00  0.00     0.024 A 
ATOM     15  C   UNL d   1      15.284  13.290  -0.685  0.00  0.00     0.094 A 
ATOM     16  C   UNL d   1      15.224  13.902  -1.214  0.00  0.00     0.024 A 
ATOM     17  C   UNL d   1      14.684  13.883  -1.831  0.00  0.00     0.002 A 
BRANCH  15  18
ATOM     18  O   UNL d   1      15.854  13.329  -0.050  0.00  0.00    -0.328 OA
ATOM     19  C   UNL d   1      16.406  13.936  -0.018  0.00  0.00     0.181 C 
ENDBRANCH  15  18
ENDBRANCH  11  12
ENDBRANCH   1  11
TORSDOF 4
ENDMDL
