MODEL 1
REMARK VINA RESULT:     -10.2      0.000      0.000
REMARK  6 active torsions:
REMARK  status: ('A' for Active; 'I' for Inactive)
REMARK    1  A    between atoms: C_16  and  C_2 
REMARK    2  A    between atoms: C_11  and  C_7 
REMARK    3  A    between atoms: S_17  and  C_9 
REMARK    4  A    between atoms: O_20  and  C_11 
REMARK    5  A    between atoms: C_13  and  C_19 
REMARK    6  A    between atoms: C_19  and  S_17 
ROOT
ATOM      1  N   UNL d   1      52.954  34.320  54.093  0.00  0.00    -0.191 N 
ATOM      2  C   UNL d   1      52.424  34.821  53.719  0.00  0.00     0.187 A 
ATOM      3  N   UNL d   1      52.582  35.586  53.971  0.00  0.00    -0.127 NA
ATOM      4  C   UNL d   1      53.444  34.761  54.579  0.00  0.00     0.187 A 
ATOM      5  N   UNL d   1      53.055  33.488  54.053  0.00  0.00    -0.156 NA
ATOM      6  N   UNL d   1      53.212  35.557  54.504  0.00  0.00    -0.127 NA
ATOM      7  C   UNL d   1      53.645  33.121  54.498  0.00  0.00     0.131 A 
ATOM      8  C   UNL d   1      54.034  34.393  55.025  0.00  0.00     0.043 A 
ATOM      9  C   UNL d   1      54.134  33.574  54.985  0.00  0.00     0.031 A 
ENDROOT
BRANCH   7  10
ATOM     10  S   UNL d   1      53.745  32.302  54.458  0.00  0.00    -0.064 SA
BRANCH  10  11
ATOM     11  C   UNL d   1      53.852  31.937  53.728  0.00  0.00     0.062 C 
BRANCH  11  12
ATOM     12  C   UNL d   1      53.553  31.187  53.602  0.00  0.00     0.107 A 
ATOM     13  O   UNL d   1      53.621  30.549  54.115  0.00  0.00    -0.301 OA
ATOM     14  C   UNL d   1      53.247  29.903  53.781  0.00  0.00     0.163 A 
ATOM     15  C   UNL d   1      52.938  30.135  53.046  0.00  0.00     0.032 A 
ATOM     16  C   UNL d   1      53.130  30.930  52.940  0.00  0.00     0.027 A 
BRANCH  14  17
ATOM     17  C   UNL d   1      53.180  29.151  54.104  0.00  0.00     0.319 C 
ATOM     18  O   UNL d   1      52.950  28.502  53.641  0.00  0.00    -0.257 OA
BRANCH  17  19
ATOM     19  O   UNL d   1      53.345  29.032  54.903  0.00  0.00    -0.294 OA
ATOM     20  C   UNL d   1      53.389  28.269  55.220  0.00  0.00     0.185 C 
ENDBRANCH  17  19
ENDBRANCH  14  17
ENDBRANCH  11  12
ENDBRANCH  10  11
ENDBRANCH   7  10
BRANCH   2  21
ATOM     21  C   UNL d   1      51.839  34.606  53.187  0.00  0.00     0.038 A 
ATOM     22  C   UNL d   1      51.068  34.479  53.461  0.00  0.00     0.003 A 
ATOM     23  C   UNL d   1      50.473  34.261  52.927  0.00  0.00     0.000 A 
ATOM     24  C   UNL d   1      50.653  34.173  52.127  0.00  0.00     0.000 A 
ATOM     25  C   UNL d   1      51.424  34.301  51.853  0.00  0.00     0.000 A 
ATOM     26  C   UNL d   1      52.013  34.518  52.392  0.00  0.00     0.003 A 
ENDBRANCH   2  21
TORSDOF 6
ENDMDL
MODEL 2
REMARK VINA RESULT:      -9.4      2.712      4.882
REMARK  6 active torsions:
REMARK  status: ('A' for Active; 'I' for Inactive)
REMARK    1  A    between atoms: C_16  and  C_2 
REMARK    2  A    between atoms: C_11  and  C_7 
REMARK    3  A    between atoms: S_17  and  C_9 
REMARK    4  A    between atoms: O_20  and  C_11 
REMARK    5  A    between atoms: C_13  and  C_19 
REMARK    6  A    between atoms: C_19  and  S_17 
ROOT
ATOM      1  N   UNL d   1      53.433  33.421  54.195  0.00  0.00    -0.191 N 
ATOM      2  C   UNL d   1      53.859  32.741  54.364  0.00  0.00     0.187 A 
ATOM      3  N   UNL d   1      54.438  32.938  54.910  0.00  0.00    -0.127 NA
ATOM      4  C   UNL d   1      53.737  34.045  54.629  0.00  0.00     0.187 A 
ATOM      5  N   UNL d   1      52.782  33.556  53.683  0.00  0.00    -0.156 NA
ATOM      6  N   UNL d   1      54.370  33.744  55.080  0.00  0.00    -0.127 NA
ATOM      7  C   UNL d   1      52.455  34.311  53.619  0.00  0.00     0.131 A 
ATOM      8  C   UNL d   1      53.410  34.800  54.566  0.00  0.00     0.043 A 
ATOM      9  C   UNL d   1      52.770  34.933  54.061  0.00  0.00     0.031 A 
ENDROOT
BRANCH   7  10
ATOM     10  S   UNL d   1      51.815  34.444  53.114  0.00  0.00    -0.064 SA
BRANCH  10  11
ATOM     11  C   UNL d   1      51.064  34.183  53.327  0.00  0.00     0.062 C 
BRANCH  11  12
ATOM     12  C   UNL d   1      50.418  34.388  52.870  0.00  0.00     0.107 A 
ATOM     13  O   UNL d   1      49.796  34.869  53.104  0.00  0.00    -0.301 OA
ATOM     14  C   UNL d   1      49.267  34.934  52.483  0.00  0.00     0.163 A 
ATOM     15  C   UNL d   1      49.560  34.488  51.847  0.00  0.00     0.032 A 
ATOM     16  C   UNL d   1      50.272  34.152  52.091  0.00  0.00     0.027 A 
BRANCH  14  17
ATOM     17  C   UNL d   1      48.566  35.362  52.476  0.00  0.00     0.319 C 
ATOM     18  O   UNL d   1      48.065  35.359  51.814  0.00  0.00    -0.257 OA
BRANCH  17  19
ATOM     19  O   UNL d   1      48.350  35.806  53.137  0.00  0.00    -0.294 OA
ATOM     20  C   UNL d   1      47.684  36.298  53.120  0.00  0.00     0.185 C 
ENDBRANCH  17  19
ENDBRANCH  14  17
ENDBRANCH  11  12
ENDBRANCH  10  11
ENDBRANCH   7  10
BRANCH   2  21
ATOM     21  C   UNL d   1      53.735  31.995  54.049  0.00  0.00     0.038 A 
ATOM     22  C   UNL d   1      53.310  31.435  54.485  0.00  0.00     0.003 A 
ATOM     23  C   UNL d   1      53.182  30.679  54.171  0.00  0.00     0.000 A 
ATOM     24  C   UNL d   1      53.481  30.491  53.425  0.00  0.00     0.000 A 
ATOM     25  C   UNL d   1      53.906  31.051  52.989  0.00  0.00     0.000 A 
ATOM     26  C   UNL d   1      54.029  31.803  53.309  0.00  0.00     0.003 A 
ENDBRANCH   2  21
TORSDOF 6
ENDMDL
MODEL 3
REMARK VINA RESULT:      -9.4      2.806      5.208
REMARK  6 active torsions:
REMARK  status: ('A' for Active; 'I' for Inactive)
REMARK    1  A    between atoms: C_16  and  C_2 
REMARK    2  A    between atoms: C_11  and  C_7 
REMARK    3  A    between atoms: S_17  and  C_9 
REMARK    4  A    between atoms: O_20  and  C_11 
REMARK    5  A    between atoms: C_13  and  C_19 
REMARK    6  A    between atoms: C_19  and  S_17 
ROOT
ATOM      1  N   UNL d   1      53.165  32.252  53.608  0.00  0.00    -0.191 N 
ATOM      2  C   UNL d   1      53.918  32.190  53.927  0.00  0.00     0.187 A 
ATOM      3  N   UNL d   1      54.220  31.457  53.715  0.00  0.00    -0.127 NA
ATOM      4  C   UNL d   1      52.990  31.567  53.196  0.00  0.00     0.187 A 
ATOM      5  N   UNL d   1      52.597  32.869  53.641  0.00  0.00    -0.156 NA
ATOM      6  N   UNL d   1      53.652  31.065  53.261  0.00  0.00    -0.127 NA
ATOM      7  C   UNL d   1      51.870  32.782  53.261  0.00  0.00     0.131 A 
ATOM      8  C   UNL d   1      52.263  31.480  52.816  0.00  0.00     0.043 A 
ATOM      9  C   UNL d   1      51.703  32.087  52.848  0.00  0.00     0.031 A 
ENDROOT
BRANCH   7  10
ATOM     10  S   UNL d   1      51.310  33.389  53.294  0.00  0.00    -0.064 SA
BRANCH  10  11
ATOM     11  C   UNL d   1      51.151  33.836  52.621  0.00  0.00     0.062 C 
BRANCH  11  12
ATOM     12  C   UNL d   1      50.454  34.260  52.572  0.00  0.00     0.107 A 
ATOM     13  O   UNL d   1      49.938  34.267  51.933  0.00  0.00    -0.301 OA
ATOM     14  C   UNL d   1      49.310  34.762  52.110  0.00  0.00     0.163 A 
ATOM     15  C   UNL d   1      49.430  35.071  52.870  0.00  0.00     0.032 A 
ATOM     16  C   UNL d   1      50.139  34.758  53.153  0.00  0.00     0.027 A 
BRANCH  14  17
ATOM     17  C   UNL d   1      48.666  34.931  51.628  0.00  0.00     0.319 C 
ATOM     18  O   UNL d   1      48.604  34.612  50.864  0.00  0.00    -0.257 OA
BRANCH  17  19
ATOM     19  O   UNL d   1      48.068  35.427  51.903  0.00  0.00    -0.294 OA
ATOM     20  C   UNL d   1      47.395  35.578  51.444  0.00  0.00     0.185 C 
ENDBRANCH  17  19
ENDBRANCH  14  17
ENDBRANCH  11  12
ENDBRANCH  10  11
ENDBRANCH   7  10
BRANCH   2  21
ATOM     21  C   UNL d   1      54.306  32.752  54.379  0.00  0.00     0.038 A 
ATOM     22  C   UNL d   1      54.843  33.266  54.015  0.00  0.00     0.003 A 
ATOM     23  C   UNL d   1      55.238  33.837  54.468  0.00  0.00     0.000 A 
ATOM     24  C   UNL d   1      55.093  33.888  55.279  0.00  0.00     0.000 A 
ATOM     25  C   UNL d   1      54.556  33.374  55.643  0.00  0.00     0.000 A 
ATOM     26  C   UNL d   1      54.166  32.807  55.185  0.00  0.00     0.003 A 
ENDBRANCH   2  21
TORSDOF 6
ENDMDL
MODEL 4
REMARK VINA RESULT:      -8.8      0.899      2.495
REMARK  6 active torsions:
REMARK  status: ('A' for Active; 'I' for Inactive)
REMARK    1  A    between atoms: C_16  and  C_2 
REMARK    2  A    between atoms: C_11  and  C_7 
REMARK    3  A    between atoms: S_17  and  C_9 
REMARK    4  A    between atoms: O_20  and  C_11 
REMARK    5  A    between atoms: C_13  and  C_19 
REMARK    6  A    between atoms: C_19  and  S_17 
ROOT
ATOM      1  N   UNL d   1      52.798  33.962  53.717  0.00  0.00    -0.191 N 
ATOM      2  C   UNL d   1      53.296  34.424  54.176  0.00  0.00     0.187 A 
ATOM      3  N   UNL d   1      53.039  35.201  54.119  0.00  0.00    -0.127 NA
ATOM      4  C   UNL d   1      52.229  34.439  53.372  0.00  0.00     0.187 A 
ATOM      5  N   UNL d   1      52.790  33.137  53.565  0.00  0.00    -0.156 NA
ATOM      6  N   UNL d   1      52.378  35.219  53.623  0.00  0.00    -0.127 NA
ATOM      7  C   UNL d   1      52.213  32.813  53.071  0.00  0.00     0.131 A 
ATOM      8  C   UNL d   1      51.653  34.115  52.879  0.00  0.00     0.043 A 
ATOM      9  C   UNL d   1      51.645  33.303  52.728  0.00  0.00     0.031 A 
ENDROOT
BRANCH   7  10
ATOM     10  S   UNL d   1      52.205  32.000  52.921  0.00  0.00    -0.064 SA
BRANCH  10  11
ATOM     11  C   UNL d   1      52.913  31.581  52.897  0.00  0.00     0.062 C 
BRANCH  11  12
ATOM     12  C   UNL d   1      52.920  30.785  53.086  0.00  0.00     0.107 A 
ATOM     13  O   UNL d   1      53.162  30.462  53.801  0.00  0.00    -0.301 OA
ATOM     14  C   UNL d   1      53.081  29.649  53.762  0.00  0.00     0.163 A 
ATOM     15  C   UNL d   1      52.784  29.455  53.012  0.00  0.00     0.032 A 
ATOM     16  C   UNL d   1      52.685  30.162  52.597  0.00  0.00     0.027 A 
BRANCH  14  17
ATOM     17  C   UNL d   1      53.258  29.107  54.353  0.00  0.00     0.319 C 
ATOM     18  O   UNL d   1      53.621  28.382  54.178  0.00  0.00    -0.257 OA
BRANCH  17  19
ATOM     19  O   UNL d   1      53.075  29.282  55.138  0.00  0.00    -0.294 OA
ATOM     20  C   UNL d   1      53.291  28.769  55.750  0.00  0.00     0.185 C 
ENDBRANCH  17  19
ENDBRANCH  14  17
ENDBRANCH  11  12
ENDBRANCH  10  11
ENDBRANCH   7  10
BRANCH   2  21
ATOM     21  C   UNL d   1      53.938  34.166  54.615  0.00  0.00     0.038 A 
ATOM     22  C   UNL d   1      54.691  34.166  54.272  0.00  0.00     0.003 A 
ATOM     23  C   UNL d   1      55.343  33.905  54.712  0.00  0.00     0.000 A 
ATOM     24  C   UNL d   1      55.236  33.648  55.488  0.00  0.00     0.000 A 
ATOM     25  C   UNL d   1      54.483  33.649  55.831  0.00  0.00     0.000 A 
ATOM     26  C   UNL d   1      53.837  33.910  55.386  0.00  0.00     0.003 A 
ENDBRANCH   2  21
TORSDOF 6
ENDMDL
