MODEL 1
REMARK VINA RESULT:      78.0      0.000      0.000
REMARK  5 active torsions:
REMARK  status: ('A' for Active; 'I' for Inactive)
REMARK    1  A    between atoms: C_7  and  C_1 
REMARK    2  A    between atoms: C_6  and  O_13 
REMARK    3  A    between atoms: C_12  and  C_6 
REMARK    4  A    between atoms: O_13  and  C_10 
REMARK    5  A    between atoms: C_28  and  C_14 
ROOT
ATOM      1  C   UNL d   1     -50.594  25.921  33.608  0.00  0.00     0.064 A 
ATOM      2  C   UNL d   1     -50.348  27.322  33.695  0.00  0.00     0.062 A 
ATOM      3  C   UNL d   1     -50.877  26.694  33.622  0.00  0.00     0.199 A 
ATOM      4  C   UNL d   1     -49.785  25.775  33.667  0.00  0.00     0.126 A 
ATOM      5  C   UNL d   1     -49.539  27.176  33.754  0.00  0.00     0.105 A 
ATOM      6  O   UNL d   1     -49.257  26.402  33.740  0.00  0.00    -0.305 OA
ATOM      7  C   UNL d   1     -50.631  28.095  33.709  0.00  0.00     0.007 A 
ATOM      8  C   UNL d   1     -49.293  28.581  33.842  0.00  0.00     0.105 A 
ATOM      9  C   UNL d   1     -49.011  27.803  33.827  0.00  0.00     0.050 A 
ATOM     10  C   UNL d   1     -50.102  28.726  33.782  0.00  0.00     0.023 A 
ATOM     11  O   UNL d   1     -51.686  26.839  33.563  0.00  0.00    -0.286 OA
ENDROOT
BRANCH   1  12
ATOM     12  C   UNL d   1     -51.122  25.293  33.535  0.00  0.00     0.007 A 
ATOM     13  C   UNL d   1     -51.945  25.434  33.526  0.00  0.00     0.027 A 
ATOM     14  C   UNL d   1     -52.471  24.815  33.453  0.00  0.00     0.123 A 
ATOM     15  O   UNL d   1     -53.281  24.961  33.445  0.00  0.00    -0.301 OA
ATOM     16  C   UNL d   1     -52.189  24.030  33.388  0.00  0.00     0.123 A 
ATOM     17  C   UNL d   1     -53.813  24.332  33.371  0.00  0.00     0.149 A 
ATOM     18  C   UNL d   1     -53.539  23.557  33.307  0.00  0.00     0.149 A 
ATOM     19  O   UNL d   1     -52.718  23.406  33.315  0.00  0.00    -0.301 OA
ATOM     20  C   UNL d   1     -51.366  23.889  33.397  0.00  0.00     0.027 A 
ATOM     21  C   UNL d   1     -50.839  24.516  33.470  0.00  0.00     0.002 A 
ENDBRANCH   1  12
BRANCH  10  22
ATOM     22  C   UNL d   1     -50.383  29.508  33.797  0.00  0.00     0.002 C 
ATOM     23  C   UNL d   1     -51.004  29.732  33.306  0.00  0.00     0.000 C 
ENDBRANCH  10  22
BRANCH   8  24
ATOM     24  O   UNL d   1     -48.763  29.217  33.915  0.00  0.00    -0.271 OA
BRANCH  24  25
ATOM     25  C   UNL d   1     -48.171  29.197  34.489  0.00  0.00     0.323 C 
ATOM     26  O   UNL d   1     -47.840  28.484  34.723  0.00  0.00    -0.257 OA
BRANCH  25  27
ATOM     27  C   UNL d   1     -47.907  29.903  34.833  0.00  0.00     0.163 A 
ATOM     28  O   UNL d   1     -47.952  30.653  34.499  0.00  0.00    -0.300 OA
ATOM     29  C   UNL d   1     -47.626  31.198  35.026  0.00  0.00     0.123 A 
ATOM     30  C   UNL d   1     -47.377  30.775  35.696  0.00  0.00     0.029 A 
ATOM     31  C   UNL d   1     -47.554  29.973  35.571  0.00  0.00     0.032 A 
ENDBRANCH  25  27
ENDBRANCH  24  25
ENDBRANCH   8  24
TORSDOF 5
ENDMDL
