MODEL 1
REMARK VINA RESULT:      -1.3      0.000      0.000
REMARK  2 active torsions:
REMARK  status: ('A' for Active; 'I' for Inactive)
REMARK    1  A    between atoms: N_3  and  C_1 
REMARK    2  A    between atoms: C_13  and  N_6 
ROOT
ATOM      1  C   UNL d   1     -42.209-122.533 -50.485  0.00  0.00     0.143 A 
ATOM      2  C   UNL d   1     -41.885-122.870 -49.794  0.00  0.00     0.297 A 
ATOM      3  C   UNL d   1     -42.978-122.329 -50.334  0.00  0.00     0.102 A 
ATOM      4  N   UNL d   1     -43.150-122.533 -49.547  0.00  0.00    -0.238 N 
ATOM      5  N   UNL d   1     -42.475-122.865 -49.218  0.00  0.00    -0.209 N 
ATOM      6  O   UNL d   1     -41.123-123.154 -49.697  0.00  0.00    -0.264 OA
ATOM      7  C   UNL d   1     -43.882-122.415 -49.171  0.00  0.00     0.120 C 
ATOM      8  C   UNL d   1     -43.505-121.977 -50.870  0.00  0.00     0.022 C 
ENDROOT
BRANCH   1   9
ATOM      9  N   UNL d   1     -41.799-122.432 -51.200  0.00  0.00    -0.254 N 
ATOM     10  C   UNL d   1     -41.651-123.033 -51.752  0.00  0.00     0.153 A 
ATOM     11  S   UNL d   1     -41.229-122.694 -52.378  0.00  0.00    -0.053 SA
ATOM     12  S   UNL d   1     -41.884-123.816 -51.684  0.00  0.00    -0.052 SA
ATOM     13  C   UNL d   1     -41.123-121.895 -52.204  0.00  0.00     0.099 A 
ATOM     14  C   UNL d   1     -41.474-121.740 -51.480  0.00  0.00     0.273 A 
ATOM     15  O   UNL d   1     -41.492-121.000 -51.103  0.00  0.00    -0.266 OA
ENDBRANCH   1   9
BRANCH   5  16
ATOM     16  C   UNL d   1     -42.379-123.151 -48.451  0.00  0.00     0.085 A 
ATOM     17  C   UNL d   1     -43.004-123.528 -48.064  0.00  0.00     0.019 A 
ATOM     18  C   UNL d   1     -42.897-123.809 -47.299  0.00  0.00     0.002 A 
ATOM     19  C   UNL d   1     -42.184-123.721 -46.917  0.00  0.00     0.000 A 
ATOM     20  C   UNL d   1     -41.562-123.349 -47.293  0.00  0.00     0.002 A 
ATOM     21  C   UNL d   1     -41.656-123.061 -48.065  0.00  0.00     0.019 A 
ENDBRANCH   5  16
TORSDOF 2
ENDMDL
MODEL 2
REMARK VINA RESULT:      -0.6      1.723      3.586
REMARK  2 active torsions:
REMARK  status: ('A' for Active; 'I' for Inactive)
REMARK    1  A    between atoms: N_3  and  C_1 
REMARK    2  A    between atoms: C_13  and  N_6 
ROOT
ATOM      1  C   UNL d   1     -42.348-122.987 -48.919  0.00  0.00     0.143 A 
ATOM      2  C   UNL d   1     -41.835-122.698 -49.510  0.00  0.00     0.297 A 
ATOM      3  C   UNL d   1     -42.956-123.382 -49.278  0.00  0.00     0.102 A 
ATOM      4  N   UNL d   1     -42.837-123.348 -50.100  0.00  0.00    -0.238 N 
ATOM      5  N   UNL d   1     -42.147-122.927 -50.239  0.00  0.00    -0.209 N 
ATOM      6  O   UNL d   1     -41.148-122.267 -49.398  0.00  0.00    -0.264 OA
ATOM      7  C   UNL d   1     -43.339-123.687 -50.670  0.00  0.00     0.120 C 
ATOM      8  C   UNL d   1     -43.591-123.756 -48.895  0.00  0.00     0.022 C 
ENDROOT
BRANCH   1   9
ATOM      9  N   UNL d   1     -42.237-122.879 -48.103  0.00  0.00    -0.254 N 
ATOM     10  C   UNL d   1     -41.665-123.268 -47.645  0.00  0.00     0.153 A 
ATOM     11  S   UNL d   1     -41.748-122.999 -46.866  0.00  0.00    -0.053 SA
ATOM     12  S   UNL d   1     -41.123-123.817 -47.920  0.00  0.00    -0.052 SA
ATOM     13  C   UNL d   1     -42.364-122.452 -46.856  0.00  0.00     0.099 A 
ATOM     14  C   UNL d   1     -42.661-122.382 -47.617  0.00  0.00     0.273 A 
ATOM     15  O   UNL d   1     -43.287-121.886 -47.846  0.00  0.00    -0.266 OA
ENDBRANCH   1   9
BRANCH   5  16
ATOM     16  C   UNL d   1     -41.805-122.751 -50.967  0.00  0.00     0.085 A 
ATOM     17  C   UNL d   1     -41.464-123.348 -51.425  0.00  0.00     0.019 A 
ATOM     18  C   UNL d   1     -41.127-123.160 -52.151  0.00  0.00     0.002 A 
ATOM     19  C   UNL d   1     -41.123-122.394 -52.425  0.00  0.00     0.000 A 
ATOM     20  C   UNL d   1     -41.457-121.798 -51.977  0.00  0.00     0.002 A 
ATOM     21  C   UNL d   1     -41.802-121.974 -51.244  0.00  0.00     0.019 A 
ENDBRANCH   5  16
TORSDOF 2
ENDMDL
MODEL 3
REMARK VINA RESULT:      -0.3      2.653      3.917
REMARK  2 active torsions:
REMARK  status: ('A' for Active; 'I' for Inactive)
REMARK    1  A    between atoms: N_3  and  C_1 
REMARK    2  A    between atoms: C_13  and  N_6 
ROOT
ATOM      1  C   UNL d   1     -41.967-122.519 -54.028  0.00  0.00     0.143 A 
ATOM      2  C   UNL d   1     -42.100-122.074 -53.335  0.00  0.00     0.297 A 
ATOM      3  C   UNL d   1     -41.594-123.208 -53.823  0.00  0.00     0.102 A 
ATOM      4  N   UNL d   1     -41.486-123.208 -52.999  0.00  0.00    -0.238 N 
ATOM      5  N   UNL d   1     -41.799-122.510 -52.702  0.00  0.00    -0.209 N 
ATOM      6  O   UNL d   1     -42.462-121.341 -53.282  0.00  0.00    -0.264 OA
ATOM      7  C   UNL d   1     -41.123-123.817 -52.565  0.00  0.00     0.120 C 
ATOM      8  C   UNL d   1     -41.359-123.810 -54.343  0.00  0.00     0.022 C 
ENDROOT
BRANCH   1   9
ATOM      9  N   UNL d   1     -42.187-122.280 -54.792  0.00  0.00    -0.254 N 
ATOM     10  C   UNL d   1     -42.843-122.569 -55.210  0.00  0.00     0.153 A 
ATOM     11  S   UNL d   1     -42.856-122.185 -55.944  0.00  0.00    -0.053 SA
ATOM     12  S   UNL d   1     -43.374-123.131 -54.940  0.00  0.00    -0.052 SA
ATOM     13  C   UNL d   1     -42.213-121.669 -55.966  0.00  0.00     0.099 A 
ATOM     14  C   UNL d   1     -41.806-121.731 -55.258  0.00  0.00     0.273 A 
ATOM     15  O   UNL d   1     -41.123-121.304 -55.056  0.00  0.00    -0.266 OA
ENDBRANCH   1   9
BRANCH   5  16
ATOM     16  C   UNL d   1     -41.819-122.264 -51.916  0.00  0.00     0.085 A 
ATOM     17  C   UNL d   1     -41.138-121.977 -51.549  0.00  0.00     0.019 A 
ATOM     18  C   UNL d   1     -41.170-121.735 -50.764  0.00  0.00     0.002 A 
ATOM     19  C   UNL d   1     -41.866-121.774 -50.343  0.00  0.00     0.000 A 
ATOM     20  C   UNL d   1     -42.544-122.057 -50.699  0.00  0.00     0.002 A 
ATOM     21  C   UNL d   1     -42.525-122.305 -51.490  0.00  0.00     0.019 A 
ENDBRANCH   5  16
TORSDOF 2
ENDMDL
