MODEL 1
REMARK VINA RESULT:      80.3      0.000      0.000
REMARK  6 active torsions:
REMARK  status: ('A' for Active; 'I' for Inactive)
REMARK    1  A    between atoms: N_3  and  S_1 
REMARK    2  A    between atoms: C_7  and  S_1 
REMARK    3  A    between atoms: C_2  and  N_3 
REMARK    4  A    between atoms: N_8  and  C_5 
REMARK    5  A    between atoms: C_20  and  N_8 
REMARK    6  A    between atoms: C_13  and  C_20 
ROOT
ATOM      1  C   UNL d   1     -50.082  27.199  35.316  0.00  0.00     0.211 A 
ATOM      2  N   UNL d   1     -50.712  26.777  35.662  0.00  0.00    -0.222 NA
ATOM      3  C   UNL d   1     -49.592  27.672  35.798  0.00  0.00     0.200 A 
ATOM      4  N   UNL d   1     -49.739  27.713  36.598  0.00  0.00    -0.223 NA
ATOM      5  C   UNL d   1     -50.856  26.823  36.474  0.00  0.00     0.101 A 
ATOM      6  C   UNL d   1     -50.358  27.300  36.943  0.00  0.00     0.101 A 
ATOM      7  C   UNL d   1     -50.502  27.351  37.782  0.00  0.00     0.021 A 
ATOM      8  C   UNL d   1     -51.495  26.397  36.832  0.00  0.00     0.021 A 
ATOM      9  C   UNL d   1     -51.141  26.920  38.112  0.00  0.00     0.002 A 
ATOM     10  C   UNL d   1     -51.631  26.447  37.631  0.00  0.00     0.002 A 
ENDROOT
BRANCH   1  11
ATOM     11  N   UNL d   1     -49.918  27.181  34.565  0.00  0.00    -0.136 NA
BRANCH  11  12
ATOM     12  S   UNL d   1     -50.408  26.911  33.983  0.00  0.00     0.287 S 
ATOM     13  O   UNL d   1     -50.941  26.819  33.310  0.00  0.00    -0.198 OA
ATOM     14  O   UNL d   1     -50.364  27.708  33.884  0.00  0.00    -0.198 OA
BRANCH  12  15
ATOM     15  C   UNL d   1     -50.648  26.154  33.819  0.00  0.00     0.105 A 
ATOM     16  C   UNL d   1     -51.442  25.960  33.832  0.00  0.00     0.013 A 
ATOM     17  C   UNL d   1     -51.716  25.181  33.666  0.00  0.00     0.001 A 
ATOM     18  C   UNL d   1     -51.145  24.586  33.481  0.00  0.00     0.000 A 
ATOM     19  C   UNL d   1     -50.347  24.770  33.466  0.00  0.00     0.001 A 
ATOM     20  C   UNL d   1     -51.357  23.815  33.313  0.00  0.00     0.000 C 
ATOM     21  C   UNL d   1     -50.092  25.560  33.636  0.00  0.00     0.013 A 
ENDBRANCH  12  15
ENDBRANCH  11  12
ENDBRANCH   1  11
BRANCH   3  22
ATOM     22  N   UNL d   1     -49.005  28.057  35.434  0.00  0.00    -0.221 NA
BRANCH  22  23
ATOM     23  C   UNL d   1     -48.257  28.181  35.647  0.00  0.00     0.125 C 
BRANCH  23  24
ATOM     24  C   UNL d   1     -47.925  28.881  35.498  0.00  0.00     0.119 A 
ATOM     25  O   UNL d   1     -47.434  29.052  34.907  0.00  0.00    -0.304 OA
ATOM     26  C   UNL d   1     -47.237  29.797  34.962  0.00  0.00     0.123 A 
ATOM     27  C   UNL d   1     -47.602  30.104  35.589  0.00  0.00     0.029 A 
ATOM     28  C   UNL d   1     -48.029  29.537  35.922  0.00  0.00     0.028 A 
ENDBRANCH  23  24
ENDBRANCH  22  23
ENDBRANCH   3  22
TORSDOF 6
ENDMDL
MODEL 2
REMARK VINA RESULT:      83.1      1.143      3.283
REMARK  6 active torsions:
REMARK  status: ('A' for Active; 'I' for Inactive)
REMARK    1  A    between atoms: N_3  and  S_1 
REMARK    2  A    between atoms: C_7  and  S_1 
REMARK    3  A    between atoms: C_2  and  N_3 
REMARK    4  A    between atoms: N_8  and  C_5 
REMARK    5  A    between atoms: C_20  and  N_8 
REMARK    6  A    between atoms: C_13  and  C_20 
ROOT
ATOM      1  C   UNL d   1     -50.407  26.904  35.107  0.00  0.00     0.211 A 
ATOM      2  N   UNL d   1     -49.877  27.218  34.545  0.00  0.00    -0.222 NA
ATOM      3  C   UNL d   1     -50.322  27.110  35.910  0.00  0.00     0.200 A 
ATOM      4  N   UNL d   1     -49.721  27.615  36.132  0.00  0.00    -0.223 NA
ATOM      5  C   UNL d   1     -49.271  27.729  34.775  0.00  0.00     0.101 A 
ATOM      6  C   UNL d   1     -49.198  27.926  35.583  0.00  0.00     0.101 A 
ATOM      7  C   UNL d   1     -48.574  28.453  35.827  0.00  0.00     0.021 A 
ATOM      8  C   UNL d   1     -48.729  28.052  34.210  0.00  0.00     0.021 A 
ATOM      9  C   UNL d   1     -48.050  28.760  35.248  0.00  0.00     0.002 A 
ATOM     10  C   UNL d   1     -48.135  28.554  34.444  0.00  0.00     0.002 A 
ENDROOT
BRANCH   1  11
ATOM     11  N   UNL d   1     -50.983  26.426  34.929  0.00  0.00    -0.136 NA
BRANCH  11  12
ATOM     12  S   UNL d   1     -51.144  26.137  34.192  0.00  0.00     0.287 S 
ATOM     13  O   UNL d   1     -51.246  26.009  33.345  0.00  0.00    -0.198 OA
ATOM     14  O   UNL d   1     -50.846  26.875  34.081  0.00  0.00    -0.198 OA
BRANCH  12  15
ATOM     15  C   UNL d   1     -51.453  25.419  33.976  0.00  0.00     0.105 A 
ATOM     16  C   UNL d   1     -52.253  25.340  33.833  0.00  0.00     0.013 A 
ATOM     17  C   UNL d   1     -52.598  24.605  33.606  0.00  0.00     0.001 A 
ATOM     18  C   UNL d   1     -52.092  23.932  33.526  0.00  0.00     0.000 A 
ATOM     19  C   UNL d   1     -51.288  24.002  33.667  0.00  0.00     0.001 A 
ATOM     20  C   UNL d   1     -52.374  23.197  33.309  0.00  0.00     0.000 C 
ATOM     21  C   UNL d   1     -50.961  24.750  33.894  0.00  0.00     0.013 A 
ENDBRANCH  12  15
ENDBRANCH  11  12
ENDBRANCH   1  11
BRANCH   3  22
ATOM     22  N   UNL d   1     -50.843  26.792  36.413  0.00  0.00    -0.221 NA
BRANCH  22  23
ATOM     23  C   UNL d   1     -50.818  26.698  37.195  0.00  0.00     0.125 C 
BRANCH  23  24
ATOM     24  C   UNL d   1     -51.462  26.448  37.574  0.00  0.00     0.119 A 
ATOM     25  O   UNL d   1     -51.815  25.750  37.489  0.00  0.00    -0.304 OA
ATOM     26  C   UNL d   1     -52.427  25.727  37.961  0.00  0.00     0.123 A 
ATOM     27  C   UNL d   1     -52.465  26.411  38.350  0.00  0.00     0.029 A 
ATOM     28  C   UNL d   1     -51.867  26.859  38.111  0.00  0.00     0.028 A 
ENDBRANCH  23  24
ENDBRANCH  22  23
ENDBRANCH   3  22
TORSDOF 6
ENDMDL
MODEL 3
REMARK VINA RESULT:      83.2      1.939      4.888
REMARK  6 active torsions:
REMARK  status: ('A' for Active; 'I' for Inactive)
REMARK    1  A    between atoms: N_3  and  S_1 
REMARK    2  A    between atoms: C_7  and  S_1 
REMARK    3  A    between atoms: C_2  and  N_3 
REMARK    4  A    between atoms: N_8  and  C_5 
REMARK    5  A    between atoms: C_20  and  N_8 
REMARK    6  A    between atoms: C_13  and  C_20 
ROOT
ATOM      1  C   UNL d   1     -51.229  26.279  35.191  0.00  0.00     0.211 A 
ATOM      2  N   UNL d   1     -50.605  26.823  35.294  0.00  0.00    -0.222 NA
ATOM      3  C   UNL d   1     -51.322  25.897  34.455  0.00  0.00     0.200 A 
ATOM      4  N   UNL d   1     -50.800  26.062  33.851  0.00  0.00    -0.223 NA
ATOM      5  C   UNL d   1     -50.080  26.986  34.678  0.00  0.00     0.101 A 
ATOM      6  C   UNL d   1     -50.185  26.596  33.949  0.00  0.00     0.101 A 
ATOM      7  C   UNL d   1     -49.646  26.760  33.309  0.00  0.00     0.021 A 
ATOM      8  C   UNL d   1     -49.444  27.537  34.777  0.00  0.00     0.021 A 
ATOM      9  C   UNL d   1     -49.024  27.309  33.431  0.00  0.00     0.002 A 
ATOM     10  C   UNL d   1     -48.931  27.692  34.166  0.00  0.00     0.002 A 
ENDROOT
BRANCH   1  11
ATOM     11  N   UNL d   1     -51.737  26.103  35.741  0.00  0.00    -0.136 NA
BRANCH  11  12
ATOM     12  S   UNL d   1     -51.698  26.342  36.511  0.00  0.00     0.287 S 
ATOM     13  O   UNL d   1     -51.563  26.759  37.254  0.00  0.00    -0.198 OA
ATOM     14  O   UNL d   1     -51.347  26.923  36.080  0.00  0.00    -0.198 OA
BRANCH  12  15
ATOM     15  C   UNL d   1     -51.965  25.972  37.181  0.00  0.00     0.105 A 
ATOM     16  C   UNL d   1     -51.501  25.947  37.852  0.00  0.00     0.013 A 
ATOM     17  C   UNL d   1     -51.756  25.568  38.561  0.00  0.00     0.001 A 
ATOM     18  C   UNL d   1     -52.519  25.204  38.568  0.00  0.00     0.000 A 
ATOM     19  C   UNL d   1     -52.992  25.224  37.900  0.00  0.00     0.001 A 
ATOM     20  C   UNL d   1     -52.815  24.824  39.228  0.00  0.00     0.000 C 
ATOM     21  C   UNL d   1     -52.717  25.610  37.197  0.00  0.00     0.013 A 
ENDBRANCH  12  15
ENDBRANCH  11  12
ENDBRANCH   1  11
BRANCH   3  22
ATOM     22  N   UNL d   1     -51.924  25.389  34.395  0.00  0.00    -0.221 NA
BRANCH  22  23
ATOM     23  C   UNL d   1     -52.358  25.171  33.775  0.00  0.00     0.125 C 
BRANCH  23  24
ATOM     24  C   UNL d   1     -52.471  24.403  33.634  0.00  0.00     0.119 A 
ATOM     25  O   UNL d   1     -51.937  23.891  33.367  0.00  0.00    -0.304 OA
ATOM     26  C   UNL d   1     -52.273  23.197  33.306  0.00  0.00     0.123 A 
ATOM     27  C   UNL d   1     -53.023  23.265  33.535  0.00  0.00     0.029 A 
ATOM     28  C   UNL d   1     -53.148  24.012  33.739  0.00  0.00     0.028 A 
ENDBRANCH  23  24
ENDBRANCH  22  23
ENDBRANCH   3  22
TORSDOF 6
ENDMDL
