MODEL 1
REMARK VINA RESULT:      -4.8      0.000      0.000
REMARK  3 active torsions:
REMARK  status: ('A' for Active; 'I' for Inactive)
REMARK    1  A    between atoms: N_2  and  S_1 
REMARK    2  A    between atoms: C_3  and  S_1 
REMARK    3  A    between atoms: C_5  and  N_4 
ROOT
ATOM      1  N   UNL d   1      56.563   0.077  32.362  0.00  0.00    -0.226 N 
ATOM      2  N   UNL d   1      57.471  -0.250  31.035  0.00  0.00    -0.286 N 
ATOM      3  C   UNL d   1      56.612  -0.691  32.076  0.00  0.00     0.111 A 
ATOM      4  C   UNL d   1      56.969   0.682  31.984  0.00  0.00     0.111 A 
ATOM      5  C   UNL d   1      57.422   0.518  31.321  0.00  0.00     0.101 A 
ATOM      6  C   UNL d   1      57.065  -0.855  31.412  0.00  0.00     0.101 A 
ENDROOT
BRANCH   1   7
ATOM      7  S   UNL d   1      56.102   0.248  33.038  0.00  0.00     0.277 S 
ATOM      8  O   UNL d   1      56.690  -0.082  33.526  0.00  0.00    -0.199 OA
ATOM      9  O   UNL d   1      55.509   0.580  32.549  0.00  0.00    -0.199 OA
BRANCH   7  10
ATOM     10  C   UNL d   1      55.639   0.419  33.715  0.00  0.00     0.133 A 
ATOM     11  S   UNL d   1      55.924   0.517  34.487  0.00  0.00    -0.074 SA
ATOM     12  C   UNL d   1      55.267   0.681  34.980  0.00  0.00     0.036 A 
ATOM     13  C   UNL d   1      54.585   0.682  34.504  0.00  0.00     0.008 A 
ATOM     14  C   UNL d   1      54.808   0.521  33.722  0.00  0.00     0.020 A 
ENDBRANCH   7  10
ENDBRANCH   1   7
BRANCH   2  15
ATOM     15  C   UNL d   1      57.922  -0.423  30.371  0.00  0.00     0.148 A 
ATOM     16  N   UNL d   1      58.054  -1.208  30.172  0.00  0.00    -0.227 NA
ATOM     17  C   UNL d   1      58.503  -1.391  29.512  0.00  0.00     0.101 A 
ATOM     18  C   UNL d   1      58.822  -0.788  29.048  0.00  0.00     0.021 A 
ATOM     19  C   UNL d   1      58.685  -0.000  29.255  0.00  0.00     0.005 A 
ATOM     20  C   UNL d   1      58.236   0.182  29.915  0.00  0.00     0.037 A 
ENDBRANCH   2  15
TORSDOF 3
ENDMDL
MODEL 2
REMARK VINA RESULT:      -4.8      2.075      4.694
REMARK  3 active torsions:
REMARK  status: ('A' for Active; 'I' for Inactive)
REMARK    1  A    between atoms: N_2  and  S_1 
REMARK    2  A    between atoms: C_3  and  S_1 
REMARK    3  A    between atoms: C_5  and  N_4 
ROOT
ATOM      1  N   UNL d   1      57.988  -0.011  30.669  0.00  0.00    -0.226 N 
ATOM      2  N   UNL d   1      56.864  -0.040  31.862  0.00  0.00    -0.286 N 
ATOM      3  C   UNL d   1      57.856   0.658  31.125  0.00  0.00     0.111 A 
ATOM      4  C   UNL d   1      57.558  -0.695  30.808  0.00  0.00     0.111 A 
ATOM      5  C   UNL d   1      56.995  -0.709  31.406  0.00  0.00     0.101 A 
ATOM      6  C   UNL d   1      57.294   0.644  31.723  0.00  0.00     0.101 A 
ENDROOT
BRANCH   1   7
ATOM      7  S   UNL d   1      58.561  -0.001  30.058  0.00  0.00     0.277 S 
ATOM      8  O   UNL d   1      58.039  -0.415  29.559  0.00  0.00    -0.199 OA
ATOM      9  O   UNL d   1      59.086   0.416  30.560  0.00  0.00    -0.199 OA
BRANCH   7  10
ATOM     10  C   UNL d   1      59.134   0.010  29.448  0.00  0.00     0.133 A 
ATOM     11  S   UNL d   1      59.578  -0.639  29.187  0.00  0.00    -0.074 SA
ATOM     12  C   UNL d   1      60.079  -0.371  28.571  0.00  0.00     0.036 A 
ATOM     13  C   UNL d   1      59.937   0.442  28.462  0.00  0.00     0.008 A 
ATOM     14  C   UNL d   1      59.355   0.682  29.000  0.00  0.00     0.020 A 
ENDBRANCH   7  10
ENDBRANCH   1   7
BRANCH   2  15
ATOM     15  C   UNL d   1      56.303  -0.044  32.462  0.00  0.00     0.148 A 
ATOM     16  N   UNL d   1      55.882   0.642  32.620  0.00  0.00    -0.227 NA
ATOM     17  C   UNL d   1      55.321   0.647  33.217  0.00  0.00     0.101 A 
ATOM     18  C   UNL d   1      55.179  -0.036  33.658  0.00  0.00     0.021 A 
ATOM     19  C   UNL d   1      55.607  -0.723  33.493  0.00  0.00     0.005 A 
ATOM     20  C   UNL d   1      56.168  -0.728  32.896  0.00  0.00     0.037 A 
ENDBRANCH   2  15
TORSDOF 3
ENDMDL
