MODEL 1
REMARK VINA RESULT:      -6.5      0.000      0.000
REMARK  2 active torsions:
REMARK  status: ('A' for Active; 'I' for Inactive)
REMARK    1  A    between atoms: N_2  and  C_1 
REMARK    2  A    between atoms: C_5  and  N_2 
ROOT
ATOM      1  C   UNL d   1      54.101  32.382  53.862  0.00  0.00     0.084 A 
ATOM      2  C   UNL d   1      53.810  32.252  54.622  0.00  0.00     0.019 A 
ATOM      3  C   UNL d   1      54.647  32.974  53.720  0.00  0.00     0.019 A 
ATOM      4  C   UNL d   1      54.912  33.450  54.340  0.00  0.00     0.001 A 
ATOM      5  C   UNL d   1      54.073  32.726  55.247  0.00  0.00     0.001 A 
ATOM      6  C   UNL d   1      54.623  33.326  55.112  0.00  0.00     0.000 A 
ENDROOT
BRANCH   1   7
ATOM      7  N   UNL d   1      53.841  31.911  53.237  0.00  0.00    -0.216 NA
BRANCH   7   8
ATOM      8  C   UNL d   1      53.043  31.859  53.061  0.00  0.00     0.241 C 
ATOM      9  S   UNL d   1      52.641  31.147  53.130  0.00  0.00    -0.036 SA
ATOM     10  N   UNL d   1      52.636  32.534  52.809  0.00  0.00    -0.114 N 
ENDBRANCH   7   8
ENDBRANCH   1   7
TORSDOF 2
ENDMDL
MODEL 2
REMARK VINA RESULT:      -6.4      1.498      2.540
REMARK  2 active torsions:
REMARK  status: ('A' for Active; 'I' for Inactive)
REMARK    1  A    between atoms: N_2  and  C_1 
REMARK    2  A    between atoms: C_5  and  N_2 
ROOT
ATOM      1  C   UNL d   1      53.773  32.164  53.657  0.00  0.00     0.084 A 
ATOM      2  C   UNL d   1      53.138  32.409  53.192  0.00  0.00     0.019 A 
ATOM      3  C   UNL d   1      53.906  31.370  53.797  0.00  0.00     0.019 A 
ATOM      4  C   UNL d   1      53.402  30.803  53.471  0.00  0.00     0.001 A 
ATOM      5  C   UNL d   1      52.630  31.845  52.863  0.00  0.00     0.001 A 
ATOM      6  C   UNL d   1      52.758  31.041  53.000  0.00  0.00     0.000 A 
ENDROOT
BRANCH   1   7
ATOM      7  N   UNL d   1      54.281  32.724  53.986  0.00  0.00    -0.216 NA
BRANCH   7   8
ATOM      8  C   UNL d   1      54.080  33.109  54.681  0.00  0.00     0.241 C 
ATOM      9  S   UNL d   1      53.781  33.873  54.669  0.00  0.00    -0.036 SA
ATOM     10  N   UNL d   1      54.181  32.722  55.405  0.00  0.00    -0.114 N 
ENDBRANCH   7   8
ENDBRANCH   1   7
TORSDOF 2
ENDMDL
MODEL 3
REMARK VINA RESULT:      -6.3      1.725      1.958
REMARK  2 active torsions:
REMARK  status: ('A' for Active; 'I' for Inactive)
REMARK    1  A    between atoms: N_2  and  C_1 
REMARK    2  A    between atoms: C_5  and  N_2 
ROOT
ATOM      1  C   UNL d   1      53.287  33.471  54.190  0.00  0.00     0.084 A 
ATOM      2  C   UNL d   1      53.657  32.987  53.635  0.00  0.00     0.019 A 
ATOM      3  C   UNL d   1      53.695  33.744  54.844  0.00  0.00     0.019 A 
ATOM      4  C   UNL d   1      54.486  33.536  54.954  0.00  0.00     0.001 A 
ATOM      5  C   UNL d   1      54.449  32.776  53.740  0.00  0.00     0.001 A 
ATOM      6  C   UNL d   1      54.869  33.048  54.398  0.00  0.00     0.000 A 
ENDROOT
BRANCH   1   7
ATOM      7  N   UNL d   1      52.496  33.683  54.088  0.00  0.00    -0.216 NA
BRANCH   7   8
ATOM      8  C   UNL d   1      52.288  34.257  53.541  0.00  0.00     0.241 C 
ATOM      9  S   UNL d   1      51.864  34.063  52.867  0.00  0.00    -0.036 SA
ATOM     10  N   UNL d   1      52.509  35.043  53.671  0.00  0.00    -0.114 N 
ENDBRANCH   7   8
ENDBRANCH   1   7
TORSDOF 2
ENDMDL
MODEL 4
REMARK VINA RESULT:      -6.1      2.162      2.680
REMARK  2 active torsions:
REMARK  status: ('A' for Active; 'I' for Inactive)
REMARK    1  A    between atoms: N_2  and  C_1 
REMARK    2  A    between atoms: C_5  and  N_2 
ROOT
ATOM      1  C   UNL d   1      52.874  33.524  53.890  0.00  0.00     0.084 A 
ATOM      2  C   UNL d   1      52.953  34.344  53.901  0.00  0.00     0.019 A 
ATOM      3  C   UNL d   1      52.364  33.161  53.363  0.00  0.00     0.019 A 
ATOM      4  C   UNL d   1      51.922  33.616  52.836  0.00  0.00     0.001 A 
ATOM      5  C   UNL d   1      52.512  34.805  53.375  0.00  0.00     0.001 A 
ATOM      6  C   UNL d   1      51.995  34.446  52.840  0.00  0.00     0.000 A 
ENDROOT
BRANCH   1   7
ATOM      7  N   UNL d   1      53.312  33.062  54.414  0.00  0.00    -0.216 NA
BRANCH   7   8
ATOM      8  C   UNL d   1      54.127  33.012  54.341  0.00  0.00     0.241 C 
ATOM      9  S   UNL d   1      54.623  33.369  54.888  0.00  0.00    -0.036 SA
ATOM     10  N   UNL d   1      54.455  32.594  53.706  0.00  0.00    -0.114 N 
ENDBRANCH   7   8
ENDBRANCH   1   7
TORSDOF 2
ENDMDL
