MODEL 1
REMARK VINA RESULT:      15.8      0.000      0.000
REMARK  1 active torsions:
REMARK  status: ('A' for Active; 'I' for Inactive)
REMARK       I    between atoms: N_2  and  C_1 
REMARK       I    between atoms: N_4  and  C_1 
REMARK    1  A    between atoms: C_5  and  N_3 
ROOT
ATOM      1  C   UNL d   1      46.307 -18.935  43.910  0.00  0.00     0.339 C 
ATOM      2  N   UNL d   1      46.184 -18.133  44.052  0.00  0.00    -0.254 N 
ATOM      3  N   UNL d   1      45.940 -16.543  44.332  0.00  0.00    -0.301 N 
ATOM      4  N   UNL d   1      46.427 -19.212  43.143  0.00  0.00    -0.258 N 
ATOM      5  O   UNL d   1      46.310 -19.465  44.545  0.00  0.00    -0.245 OA
ATOM      6  C   UNL d   1      46.065 -17.864  44.815  0.00  0.00     0.104 A 
ATOM      7  C   UNL d   1      46.182 -17.598  43.411  0.00  0.00     0.104 A 
ATOM      8  C   UNL d   1      46.060 -16.805  43.551  0.00  0.00     0.100 A 
ATOM      9  C   UNL d   1      45.944 -17.070  44.955  0.00  0.00     0.100 A 
ATOM     10  C   UNL d   1      46.555 -19.991  42.926  0.00  0.00     0.085 A 
ATOM     11  C   UNL d   1      46.439 -18.749  42.463  0.00  0.00     0.085 A 
ATOM     12  C   UNL d   1      46.574 -19.243  41.825  0.00  0.00     0.021 A 
ATOM     13  C   UNL d   1      46.647 -20.012  42.105  0.00  0.00     0.021 A 
ENDROOT
BRANCH   3  14
ATOM     14  C   UNL d   1      45.815 -15.730  44.476  0.00  0.00     0.064 A 
ATOM     15  C   UNL d   1      45.053 -15.453  44.644  0.00  0.00     0.018 A 
ATOM     16  C   UNL d   1      44.923 -14.641  44.788  0.00  0.00     0.001 A 
ATOM     17  C   UNL d   1      44.169 -14.363  44.955  0.00  0.00     0.000 C 
ATOM     18  C   UNL d   1      45.570 -14.102  44.763  0.00  0.00     0.000 A 
ATOM     19  C   UNL d   1      46.338 -14.390  44.592  0.00  0.00     0.002 A 
ATOM     20  C   UNL d   1      45.447 -13.301  44.904  0.00  0.00     0.000 C 
ATOM     21  C   UNL d   1      46.463 -15.199  44.449  0.00  0.00     0.018 A 
ENDBRANCH   3  14
TORSDOF 1
ENDMDL
