MODEL 1
REMARK VINA RESULT:      45.7      0.000      0.000
REMARK  2 active torsions:
REMARK  status: ('A' for Active; 'I' for Inactive)
REMARK    1  A    between atoms: N_2  and  S_1 
REMARK    2  A    between atoms: C_3  and  S_1 
ROOT
ATOM      1  S   UNL d   1      58.862  49.191  50.725  0.00  0.00     0.287 S 
ATOM      2  O   UNL d   1      59.435  49.708  50.432  0.00  0.00    -0.198 OA
ATOM      3  O   UNL d   1      59.098  48.526  51.173  0.00  0.00    -0.198 OA
ENDROOT
BRANCH   1   4
ATOM      4  N   UNL d   1      58.052  49.327  50.575  0.00  0.00    -0.152 N 
ATOM      5  N   UNL d   1      57.745  49.217  49.806  0.00  0.00    -0.155 NA
ATOM      6  C   UNL d   1      56.934  49.354  49.656  0.00  0.00     0.104 A 
ATOM      7  C   UNL d   1      56.439  49.303  48.972  0.00  0.00     0.022 C 
ATOM      8  C   UNL d   1      56.739  49.708  51.033  0.00  0.00     0.041 A 
ATOM      9  C   UNL d   1      57.551  49.571  51.183  0.00  0.00     0.096 A 
ATOM     10  C   UNL d   1      57.858  49.681  51.952  0.00  0.00     0.022 C 
ENDBRANCH   1   4
BRANCH   1  11
ATOM     11  C   UNL d   1      60.040  48.992  50.942  0.00  0.00     0.117 A 
ATOM     12  C   UNL d   1      60.498  48.610  50.448  0.00  0.00     0.025 A 
ATOM     13  C   UNL d   1      61.252  48.500  50.621  0.00  0.00     0.059 A 
ATOM     14 CL   UNL d   1      61.750  48.085  50.085  0.00  0.00    -0.082 Cl
ATOM     15  C   UNL d   1      61.532  48.778  51.290  0.00  0.00     0.012 A 
ATOM     16  C   UNL d   1      61.075  49.162  51.786  0.00  0.00     0.013 A 
ATOM     17  C   UNL d   1      60.322  49.269  51.610  0.00  0.00     0.070 A 
ATOM     18 CL   UNL d   1      59.828  49.680  52.141  0.00  0.00    -0.082 Cl
ENDBRANCH   1  11
TORSDOF 2
ENDMDL
