MODEL 1
REMARK VINA RESULT:      -4.7      0.000      0.000
REMARK  3 active torsions:
REMARK  status: ('A' for Active; 'I' for Inactive)
REMARK    1  A    between atoms: C_7  and  N_1 
REMARK    2  A    between atoms: C_6  and  C_3 
REMARK    3  A    between atoms: O_16  and  C_13 
ROOT
ATOM      1  N   UNL d   1      57.463   0.102  31.546  0.00  0.00    -0.273 N 
ATOM      2  C   UNL d   1      58.165   0.433  31.828  0.00  0.00     0.265 A 
ATOM      3  C   UNL d   1      58.060  -0.067  30.258  0.00  0.00     0.087 A 
ATOM      4  C   UNL d   1      57.411  -0.148  30.760  0.00  0.00     0.089 A 
ATOM      5  C   UNL d   1      58.814   0.513  31.326  0.00  0.00     0.069 A 
ATOM      6  O   UNL d   1      58.217   0.682  32.614  0.00  0.00    -0.267 OA
ENDROOT
BRANCH   1   7
ATOM      7  C   UNL d   1      56.814   0.021  32.048  0.00  0.00     0.067 A 
ATOM      8  C   UNL d   1      56.631  -0.717  32.364  0.00  0.00     0.020 A 
ATOM      9  C   UNL d   1      55.990  -0.797  32.860  0.00  0.00     0.026 A 
ATOM     10  C   UNL d   1      55.519  -0.140  33.050  0.00  0.00     0.094 A 
ATOM     11  C   UNL d   1      55.705   0.598  32.732  0.00  0.00     0.026 A 
ATOM     12  C   UNL d   1      56.354   0.679  32.230  0.00  0.00     0.020 A 
BRANCH  10  13
ATOM     13  O   UNL d   1      54.870  -0.226  33.553  0.00  0.00    -0.328 OA
ATOM     14  C   UNL d   1      54.776   0.276  34.201  0.00  0.00     0.181 C 
ENDBRANCH  10  13
ENDBRANCH   1   7
BRANCH   3  15
ATOM     15  C   UNL d   1      58.224  -0.264  29.392  0.00  0.00     0.212 C 
ATOM     16  O   UNL d   1      58.117   0.375  28.752  0.00  0.00    -0.644 OA
ATOM     17  O   UNL d   1      58.495  -1.100  29.154  0.00  0.00    -0.644 OA
ENDBRANCH   3  15
TORSDOF 3
ENDMDL
MODEL 2
REMARK VINA RESULT:      -3.9      0.776      3.764
REMARK  3 active torsions:
REMARK  status: ('A' for Active; 'I' for Inactive)
REMARK    1  A    between atoms: C_7  and  N_1 
REMARK    2  A    between atoms: C_6  and  C_3 
REMARK    3  A    between atoms: O_16  and  C_13 
ROOT
ATOM      1  N   UNL d   1      57.165   0.172  32.035  0.00  0.00    -0.273 N 
ATOM      2  C   UNL d   1      57.648   0.489  32.624  0.00  0.00     0.265 A 
ATOM      3  C   UNL d   1      56.079   0.103  32.963  0.00  0.00     0.087 A 
ATOM      4  C   UNL d   1      56.380  -0.021  32.205  0.00  0.00     0.089 A 
ATOM      5  C   UNL d   1      57.347   0.613  33.383  0.00  0.00     0.069 A 
ATOM      6  O   UNL d   1      58.433   0.682  32.455  0.00  0.00    -0.267 OA
ENDROOT
BRANCH   1   7
ATOM      7  C   UNL d   1      57.466   0.047  31.277  0.00  0.00     0.067 A 
ATOM      8  C   UNL d   1      57.691  -0.710  31.047  0.00  0.00     0.020 A 
ATOM      9  C   UNL d   1      57.988  -0.833  30.298  0.00  0.00     0.026 A 
ATOM     10  C   UNL d   1      58.065  -0.201  29.766  0.00  0.00     0.094 A 
ATOM     11  C   UNL d   1      57.838   0.558  30.000  0.00  0.00     0.026 A 
ATOM     12  C   UNL d   1      57.538   0.682  30.758  0.00  0.00     0.020 A 
BRANCH  10  13
ATOM     13  O   UNL d   1      58.367  -0.330  29.009  0.00  0.00    -0.328 OA
ATOM     14  C   UNL d   1      59.091  -0.713  28.907  0.00  0.00     0.181 C 
ENDBRANCH  10  13
ENDBRANCH   1   7
BRANCH   3  15
ATOM     15  C   UNL d   1      55.278  -0.030  33.360  0.00  0.00     0.212 C 
ATOM     16  O   UNL d   1      54.825   0.676  33.715  0.00  0.00    -0.644 OA
ATOM     17  O   UNL d   1      54.922  -0.866  33.407  0.00  0.00    -0.644 OA
ENDBRANCH   3  15
TORSDOF 3
ENDMDL
MODEL 3
REMARK VINA RESULT:      -3.7      1.443      2.286
REMARK  3 active torsions:
REMARK  status: ('A' for Active; 'I' for Inactive)
REMARK    1  A    between atoms: C_7  and  N_1 
REMARK    2  A    between atoms: C_6  and  C_3 
REMARK    3  A    between atoms: O_16  and  C_13 
ROOT
ATOM      1  N   UNL d   1      58.350   0.085  30.036  0.00  0.00    -0.273 N 
ATOM      2  C   UNL d   1      58.114   0.435  29.326  0.00  0.00     0.265 A 
ATOM      3  C   UNL d   1      59.677  -0.059  29.523  0.00  0.00     0.087 A 
ATOM      4  C   UNL d   1      59.132  -0.162  30.134  0.00  0.00     0.089 A 
ATOM      5  C   UNL d   1      58.659   0.538  28.715  0.00  0.00     0.069 A 
ATOM      6  O   UNL d   1      57.332   0.682  29.228  0.00  0.00    -0.267 OA
ENDROOT
BRANCH   1   7
ATOM      7  C   UNL d   1      57.805  -0.018  30.646  0.00  0.00     0.067 A 
ATOM      8  C   UNL d   1      57.550   0.633  31.080  0.00  0.00     0.020 A 
ATOM      9  C   UNL d   1      57.012   0.531  31.683  0.00  0.00     0.026 A 
ATOM     10  C   UNL d   1      56.719  -0.224  31.864  0.00  0.00     0.094 A 
ATOM     11  C   UNL d   1      56.977  -0.875  31.427  0.00  0.00     0.026 A 
ATOM     12  C   UNL d   1      57.522  -0.772  30.817  0.00  0.00     0.020 A 
BRANCH  10  13
ATOM     13  O   UNL d   1      56.174  -0.323  32.476  0.00  0.00    -0.328 OA
ATOM     14  C   UNL d   1      56.086  -1.057  32.842  0.00  0.00     0.181 C 
ENDBRANCH  10  13
ENDBRANCH   1   7
BRANCH   3  15
ATOM     15  C   UNL d   1      60.554  -0.247  29.413  0.00  0.00     0.212 C 
ATOM     16  O   UNL d   1      61.133   0.412  29.167  0.00  0.00    -0.644 OA
ATOM     17  O   UNL d   1      60.863  -1.092  29.548  0.00  0.00    -0.644 OA
ENDBRANCH   3  15
TORSDOF 3
ENDMDL
MODEL 4
REMARK VINA RESULT:      -3.7      1.160      4.070
REMARK  3 active torsions:
REMARK  status: ('A' for Active; 'I' for Inactive)
REMARK    1  A    between atoms: C_7  and  N_1 
REMARK    2  A    between atoms: C_6  and  C_3 
REMARK    3  A    between atoms: O_16  and  C_13 
ROOT
ATOM      1  N   UNL d   1      56.308  -0.274  32.699  0.00  0.00    -0.273 N 
ATOM      2  C   UNL d   1      56.107  -1.073  32.758  0.00  0.00     0.265 A 
ATOM      3  C   UNL d   1      55.343   0.044  33.704  0.00  0.00     0.087 A 
ATOM      4  C   UNL d   1      55.926   0.284  33.172  0.00  0.00     0.089 A 
ATOM      5  C   UNL d   1      55.524  -1.313  33.290  0.00  0.00     0.069 A 
ATOM      6  O   UNL d   1      56.489  -1.631  32.285  0.00  0.00    -0.267 OA
ENDROOT
BRANCH   1   7
ATOM      7  C   UNL d   1      56.891  -0.034  32.166  0.00  0.00     0.067 A 
ATOM      8  C   UNL d   1      56.824  -0.234  31.370  0.00  0.00     0.020 A 
ATOM      9  C   UNL d   1      57.399   0.004  30.845  0.00  0.00     0.026 A 
ATOM     10  C   UNL d   1      58.053   0.444  31.105  0.00  0.00     0.094 A 
ATOM     11  C   UNL d   1      58.117   0.642  31.904  0.00  0.00     0.026 A 
ATOM     12  C   UNL d   1      57.535   0.402  32.436  0.00  0.00     0.020 A 
BRANCH  10  13
ATOM     13  O   UNL d   1      58.633   0.682  30.569  0.00  0.00    -0.328 OA
ATOM     14  C   UNL d   1      58.989   0.131  30.067  0.00  0.00     0.181 C 
ENDBRANCH  10  13
ENDBRANCH   1   7
BRANCH   3  15
ATOM     15  C   UNL d   1      54.812   0.467  34.301  0.00  0.00     0.212 C 
ATOM     16  O   UNL d   1      53.956   0.679  34.076  0.00  0.00    -0.644 OA
ATOM     17  O   UNL d   1      55.130   0.682  35.127  0.00  0.00    -0.644 OA
ENDBRANCH   3  15
TORSDOF 3
ENDMDL
MODEL 5
REMARK VINA RESULT:      -2.7      1.968      4.663
REMARK  3 active torsions:
REMARK  status: ('A' for Active; 'I' for Inactive)
REMARK    1  A    between atoms: C_7  and  N_1 
REMARK    2  A    between atoms: C_6  and  C_3 
REMARK    3  A    between atoms: O_16  and  C_13 
ROOT
ATOM      1  N   UNL d   1      58.512  -0.641  29.741  0.00  0.00    -0.273 N 
ATOM      2  C   UNL d   1      58.410   0.033  29.274  0.00  0.00     0.265 A 
ATOM      3  C   UNL d   1      57.782  -0.016  30.800  0.00  0.00     0.087 A 
ATOM      4  C   UNL d   1      58.198  -0.665  30.504  0.00  0.00     0.089 A 
ATOM      5  C   UNL d   1      57.995   0.681  29.570  0.00  0.00     0.069 A 
ATOM      6  O   UNL d   1      58.724   0.057  28.511  0.00  0.00    -0.267 OA
ENDROOT
BRANCH   1   7
ATOM      7  C   UNL d   1      58.927  -1.289  29.445  0.00  0.00     0.067 A 
ATOM      8  C   UNL d   1      58.515  -1.946  29.170  0.00  0.00     0.020 A 
ATOM      9  C   UNL d   1      58.925  -2.587  28.877  0.00  0.00     0.026 A 
ATOM     10  C   UNL d   1      59.755  -2.582  28.854  0.00  0.00     0.094 A 
ATOM     11  C   UNL d   1      60.164  -1.921  29.131  0.00  0.00     0.026 A 
ATOM     12  C   UNL d   1      59.750  -1.273  29.427  0.00  0.00     0.020 A 
BRANCH  10  13
ATOM     13  O   UNL d   1      60.166  -3.233  28.557  0.00  0.00    -0.328 OA
ATOM     14  C   UNL d   1      60.991  -3.230  28.534  0.00  0.00     0.181 C 
ENDBRANCH  10  13
ENDBRANCH   1   7
BRANCH   3  15
ATOM     15  C   UNL d   1      57.367   0.172  31.580  0.00  0.00     0.212 C 
ATOM     16  O   UNL d   1      56.528  -0.147  31.737  0.00  0.00    -0.644 OA
ATOM     17  O   UNL d   1      57.782   0.679  32.212  0.00  0.00    -0.644 OA
ENDBRANCH   3  15
TORSDOF 3
ENDMDL
MODEL 6
REMARK VINA RESULT:      -1.9      1.185      1.757
REMARK  3 active torsions:
REMARK  status: ('A' for Active; 'I' for Inactive)
REMARK    1  A    between atoms: C_7  and  N_1 
REMARK    2  A    between atoms: C_6  and  C_3 
REMARK    3  A    between atoms: O_16  and  C_13 
ROOT
ATOM      1  N   UNL d   1      56.571  -0.289  32.281  0.00  0.00    -0.273 N 
ATOM      2  C   UNL d   1      56.642  -1.094  32.109  0.00  0.00     0.265 A 
ATOM      3  C   UNL d   1      57.337   0.027  31.117  0.00  0.00     0.087 A 
ATOM      4  C   UNL d   1      56.918   0.271  31.785  0.00  0.00     0.089 A 
ATOM      5  C   UNL d   1      57.061  -1.337  31.442  0.00  0.00     0.069 A 
ATOM      6  O   UNL d   1      56.294  -1.654  32.606  0.00  0.00    -0.267 OA
ENDROOT
BRANCH   1   7
ATOM      7  C   UNL d   1      56.152  -0.046  32.949  0.00  0.00     0.067 A 
ATOM      8  C   UNL d   1      55.342  -0.186  32.997  0.00  0.00     0.020 A 
ATOM      9  C   UNL d   1      54.928   0.055  33.656  0.00  0.00     0.026 A 
ATOM     10  C   UNL d   1      55.317   0.440  34.281  0.00  0.00     0.094 A 
ATOM     11  C   UNL d   1      56.129   0.579  34.229  0.00  0.00     0.026 A 
ATOM     12  C   UNL d   1      56.547   0.335  33.562  0.00  0.00     0.020 A 
BRANCH  10  13
ATOM     13  O   UNL d   1      54.894   0.682  34.946  0.00  0.00    -0.328 OA
ATOM     14  C   UNL d   1      55.248   0.671  35.692  0.00  0.00     0.181 C 
ENDBRANCH  10  13
ENDBRANCH   1   7
BRANCH   3  15
ATOM     15  C   UNL d   1      57.785   0.451  30.456  0.00  0.00     0.212 C 
ATOM     16  O   UNL d   1      58.657   0.682  30.574  0.00  0.00    -0.644 OA
ATOM     17  O   UNL d   1      57.366   0.649  29.672  0.00  0.00    -0.644 OA
ENDBRANCH   3  15
TORSDOF 3
ENDMDL
