MODEL 1
REMARK VINA RESULT:      -8.1      0.000      0.000
REMARK  4 active torsions:
REMARK  status: ('A' for Active; 'I' for Inactive)
REMARK    1  A    between atoms: C_5  and  C_3 
REMARK    2  A    between atoms: S_7  and  C_4 
REMARK    3  A    between atoms: C_10  and  S_7 
REMARK    4  A    between atoms: C_11  and  C_10 
ROOT
ATOM      1  N   UNL d   1      51.674  33.207  53.637  0.00  0.00    -0.146 NA
ATOM      2  N   UNL d   1      50.967  33.450  53.288  0.00  0.00    -0.141 NA
ATOM      3  C   UNL d   1      52.366  33.651  53.526  0.00  0.00     0.121 A 
ATOM      4  C   UNL d   1      50.939  34.128  52.830  0.00  0.00     0.132 A 
ATOM      5  C   UNL d   1      52.341  34.336  53.064  0.00  0.00     0.025 A 
ATOM      6  C   UNL d   1      51.634  34.575  52.718  0.00  0.00     0.029 A 
ENDROOT
BRANCH   4   7
ATOM      7  S   UNL d   1      50.232  34.370  52.481  0.00  0.00    -0.066 SA
BRANCH   7   8
ATOM      8  C   UNL d   1      49.674  34.784  52.919  0.00  0.00     0.037 C 
BRANCH   8   9
ATOM      9  C   UNL d   1      48.998  35.077  52.544  0.00  0.00     0.006 A 
ATOM     10  C   UNL d   1      48.788  34.795  51.817  0.00  0.00     0.001 A 
ATOM     11  C   UNL d   1      48.113  35.086  51.439  0.00  0.00     0.000 A 
ATOM     12  C   UNL d   1      47.657  35.660  51.799  0.00  0.00     0.000 A 
ATOM     13  C   UNL d   1      47.874  35.951  52.548  0.00  0.00     0.000 A 
ATOM     14  C   UNL d   1      48.544  35.656  52.913  0.00  0.00     0.001 A 
ENDBRANCH   8   9
ENDBRANCH   7   8
ENDBRANCH   4   7
BRANCH   3  15
ATOM     15  C   UNL d   1      53.073  33.408  53.875  0.00  0.00     0.101 A 
ATOM     16  N   UNL d   1      53.265  33.669  54.622  0.00  0.00    -0.242 NA
ATOM     17  C   UNL d   1      53.965  33.431  54.972  0.00  0.00     0.099 A 
ATOM     18  C   UNL d   1      54.480  32.922  54.562  0.00  0.00     0.021 A 
ATOM     19  C   UNL d   1      54.283  32.663  53.812  0.00  0.00     0.003 A 
ATOM     20  C   UNL d   1      53.578  32.900  53.454  0.00  0.00     0.021 A 
ENDBRANCH   3  15
TORSDOF 4
ENDMDL
MODEL 2
REMARK VINA RESULT:      -8.0      1.089      5.038
REMARK  4 active torsions:
REMARK  status: ('A' for Active; 'I' for Inactive)
REMARK    1  A    between atoms: C_5  and  C_3 
REMARK    2  A    between atoms: S_7  and  C_4 
REMARK    3  A    between atoms: C_10  and  S_7 
REMARK    4  A    between atoms: C_11  and  C_10 
ROOT
ATOM      1  N   UNL d   1      50.222  33.830  53.038  0.00  0.00    -0.146 NA
ATOM      2  N   UNL d   1      50.923  33.565  53.383  0.00  0.00    -0.141 NA
ATOM      3  C   UNL d   1      50.247  34.290  52.349  0.00  0.00     0.121 A 
ATOM      4  C   UNL d   1      51.648  33.751  53.051  0.00  0.00     0.132 A 
ATOM      5  C   UNL d   1      50.977  34.480  52.011  0.00  0.00     0.025 A 
ATOM      6  C   UNL d   1      51.675  34.214  52.358  0.00  0.00     0.029 A 
ENDROOT
BRANCH   4   7
ATOM      7  S   UNL d   1      52.349  33.486  53.396  0.00  0.00    -0.066 SA
BRANCH   7   8
ATOM      8  C   UNL d   1      52.539  33.697  54.166  0.00  0.00     0.037 C 
BRANCH   8   9
ATOM      9  C   UNL d   1      53.295  33.535  54.459  0.00  0.00     0.006 A 
ATOM     10  C   UNL d   1      53.569  32.775  54.462  0.00  0.00     0.001 A 
ATOM     11  C   UNL d   1      54.324  32.609  54.754  0.00  0.00     0.000 A 
ATOM     12  C   UNL d   1      54.795  33.213  55.041  0.00  0.00     0.000 A 
ATOM     13  C   UNL d   1      54.511  33.995  55.038  0.00  0.00     0.000 A 
ATOM     14  C   UNL d   1      53.762  34.148  54.746  0.00  0.00     0.001 A 
ENDBRANCH   8   9
ENDBRANCH   7   8
ENDBRANCH   4   7
BRANCH   3  15
ATOM     15  C   UNL d   1      49.546  34.555  52.004  0.00  0.00     0.101 A 
ATOM     16  N   UNL d   1      49.050  35.046  52.424  0.00  0.00    -0.242 NA
ATOM     17  C   UNL d   1      48.354  35.311  52.086  0.00  0.00     0.099 A 
ATOM     18  C   UNL d   1      48.155  35.078  51.312  0.00  0.00     0.021 A 
ATOM     19  C   UNL d   1      48.656  34.585  50.894  0.00  0.00     0.003 A 
ATOM     20  C   UNL d   1      49.360  34.315  51.231  0.00  0.00     0.021 A 
ENDBRANCH   3  15
TORSDOF 4
ENDMDL
MODEL 3
REMARK VINA RESULT:      -5.6     10.358     11.044
REMARK  4 active torsions:
REMARK  status: ('A' for Active; 'I' for Inactive)
REMARK    1  A    between atoms: C_5  and  C_3 
REMARK    2  A    between atoms: S_7  and  C_4 
REMARK    3  A    between atoms: C_10  and  S_7 
REMARK    4  A    between atoms: C_11  and  C_10 
ROOT
ATOM      1  N   UNL d   1      44.518  28.397  59.445  0.00  0.00    -0.146 NA
ATOM      2  N   UNL d   1      44.417  28.960  60.040  0.00  0.00    -0.141 NA
ATOM      3  C   UNL d   1      44.879  28.610  58.730  0.00  0.00     0.121 A 
ATOM      4  C   UNL d   1      44.669  29.731  59.932  0.00  0.00     0.132 A 
ATOM      5  C   UNL d   1      45.136  29.388  58.618  0.00  0.00     0.025 A 
ATOM      6  C   UNL d   1      45.033  29.947  59.214  0.00  0.00     0.029 A 
ENDROOT
BRANCH   4   7
ATOM      7  S   UNL d   1      44.568  30.294  60.527  0.00  0.00    -0.066 SA
BRANCH   7   8
ATOM      8  C   UNL d   1      44.736  30.106  61.309  0.00  0.00     0.037 C 
BRANCH   8   9
ATOM      9  C   UNL d   1      44.595  30.666  61.901  0.00  0.00     0.006 A 
ATOM     10  C   UNL d   1      44.463  31.437  61.702  0.00  0.00     0.001 A 
ATOM     11  C   UNL d   1      44.322  31.998  62.291  0.00  0.00     0.000 A 
ATOM     12  C   UNL d   1      44.316  31.775  63.078  0.00  0.00     0.000 A 
ATOM     13  C   UNL d   1      44.451  30.980  63.282  0.00  0.00     0.000 A 
ATOM     14  C   UNL d   1      44.590  30.433  62.691  0.00  0.00     0.001 A 
ENDBRANCH   8   9
ENDBRANCH   7   8
ENDBRANCH   4   7
BRANCH   3  15
ATOM     15  C   UNL d   1      44.981  28.048  58.135  0.00  0.00     0.101 A 
ATOM     16  N   UNL d   1      45.562  27.483  58.209  0.00  0.00    -0.242 NA
ATOM     17  C   UNL d   1      45.667  26.923  57.622  0.00  0.00     0.099 A 
ATOM     18  C   UNL d   1      45.177  26.934  56.949  0.00  0.00     0.021 A 
ATOM     19  C   UNL d   1      44.595  27.503  56.878  0.00  0.00     0.003 A 
ATOM     20  C   UNL d   1      44.485  28.070  57.469  0.00  0.00     0.021 A 
ENDBRANCH   3  15
TORSDOF 4
ENDMDL
MODEL 4
REMARK VINA RESULT:      -5.1     10.108     10.851
REMARK  4 active torsions:
REMARK  status: ('A' for Active; 'I' for Inactive)
REMARK    1  A    between atoms: C_5  and  C_3 
REMARK    2  A    between atoms: S_7  and  C_4 
REMARK    3  A    between atoms: C_10  and  S_7 
REMARK    4  A    between atoms: C_11  and  C_10 
ROOT
ATOM      1  N   UNL d   1      44.398  29.469  60.544  0.00  0.00    -0.146 NA
ATOM      2  N   UNL d   1      44.469  29.104  59.808  0.00  0.00    -0.141 NA
ATOM      3  C   UNL d   1      44.572  30.275  60.627  0.00  0.00     0.121 A 
ATOM      4  C   UNL d   1      44.712  29.532  59.153  0.00  0.00     0.132 A 
ATOM      5  C   UNL d   1      44.817  30.709  59.968  0.00  0.00     0.025 A 
ATOM      6  C   UNL d   1      44.887  30.343  59.234  0.00  0.00     0.029 A 
ENDROOT
BRANCH   4   7
ATOM      7  S   UNL d   1      44.783  29.167  58.416  0.00  0.00    -0.066 SA
BRANCH   7   8
ATOM      8  C   UNL d   1      45.369  28.608  58.285  0.00  0.00     0.037 C 
BRANCH   8   9
ATOM      9  C   UNL d   1      45.278  28.057  57.675  0.00  0.00     0.006 A 
ATOM     10  C   UNL d   1      44.938  28.283  56.978  0.00  0.00     0.001 A 
ATOM     11  C   UNL d   1      44.846  27.736  56.366  0.00  0.00     0.000 A 
ATOM     12  C   UNL d   1      45.098  26.964  56.464  0.00  0.00     0.000 A 
ATOM     13  C   UNL d   1      45.449  26.732  57.182  0.00  0.00     0.000 A 
ATOM     14  C   UNL d   1      45.535  27.283  57.781  0.00  0.00     0.001 A 
ENDBRANCH   8   9
ENDBRANCH   7   8
ENDBRANCH   4   7
BRANCH   3  15
ATOM     15  C   UNL d   1      44.500  30.640  61.364  0.00  0.00     0.101 A 
ATOM     16  N   UNL d   1      44.528  30.189  62.041  0.00  0.00    -0.242 NA
ATOM     17  C   UNL d   1      44.457  30.547  62.774  0.00  0.00     0.099 A 
ATOM     18  C   UNL d   1      44.358  31.371  62.824  0.00  0.00     0.021 A 
ATOM     19  C   UNL d   1      44.331  31.820  62.141  0.00  0.00     0.003 A 
ATOM     20  C   UNL d   1      44.402  31.464  61.399  0.00  0.00     0.021 A 
ENDBRANCH   3  15
TORSDOF 4
ENDMDL
