MODEL 1
REMARK VINA RESULT:      -3.4      0.000      0.000
REMARK  9 active torsions:
REMARK  status: ('A' for Active; 'I' for Inactive)
REMARK    1  A    between atoms: C_2  and  S_1 
REMARK    2  A    between atoms: N_3  and  S_1 
REMARK    3  A    between atoms: C_14  and  N_3 
REMARK    4  A    between atoms: C_15  and  N_3 
REMARK    5  A    between atoms: C_6  and  C_7 
REMARK    6  A    between atoms: C_7  and  C_8 
REMARK    7  A    between atoms: C_8  and  C_12 
REMARK    8  A    between atoms: C_21  and  C_14 
REMARK    9  A    between atoms: C_20  and  C_15 
ROOT
ATOM      1  C   UNL d   1      58.172  -0.585  30.142  0.00  0.00     0.104 A 
ATOM      2  C   UNL d   1      58.018   0.186  29.883  0.00  0.00     0.012 A 
ATOM      3  C   UNL d   1      57.842  -0.859  30.863  0.00  0.00     0.013 A 
ATOM      4  C   UNL d   1      57.371  -0.365  31.306  0.00  0.00     0.001 A 
ATOM      5  C   UNL d   1      57.547   0.680  30.325  0.00  0.00     0.001 A 
ATOM      6  C   UNL d   1      57.216   0.417  31.040  0.00  0.00     0.000 A 
ATOM      7  C   UNL d   1      58.346   0.449  29.172  0.00  0.00     0.001 C 
ENDROOT
BRANCH   1   8
ATOM      8  S   UNL d   1      58.656  -1.093  29.688  0.00  0.00     0.272 S 
ATOM      9  O   UNL d   1      58.039  -1.194  29.144  0.00  0.00    -0.200 OA
ATOM     10  O   UNL d   1      59.267  -0.992  30.227  0.00  0.00    -0.200 OA
BRANCH   8  11
ATOM     11  N   UNL d   1      59.128  -1.588  29.245  0.00  0.00    -0.223 N 
BRANCH  11  12
ATOM     12  C   UNL d   1      58.783  -2.220  28.812  0.00  0.00     0.137 C 
BRANCH  12  13
ATOM     13  C   UNL d   1      59.146  -2.949  28.797  0.00  0.00     0.254 C 
ATOM     14  O   UNL d   1      58.696  -3.637  28.792  0.00  0.00    -0.281 OA
ENDBRANCH  12  13
ENDBRANCH  11  12
BRANCH  11  15
ATOM     15  C   UNL d   1      59.949  -1.472  29.218  0.00  0.00     0.137 C 
BRANCH  15  16
ATOM     16  C   UNL d   1      60.311  -1.322  28.489  0.00  0.00     0.254 C 
ATOM     17  O   UNL d   1      61.133  -1.267  28.455  0.00  0.00    -0.281 OA
ENDBRANCH  15  16
ENDBRANCH  11  15
ENDBRANCH   8  11
ENDBRANCH   1   8
BRANCH   4  18
ATOM     18  C   UNL d   1      57.041  -0.623  32.015  0.00  0.00     0.006 C 
BRANCH  18  19
ATOM     19  C   UNL d   1      56.239  -0.775  32.063  0.00  0.00     0.070 C 
BRANCH  19  20
ATOM     20  C   UNL d   1      55.887  -1.004  32.769  0.00  0.00     0.211 C 
ATOM     21  O   UNL d   1      56.104  -1.734  33.115  0.00  0.00    -0.644 OA
ATOM     22  O   UNL d   1      55.336  -0.536  33.131  0.00  0.00    -0.644 OA
ENDBRANCH  19  20
ENDBRANCH  18  19
ENDBRANCH   4  18
TORSDOF 9
ENDMDL
MODEL 2
REMARK VINA RESULT:      -2.7      0.481      1.432
REMARK  9 active torsions:
REMARK  status: ('A' for Active; 'I' for Inactive)
REMARK    1  A    between atoms: C_2  and  S_1 
REMARK    2  A    between atoms: N_3  and  S_1 
REMARK    3  A    between atoms: C_14  and  N_3 
REMARK    4  A    between atoms: C_15  and  N_3 
REMARK    5  A    between atoms: C_6  and  C_7 
REMARK    6  A    between atoms: C_7  and  C_8 
REMARK    7  A    between atoms: C_8  and  C_12 
REMARK    8  A    between atoms: C_21  and  C_14 
REMARK    9  A    between atoms: C_20  and  C_15 
ROOT
ATOM      1  C   UNL d   1      57.932  -0.527  30.452  0.00  0.00     0.104 A 
ATOM      2  C   UNL d   1      57.803   0.282  30.338  0.00  0.00     0.012 A 
ATOM      3  C   UNL d   1      57.512  -0.939  31.050  0.00  0.00     0.013 A 
ATOM      4  C   UNL d   1      56.979  -0.540  31.517  0.00  0.00     0.001 A 
ATOM      5  C   UNL d   1      57.269   0.682  30.805  0.00  0.00     0.001 A 
ATOM      6  C   UNL d   1      56.850   0.282  31.399  0.00  0.00     0.000 A 
ATOM      7  C   UNL d   1      58.220   0.682  29.747  0.00  0.00     0.001 C 
ENDROOT
BRANCH   1   8
ATOM      8  S   UNL d   1      58.480  -0.938  29.973  0.00  0.00     0.272 S 
ATOM      9  O   UNL d   1      59.096  -0.478  30.284  0.00  0.00    -0.200 OA
ATOM     10  O   UNL d   1      57.870  -1.392  29.664  0.00  0.00    -0.200 OA
BRANCH   8  11
ATOM     11  N   UNL d   1      59.015  -1.338  29.505  0.00  0.00    -0.223 N 
BRANCH  11  12
ATOM     12  C   UNL d   1      59.833  -1.150  29.548  0.00  0.00     0.137 C 
BRANCH  12  13
ATOM     13  C   UNL d   1      60.259  -1.027  28.865  0.00  0.00     0.254 C 
ATOM     14  O   UNL d   1      61.036  -0.762  28.902  0.00  0.00    -0.281 OA
ENDBRANCH  12  13
ENDBRANCH  11  12
BRANCH  11  15
ATOM     15  C   UNL d   1      58.757  -1.931  28.985  0.00  0.00     0.137 C 
BRANCH  15  16
ATOM     16  C   UNL d   1      59.088  -2.687  29.041  0.00  0.00     0.254 C 
ATOM     17  O   UNL d   1      58.851  -3.266  28.503  0.00  0.00    -0.281 OA
ENDBRANCH  15  16
ENDBRANCH  11  15
ENDBRANCH   8  11
ENDBRANCH   1   8
BRANCH   4  18
ATOM     18  C   UNL d   1      56.560  -0.934  32.108  0.00  0.00     0.006 C 
BRANCH  18  19
ATOM     19  C   UNL d   1      56.262  -0.517  32.746  0.00  0.00     0.070 C 
BRANCH  19  20
ATOM     20  C   UNL d   1      55.703  -0.846  33.249  0.00  0.00     0.211 C 
ATOM     21  O   UNL d   1      55.762  -1.656  33.451  0.00  0.00    -0.644 OA
ATOM     22  O   UNL d   1      55.099  -0.401  33.550  0.00  0.00    -0.644 OA
ENDBRANCH  19  20
ENDBRANCH  18  19
ENDBRANCH   4  18
TORSDOF 9
ENDMDL
MODEL 3
REMARK VINA RESULT:      -2.1      1.497      4.322
REMARK  9 active torsions:
REMARK  status: ('A' for Active; 'I' for Inactive)
REMARK    1  A    between atoms: C_2  and  S_1 
REMARK    2  A    between atoms: N_3  and  S_1 
REMARK    3  A    between atoms: C_14  and  N_3 
REMARK    4  A    between atoms: C_15  and  N_3 
REMARK    5  A    between atoms: C_6  and  C_7 
REMARK    6  A    between atoms: C_7  and  C_8 
REMARK    7  A    between atoms: C_8  and  C_12 
REMARK    8  A    between atoms: C_21  and  C_14 
REMARK    9  A    between atoms: C_20  and  C_15 
ROOT
ATOM      1  C   UNL d   1      57.751  -0.603  30.566  0.00  0.00     0.104 A 
ATOM      2  C   UNL d   1      57.772  -0.058  29.943  0.00  0.00     0.012 A 
ATOM      3  C   UNL d   1      58.108  -1.357  30.477  0.00  0.00     0.013 A 
ATOM      4  C   UNL d   1      58.474  -1.550  29.776  0.00  0.00     0.001 A 
ATOM      5  C   UNL d   1      58.138  -0.252  29.242  0.00  0.00     0.001 A 
ATOM      6  C   UNL d   1      58.494  -0.995  29.145  0.00  0.00     0.000 A 
ATOM      7  C   UNL d   1      57.419   0.682  30.037  0.00  0.00     0.001 C 
ENDROOT
BRANCH   1   8
ATOM      8  S   UNL d   1      57.375  -0.405  31.285  0.00  0.00     0.272 S 
ATOM      9  O   UNL d   1      57.738   0.341  31.269  0.00  0.00    -0.200 OA
ATOM     10  O   UNL d   1      57.016  -1.143  31.301  0.00  0.00    -0.200 OA
BRANCH   8  11
ATOM     11  N   UNL d   1      57.009  -0.211  31.987  0.00  0.00    -0.223 N 
BRANCH  11  12
ATOM     12  C   UNL d   1      57.318   0.406  32.467  0.00  0.00     0.137 C 
BRANCH  12  13
ATOM     13  C   UNL d   1      57.384   0.302  33.271  0.00  0.00     0.254 C 
ATOM     14  O   UNL d   1      57.978   0.682  33.693  0.00  0.00    -0.281 OA
ENDBRANCH  12  13
ENDBRANCH  11  12
BRANCH  11  15
ATOM     15  C   UNL d   1      56.329  -0.620  32.233  0.00  0.00     0.137 C 
BRANCH  15  16
ATOM     16  C   UNL d   1      55.759  -0.220  32.680  0.00  0.00     0.254 C 
ATOM     17  O   UNL d   1      55.184  -0.659  33.076  0.00  0.00    -0.281 OA
ENDBRANCH  15  16
ENDBRANCH  11  15
ENDBRANCH   8  11
ENDBRANCH   1   8
BRANCH   4  18
ATOM     18  C   UNL d   1      58.828  -2.288  29.677  0.00  0.00     0.006 C 
BRANCH  18  19
ATOM     19  C   UNL d   1      58.931  -2.594  28.926  0.00  0.00     0.070 C 
BRANCH  19  20
ATOM     20  C   UNL d   1      59.138  -3.381  28.808  0.00  0.00     0.211 C 
ATOM     21  O   UNL d   1      58.535  -3.958  28.750  0.00  0.00    -0.644 OA
ATOM     22  O   UNL d   1      59.913  -3.604  28.748  0.00  0.00    -0.644 OA
ENDBRANCH  19  20
ENDBRANCH  18  19
ENDBRANCH   4  18
TORSDOF 9
ENDMDL
MODEL 4
REMARK VINA RESULT:      -1.9      2.070      4.810
REMARK  9 active torsions:
REMARK  status: ('A' for Active; 'I' for Inactive)
REMARK    1  A    between atoms: C_2  and  S_1 
REMARK    2  A    between atoms: N_3  and  S_1 
REMARK    3  A    between atoms: C_14  and  N_3 
REMARK    4  A    between atoms: C_15  and  N_3 
REMARK    5  A    between atoms: C_6  and  C_7 
REMARK    6  A    between atoms: C_7  and  C_8 
REMARK    7  A    between atoms: C_8  and  C_12 
REMARK    8  A    between atoms: C_21  and  C_14 
REMARK    9  A    between atoms: C_20  and  C_15 
ROOT
ATOM      1  C   UNL d   1      57.225   0.163  32.290  0.00  0.00     0.104 A 
ATOM      2  C   UNL d   1      57.881   0.495  32.671  0.00  0.00     0.012 A 
ATOM      3  C   UNL d   1      57.248   0.017  31.464  0.00  0.00     0.013 A 
ATOM      4  C   UNL d   1      57.918   0.204  31.040  0.00  0.00     0.001 A 
ATOM      5  C   UNL d   1      58.550   0.682  32.247  0.00  0.00     0.001 A 
ATOM      6  C   UNL d   1      58.582   0.541  31.429  0.00  0.00     0.000 A 
ATOM      7  C   UNL d   1      57.851   0.636  33.484  0.00  0.00     0.001 C 
ENDROOT
BRANCH   1   8
ATOM      8  S   UNL d   1      56.538  -0.029  32.726  0.00  0.00     0.272 S 
ATOM      9  O   UNL d   1      56.955  -0.626  33.121  0.00  0.00    -0.200 OA
ATOM     10  O   UNL d   1      56.125   0.563  32.334  0.00  0.00    -0.200 OA
BRANCH   8  11
ATOM     11  N   UNL d   1      55.868  -0.215  33.150  0.00  0.00    -0.223 N 
BRANCH  11  12
ATOM     12  C   UNL d   1      55.768  -0.992  33.456  0.00  0.00     0.137 C 
BRANCH  12  13
ATOM     13  C   UNL d   1      55.526  -1.594  32.965  0.00  0.00     0.254 C 
ATOM     14  O   UNL d   1      55.087  -2.223  33.262  0.00  0.00    -0.281 OA
ENDBRANCH  12  13
ENDBRANCH  11  12
BRANCH  11  15
ATOM     15  C   UNL d   1      55.282   0.357  33.284  0.00  0.00     0.137 C 
BRANCH  15  16
ATOM     16  C   UNL d   1      54.908   0.386  34.021  0.00  0.00     0.254 C 
ATOM     17  O   UNL d   1      54.139   0.681  34.067  0.00  0.00    -0.281 OA
ENDBRANCH  15  16
ENDBRANCH  11  15
ENDBRANCH   8  11
ENDBRANCH   1   8
BRANCH   4  18
ATOM     18  C   UNL d   1      57.952   0.066  30.228  0.00  0.00     0.006 C 
BRANCH  18  19
ATOM     19  C   UNL d   1      58.612   0.295  29.802  0.00  0.00     0.070 C 
BRANCH  19  20
ATOM     20  C   UNL d   1      58.764  -0.006  29.053  0.00  0.00     0.211 C 
ATOM     21  O   UNL d   1      58.162  -0.427  28.652  0.00  0.00    -0.644 OA
ATOM     22  O   UNL d   1      59.484   0.097  28.700  0.00  0.00    -0.644 OA
ENDBRANCH  19  20
ENDBRANCH  18  19
ENDBRANCH   4  18
TORSDOF 9
ENDMDL
MODEL 5
REMARK VINA RESULT:      -1.2      2.164      2.914
REMARK  9 active torsions:
REMARK  status: ('A' for Active; 'I' for Inactive)
REMARK    1  A    between atoms: C_2  and  S_1 
REMARK    2  A    between atoms: N_3  and  S_1 
REMARK    3  A    between atoms: C_14  and  N_3 
REMARK    4  A    between atoms: C_15  and  N_3 
REMARK    5  A    between atoms: C_6  and  C_7 
REMARK    6  A    between atoms: C_7  and  C_8 
REMARK    7  A    between atoms: C_8  and  C_12 
REMARK    8  A    between atoms: C_21  and  C_14 
REMARK    9  A    between atoms: C_20  and  C_15 
ROOT
ATOM      1  C   UNL d   1      56.800  -0.164  31.845  0.00  0.00     0.104 A 
ATOM      2  C   UNL d   1      56.714  -0.981  31.950  0.00  0.00     0.012 A 
ATOM      3  C   UNL d   1      56.373   0.369  32.332  0.00  0.00     0.013 A 
ATOM      4  C   UNL d   1      55.875   0.080  32.908  0.00  0.00     0.001 A 
ATOM      5  C   UNL d   1      56.216  -1.270  32.525  0.00  0.00     0.001 A 
ATOM      6  C   UNL d   1      55.790  -0.750  33.012  0.00  0.00     0.000 A 
ATOM      7  C   UNL d   1      57.137  -1.500  31.467  0.00  0.00     0.001 C 
ENDROOT
BRANCH   1   8
ATOM      8  S   UNL d   1      57.311   0.133  31.255  0.00  0.00     0.272 S 
ATOM      9  O   UNL d   1      57.715   0.576  31.827  0.00  0.00    -0.200 OA
ATOM     10  O   UNL d   1      56.911  -0.306  30.688  0.00  0.00    -0.200 OA
BRANCH   8  11
ATOM     11  N   UNL d   1      57.810   0.422  30.679  0.00  0.00    -0.223 N 
BRANCH  11  12
ATOM     12  C   UNL d   1      57.543   0.484  29.884  0.00  0.00     0.137 C 
BRANCH  12  13
ATOM     13  C   UNL d   1      58.068   0.673  29.292  0.00  0.00     0.254 C 
ATOM     14  O   UNL d   1      57.854   0.588  28.503  0.00  0.00    -0.281 OA
ENDBRANCH  12  13
ENDBRANCH  11  12
BRANCH  11  15
ATOM     15  C   UNL d   1      58.583   0.656  30.871  0.00  0.00     0.137 C 
BRANCH  15  16
ATOM     16  C   UNL d   1      59.214   0.377  30.415  0.00  0.00     0.254 C 
ATOM     17  O   UNL d   1      59.969   0.680  30.550  0.00  0.00    -0.281 OA
ENDBRANCH  15  16
ENDBRANCH  11  15
ENDBRANCH   8  11
ENDBRANCH   1   8
BRANCH   4  18
ATOM     18  C   UNL d   1      55.451   0.594  33.393  0.00  0.00     0.006 C 
BRANCH  18  19
ATOM     19  C   UNL d   1      55.657   0.677  34.180  0.00  0.00     0.070 C 
BRANCH  19  20
ATOM     20  C   UNL d   1      55.107   0.569  34.780  0.00  0.00     0.211 C 
ATOM     21  O   UNL d   1      55.372   0.345  35.542  0.00  0.00    -0.644 OA
ATOM     22  O   UNL d   1      54.317   0.677  34.646  0.00  0.00    -0.644 OA
ENDBRANCH  19  20
ENDBRANCH  18  19
ENDBRANCH   4  18
TORSDOF 9
ENDMDL
MODEL 6
REMARK VINA RESULT:      -0.7      1.121      1.443
REMARK  9 active torsions:
REMARK  status: ('A' for Active; 'I' for Inactive)
REMARK    1  A    between atoms: C_2  and  S_1 
REMARK    2  A    between atoms: N_3  and  S_1 
REMARK    3  A    between atoms: C_14  and  N_3 
REMARK    4  A    between atoms: C_15  and  N_3 
REMARK    5  A    between atoms: C_6  and  C_7 
REMARK    6  A    between atoms: C_7  and  C_8 
REMARK    7  A    between atoms: C_8  and  C_12 
REMARK    8  A    between atoms: C_21  and  C_14 
REMARK    9  A    between atoms: C_20  and  C_15 
ROOT
ATOM      1  C   UNL d   1      57.930  -0.135  31.147  0.00  0.00     0.104 A 
ATOM      2  C   UNL d   1      58.398   0.411  31.557  0.00  0.00     0.012 A 
ATOM      3  C   UNL d   1      57.213  -0.411  31.483  0.00  0.00     0.013 A 
ATOM      4  C   UNL d   1      56.979  -0.139  32.214  0.00  0.00     0.001 A 
ATOM      5  C   UNL d   1      58.165   0.682  32.288  0.00  0.00     0.001 A 
ATOM      6  C   UNL d   1      57.456   0.415  32.629  0.00  0.00     0.000 A 
ATOM      7  C   UNL d   1      59.103   0.677  31.220  0.00  0.00     0.001 C 
ENDROOT
BRANCH   1   8
ATOM      8  S   UNL d   1      58.169  -0.414  30.396  0.00  0.00     0.272 S 
ATOM      9  O   UNL d   1      57.493  -0.077  30.055  0.00  0.00    -0.200 OA
ATOM     10  O   UNL d   1      58.839  -0.747  30.734  0.00  0.00    -0.200 OA
BRANCH   8  11
ATOM     11  N   UNL d   1      58.403  -0.685  29.664  0.00  0.00    -0.223 N 
BRANCH  11  12
ATOM     12  C   UNL d   1      58.118  -1.423  29.379  0.00  0.00     0.137 C 
BRANCH  12  13
ATOM     13  C   UNL d   1      58.635  -2.042  29.264  0.00  0.00     0.254 C 
ATOM     14  O   UNL d   1      58.353  -2.810  29.183  0.00  0.00    -0.281 OA
ENDBRANCH  12  13
ENDBRANCH  11  12
BRANCH  11  15
ATOM     15  C   UNL d   1      58.922  -0.238  29.196  0.00  0.00     0.137 C 
BRANCH  15  16
ATOM     16  C   UNL d   1      59.385  -0.622  28.628  0.00  0.00     0.254 C 
ATOM     17  O   UNL d   1      60.135  -0.323  28.456  0.00  0.00    -0.281 OA
ENDBRANCH  15  16
ENDBRANCH  11  15
ENDBRANCH   8  11
ENDBRANCH   1   8
BRANCH   4  18
ATOM     18  C   UNL d   1      56.276  -0.402  32.555  0.00  0.00     0.006 C 
BRANCH  18  19
ATOM     19  C   UNL d   1      55.852   0.091  33.051  0.00  0.00     0.070 C 
BRANCH  19  20
ATOM     20  C   UNL d   1      55.071  -0.070  33.249  0.00  0.00     0.211 C 
ATOM     21  O   UNL d   1      54.541   0.567  33.369  0.00  0.00    -0.644 OA
ATOM     22  O   UNL d   1      54.810  -0.830  33.331  0.00  0.00    -0.644 OA
ENDBRANCH  19  20
ENDBRANCH  18  19
ENDBRANCH   4  18
TORSDOF 9
ENDMDL
