MODEL 1
REMARK VINA RESULT:     -10.3      0.000      0.000
REMARK  3 active torsions:
REMARK  status: ('A' for Active; 'I' for Inactive)
REMARK    1  A    between atoms: C_4  and  C_1 
REMARK       I    between atoms: N_7  and  C_4 
REMARK    2  A    between atoms: C_9  and  N_7 
REMARK    3  A    between atoms: N_8  and  C_11 
ROOT
ATOM      1  C   UNL d   1     -49.018  11.854  23.074  0.00  0.00     0.263 C 
ATOM      2  N   UNL d   1     -48.317  12.283  23.071  0.00  0.00    -0.210 NA
ATOM      3  O   UNL d   1     -49.017  11.049  23.264  0.00  0.00    -0.270 OA
ENDROOT
BRANCH   1   4
ATOM      4  C   UNL d   1     -49.599  12.406  22.862  0.00  0.00     0.113 A 
ATOM      5  C   UNL d   1     -50.573  13.424  22.810  0.00  0.00     0.025 A 
ATOM      6  C   UNL d   1     -50.082  12.857  22.661  0.00  0.00     0.074 A 
ATOM      7  C   UNL d   1     -50.891  13.935  23.383  0.00  0.00     0.002 C 
ATOM      8  C   UNL d   1     -51.064  13.772  22.240  0.00  0.00     0.002 C 
ATOM      9  C   UNL d   1     -50.513  13.115  22.003  0.00  0.00     0.012 C 
ATOM     10  C   UNL d   1     -49.706  12.633  23.235  0.00  0.00    -0.023 A 
ATOM     11  C   UNL d   1     -49.897  12.444  21.943  0.00  0.00     0.172 A 
ATOM     12  C   UNL d   1     -49.241  12.238  23.561  0.00  0.00    -0.018 A 
ATOM     13  C   UNL d   1     -49.464  12.065  22.207  0.00  0.00     0.024 A 
ATOM     14  O   UNL d   1     -50.184  12.514  21.168  0.00  0.00    -0.291 OA
ENDBRANCH   1   4
BRANCH   2  15
ATOM     15  C   UNL d   1     -47.603  11.901  23.262  0.00  0.00     0.100 A 
ATOM     16  C   UNL d   1     -46.894  12.318  23.197  0.00  0.00     0.082 A 
ATOM     17  C   UNL d   1     -46.189  11.939  23.385  0.00  0.00     0.019 A 
ATOM     18  C   UNL d   1     -46.187  11.148  23.638  0.00  0.00     0.002 A 
ATOM     19  C   UNL d   1     -46.903  10.742  23.698  0.00  0.00     0.002 A 
ATOM     20  C   UNL d   1     -47.609  11.116  23.511  0.00  0.00     0.021 A 
BRANCH  16  21
ATOM     21  N   UNL d   1     -46.897  13.105  22.946  0.00  0.00    -0.302 N 
ATOM     22  C   UNL d   1     -46.971  13.764  23.437  0.00  0.00     0.080 A 
ATOM     23  C   UNL d   1     -46.946  14.444  22.959  0.00  0.00     0.021 A 
ATOM     24  C   UNL d   1     -46.858  14.195  22.175  0.00  0.00     0.021 A 
ATOM     25  C   UNL d   1     -46.827  13.367  22.165  0.00  0.00     0.080 A 
ENDBRANCH  16  21
ENDBRANCH   2  15
TORSDOF 3
ENDMDL
MODEL 2
REMARK VINA RESULT:      -9.7      1.678      3.966
REMARK  3 active torsions:
REMARK  status: ('A' for Active; 'I' for Inactive)
REMARK    1  A    between atoms: C_4  and  C_1 
REMARK       I    between atoms: N_7  and  C_4 
REMARK    2  A    between atoms: C_9  and  N_7 
REMARK    3  A    between atoms: N_8  and  C_11 
ROOT
ATOM      1  C   UNL d   1     -47.242  14.051  22.969  0.00  0.00     0.263 C 
ATOM      2  N   UNL d   1     -47.969  13.769  22.706  0.00  0.00    -0.210 NA
ATOM      3  O   UNL d   1     -47.149  14.848  23.170  0.00  0.00    -0.270 OA
ENDROOT
BRANCH   1   4
ATOM      4  C   UNL d   1     -46.747  13.386  22.959  0.00  0.00     0.113 A 
ATOM      5  C   UNL d   1     -46.095  12.155  23.174  0.00  0.00     0.025 A 
ATOM      6  C   UNL d   1     -46.320  12.844  22.931  0.00  0.00     0.074 A 
ATOM      7  C   UNL d   1     -46.233  11.524  23.698  0.00  0.00     0.002 C 
ATOM      8  C   UNL d   1     -45.444  11.744  22.866  0.00  0.00     0.002 C 
ATOM      9  C   UNL d   1     -45.655  12.545  22.539  0.00  0.00     0.012 C 
ATOM     10  C   UNL d   1     -46.900  13.104  23.273  0.00  0.00    -0.023 A 
ATOM     11  C   UNL d   1     -46.011  13.359  22.331  0.00  0.00     0.172 A 
ATOM     12  C   UNL d   1     -47.389  13.576  23.401  0.00  0.00    -0.018 A 
ATOM     13  C   UNL d   1     -46.444  13.813  22.420  0.00  0.00     0.024 A 
ATOM     14  O   UNL d   1     -45.369  13.290  21.811  0.00  0.00    -0.291 OA
ENDBRANCH   1   4
BRANCH   2  15
ATOM     15  C   UNL d   1     -48.612  14.293  22.645  0.00  0.00     0.100 A 
ATOM     16  C   UNL d   1     -49.317  14.025  22.311  0.00  0.00     0.082 A 
ATOM     17  C   UNL d   1     -49.953  14.543  22.250  0.00  0.00     0.019 A 
ATOM     18  C   UNL d   1     -49.888  15.326  22.520  0.00  0.00     0.002 A 
ATOM     19  C   UNL d   1     -49.177  15.581  22.853  0.00  0.00     0.002 A 
ATOM     20  C   UNL d   1     -48.541  15.067  22.915  0.00  0.00     0.021 A 
BRANCH  16  21
ATOM     21  N   UNL d   1     -49.380  13.246  22.042  0.00  0.00    -0.302 N 
ATOM     22  C   UNL d   1     -49.633  12.604  22.492  0.00  0.00     0.080 A 
ATOM     23  C   UNL d   1     -49.613  11.928  22.008  0.00  0.00     0.021 A 
ATOM     24  C   UNL d   1     -49.346  12.163  21.261  0.00  0.00     0.021 A 
ATOM     25  C   UNL d   1     -49.201  12.978  21.280  0.00  0.00     0.080 A 
ENDBRANCH  16  21
ENDBRANCH   2  15
TORSDOF 3
ENDMDL
MODEL 3
REMARK VINA RESULT:      -9.4      1.287      3.267
REMARK  3 active torsions:
REMARK  status: ('A' for Active; 'I' for Inactive)
REMARK    1  A    between atoms: C_4  and  C_1 
REMARK       I    between atoms: N_7  and  C_4 
REMARK    2  A    between atoms: C_9  and  N_7 
REMARK    3  A    between atoms: N_8  and  C_11 
ROOT
ATOM      1  C   UNL d   1     -48.188  12.331  22.966  0.00  0.00     0.263 C 
ATOM      2  N   UNL d   1     -48.770  12.898  23.093  0.00  0.00    -0.210 NA
ATOM      3  O   UNL d   1     -48.362  11.526  23.039  0.00  0.00    -0.270 OA
ENDROOT
BRANCH   1   4
ATOM      4  C   UNL d   1     -47.509  12.770  22.778  0.00  0.00     0.113 A 
ATOM      5  C   UNL d   1     -46.346  13.566  22.774  0.00  0.00     0.025 A 
ATOM      6  C   UNL d   1     -46.948  13.129  22.596  0.00  0.00     0.074 A 
ATOM      7  C   UNL d   1     -45.915  13.944  23.375  0.00  0.00     0.002 C 
ATOM      8  C   UNL d   1     -45.807  13.858  22.216  0.00  0.00     0.002 C 
ATOM      9  C   UNL d   1     -46.488  13.354  21.946  0.00  0.00     0.012 C 
ATOM     10  C   UNL d   1     -47.348  12.934  23.165  0.00  0.00    -0.023 A 
ATOM     11  C   UNL d   1     -47.232  12.832  21.854  0.00  0.00     0.172 A 
ATOM     12  C   UNL d   1     -47.878  12.614  23.474  0.00  0.00    -0.018 A 
ATOM     13  C   UNL d   1     -47.728  12.527  22.102  0.00  0.00     0.024 A 
ATOM     14  O   UNL d   1     -46.955  12.914  21.077  0.00  0.00    -0.291 OA
ENDBRANCH   1   4
BRANCH   2  15
ATOM     15  C   UNL d   1     -49.539  12.655  23.296  0.00  0.00     0.100 A 
ATOM     16  C   UNL d   1     -50.144  13.215  23.318  0.00  0.00     0.082 A 
ATOM     17  C   UNL d   1     -50.904  12.975  23.519  0.00  0.00     0.019 A 
ATOM     18  C   UNL d   1     -51.064  12.179  23.698  0.00  0.00     0.002 A 
ATOM     19  C   UNL d   1     -50.449  11.629  23.672  0.00  0.00     0.002 A 
ATOM     20  C   UNL d   1     -49.689  11.865  23.472  0.00  0.00     0.021 A 
BRANCH  16  21
ATOM     21  N   UNL d   1     -49.984  14.006  23.140  0.00  0.00    -0.302 N 
ATOM     22  C   UNL d   1     -50.021  14.344  22.388  0.00  0.00     0.080 A 
ATOM     23  C   UNL d   1     -49.820  15.148  22.459  0.00  0.00     0.021 A 
ATOM     24  C   UNL d   1     -49.661  15.297  23.257  0.00  0.00     0.021 A 
ATOM     25  C   UNL d   1     -49.762  14.591  23.680  0.00  0.00     0.080 A 
ENDBRANCH  16  21
ENDBRANCH   2  15
TORSDOF 3
ENDMDL
MODEL 4
REMARK VINA RESULT:      -7.9      8.440     10.295
REMARK  3 active torsions:
REMARK  status: ('A' for Active; 'I' for Inactive)
REMARK    1  A    between atoms: C_4  and  C_1 
REMARK       I    between atoms: N_7  and  C_4 
REMARK    2  A    between atoms: C_9  and  N_7 
REMARK    3  A    between atoms: N_8  and  C_11 
ROOT
ATOM      1  C   UNL d   1     -40.469  14.308  18.257  0.00  0.00     0.263 C 
ATOM      2  N   UNL d   1     -40.061  14.543  18.930  0.00  0.00    -0.210 NA
ATOM      3  O   UNL d   1     -41.252  14.048  18.309  0.00  0.00    -0.270 OA
ENDROOT
BRANCH   1   4
ATOM      4  C   UNL d   1     -39.923  14.407  17.640  0.00  0.00     0.113 A 
ATOM      5  C   UNL d   1     -38.883  14.296  16.695  0.00  0.00     0.025 A 
ATOM      6  C   UNL d   1     -39.481  14.512  17.120  0.00  0.00     0.074 A 
ATOM      7  C   UNL d   1     -38.297  13.722  16.561  0.00  0.00     0.002 C 
ATOM      8  C   UNL d   1     -38.585  14.736  16.058  0.00  0.00     0.002 C 
ATOM      9  C   UNL d   1     -39.286  15.042  16.514  0.00  0.00     0.012 C 
ATOM     10  C   UNL d   1     -39.650  14.049  17.647  0.00  0.00    -0.023 A 
ATOM     11  C   UNL d   1     -39.982  15.196  17.084  0.00  0.00     0.172 A 
ATOM     12  C   UNL d   1     -40.022  13.828  18.187  0.00  0.00    -0.018 A 
ATOM     13  C   UNL d   1     -40.343  15.026  17.575  0.00  0.00     0.024 A 
ATOM     14  O   UNL d   1     -39.992  15.856  16.582  0.00  0.00    -0.291 OA
ENDBRANCH   1   4
BRANCH   2  15
ATOM     15  C   UNL d   1     -40.442  14.518  19.669  0.00  0.00     0.100 A 
ATOM     16  C   UNL d   1     -40.044  14.794  20.336  0.00  0.00     0.082 A 
ATOM     17  C   UNL d   1     -40.422  14.768  21.067  0.00  0.00     0.019 A 
ATOM     18  C   UNL d   1     -41.195  14.469  21.133  0.00  0.00     0.002 A 
ATOM     19  C   UNL d   1     -41.582  14.196  20.457  0.00  0.00     0.002 A 
ATOM     20  C   UNL d   1     -41.207  14.220  19.727  0.00  0.00     0.021 A 
BRANCH  16  21
ATOM     21  N   UNL d   1     -39.276  15.091  20.269  0.00  0.00    -0.302 N 
ATOM     22  C   UNL d   1     -38.584  14.645  20.322  0.00  0.00     0.080 A 
ATOM     23  C   UNL d   1     -37.940  15.161  20.223  0.00  0.00     0.021 A 
ATOM     24  C   UNL d   1     -38.243  15.922  20.109  0.00  0.00     0.021 A 
ATOM     25  C   UNL d   1     -39.070  15.881  20.137  0.00  0.00     0.080 A 
ENDBRANCH  16  21
ENDBRANCH   2  15
TORSDOF 3
ENDMDL
MODEL 5
REMARK VINA RESULT:      -7.7      8.705     10.070
REMARK  3 active torsions:
REMARK  status: ('A' for Active; 'I' for Inactive)
REMARK    1  A    between atoms: C_4  and  C_1 
REMARK       I    between atoms: N_7  and  C_4 
REMARK    2  A    between atoms: C_9  and  N_7 
REMARK    3  A    between atoms: N_8  and  C_11 
ROOT
ATOM      1  C   UNL d   1     -40.609  15.460  19.570  0.00  0.00     0.263 C 
ATOM      2  N   UNL d   1     -40.168  15.134  18.958  0.00  0.00    -0.210 NA
ATOM      3  O   UNL d   1     -41.277  15.920  19.409  0.00  0.00    -0.270 OA
ENDROOT
BRANCH   1   4
ATOM      4  C   UNL d   1     -40.220  15.210  20.260  0.00  0.00     0.113 A 
ATOM      5  C   UNL d   1     -39.362  15.025  21.362  0.00  0.00     0.025 A 
ATOM      6  C   UNL d   1     -39.916  14.984  20.837  0.00  0.00     0.074 A 
ATOM      7  C   UNL d   1     -38.676  15.418  21.620  0.00  0.00     0.002 C 
ATOM      8  C   UNL d   1     -39.302  14.514  22.013  0.00  0.00     0.002 C 
ATOM      9  C   UNL d   1     -39.972  14.414  21.435  0.00  0.00     0.012 C 
ATOM     10  C   UNL d   1     -39.865  15.481  20.316  0.00  0.00    -0.023 A 
ATOM     11  C   UNL d   1     -40.578  14.460  20.754  0.00  0.00     0.172 A 
ATOM     12  C   UNL d   1     -40.069  15.800  19.737  0.00  0.00    -0.018 A 
ATOM     13  C   UNL d   1     -40.794  14.727  20.222  0.00  0.00     0.024 A 
ATOM     14  O   UNL d   1     -40.847  13.822  21.211  0.00  0.00    -0.291 OA
ENDBRANCH   1   4
BRANCH   2  15
ATOM     15  C   UNL d   1     -40.399  15.271  18.171  0.00  0.00     0.100 A 
ATOM     16  C   UNL d   1     -39.996  14.888  17.562  0.00  0.00     0.082 A 
ATOM     17  C   UNL d   1     -40.225  15.024  16.783  0.00  0.00     0.019 A 
ATOM     18  C   UNL d   1     -40.853  15.539  16.610  0.00  0.00     0.002 A 
ATOM     19  C   UNL d   1     -41.248  15.916  17.229  0.00  0.00     0.002 A 
ATOM     20  C   UNL d   1     -41.022  15.783  18.007  0.00  0.00     0.021 A 
BRANCH  16  21
ATOM     21  N   UNL d   1     -39.371  14.376  17.735  0.00  0.00    -0.302 N 
ATOM     22  C   UNL d   1     -38.580  14.595  17.813  0.00  0.00     0.080 A 
ATOM     23  C   UNL d   1     -38.141  13.911  17.987  0.00  0.00     0.021 A 
ATOM     24  C   UNL d   1     -38.669  13.274  18.014  0.00  0.00     0.021 A 
ATOM     25  C   UNL d   1     -39.430  13.560  17.858  0.00  0.00     0.080 A 
ENDBRANCH  16  21
ENDBRANCH   2  15
TORSDOF 3
ENDMDL
MODEL 6
REMARK VINA RESULT:      -7.4      8.366     10.161
REMARK  3 active torsions:
REMARK  status: ('A' for Active; 'I' for Inactive)
REMARK    1  A    between atoms: C_4  and  C_1 
REMARK       I    between atoms: N_7  and  C_4 
REMARK    2  A    between atoms: C_9  and  N_7 
REMARK    3  A    between atoms: N_8  and  C_11 
ROOT
ATOM      1  C   UNL d   1     -38.694  14.050  19.263  0.00  0.00     0.263 C 
ATOM      2  N   UNL d   1     -39.166  14.335  19.873  0.00  0.00    -0.210 NA
ATOM      3  O   UNL d   1     -38.045  13.565  19.426  0.00  0.00    -0.270 OA
ENDROOT
BRANCH   1   4
ATOM      4  C   UNL d   1     -39.036  14.362  18.575  0.00  0.00     0.113 A 
ATOM      5  C   UNL d   1     -39.447  15.148  17.479  0.00  0.00     0.025 A 
ATOM      6  C   UNL d   1     -39.334  14.598  17.998  0.00  0.00     0.074 A 
ATOM      7  C   UNL d   1     -39.263  15.921  17.235  0.00  0.00     0.002 C 
ATOM      8  C   UNL d   1     -39.947  15.069  16.822  0.00  0.00     0.002 C 
ATOM      9  C   UNL d   1     -39.858  14.391  17.391  0.00  0.00     0.012 C 
ATOM     10  C   UNL d   1     -38.878  14.779  18.527  0.00  0.00    -0.023 A 
ATOM     11  C   UNL d   1     -39.649  13.812  18.066  0.00  0.00     0.172 A 
ATOM     12  C   UNL d   1     -38.520  14.666  19.108  0.00  0.00    -0.018 A 
ATOM     13  C   UNL d   1     -39.337  13.674  18.599  0.00  0.00     0.024 A 
ATOM     14  O   UNL d   1     -40.179  13.380  17.597  0.00  0.00    -0.291 OA
ENDBRANCH   1   4
BRANCH   2  15
ATOM     15  C   UNL d   1     -38.985  14.131  20.659  0.00  0.00     0.100 A 
ATOM     16  C   UNL d   1     -39.476  14.395  21.266  0.00  0.00     0.082 A 
ATOM     17  C   UNL d   1     -39.297  14.193  22.043  0.00  0.00     0.019 A 
ATOM     18  C   UNL d   1     -38.630  13.729  22.216  0.00  0.00     0.002 A 
ATOM     19  C   UNL d   1     -38.146  13.470  21.599  0.00  0.00     0.002 A 
ATOM     20  C   UNL d   1     -38.323  13.670  20.823  0.00  0.00     0.021 A 
BRANCH  16  21
ATOM     21  N   UNL d   1     -40.139  14.857  21.092  0.00  0.00    -0.302 N 
ATOM     22  C   UNL d   1     -40.151  15.681  21.053  0.00  0.00     0.080 A 
ATOM     23  C   UNL d   1     -40.926  15.916  20.864  0.00  0.00     0.021 A 
ATOM     24  C   UNL d   1     -41.385  15.232  20.788  0.00  0.00     0.021 A 
ATOM     25  C   UNL d   1     -40.899  14.575  20.929  0.00  0.00     0.080 A 
ENDBRANCH  16  21
ENDBRANCH   2  15
TORSDOF 3
ENDMDL
