MODEL 1
REMARK VINA RESULT:      39.7      0.000      0.000
REMARK  4 active torsions:
REMARK  status: ('A' for Active; 'I' for Inactive)
REMARK    1  A    between atoms: N_10  and  C_3 
REMARK    2  A    between atoms: C_12  and  C_5 
REMARK    3  A    between atoms: C_15  and  C_9 
REMARK    4  A    between atoms: C_19  and  N_11 
ROOT
ATOM      1  N   UNL d   1      46.077 -17.024  42.963  0.00  0.00    -0.196 N 
ATOM      2  C   UNL d   1      46.180 -17.812  42.727  0.00  0.00     0.167 A 
ATOM      3  C   UNL d   1      45.918 -16.861  43.746  0.00  0.00     0.152 A 
ATOM      4  N   UNL d   1      46.295 -16.596  41.627  0.00  0.00    -0.163 NA
ATOM      5  C   UNL d   1      46.337 -17.983  41.956  0.00  0.00     0.055 A 
ATOM      6  N   UNL d   1      46.120 -18.408  43.283  0.00  0.00    -0.227 NA
ATOM      7  C   UNL d   1      45.858 -17.483  44.311  0.00  0.00     0.057 A 
ATOM      8  C   UNL d   1      46.398 -17.384  41.391  0.00  0.00     0.104 A 
ATOM      9  C   UNL d   1      45.962 -18.239  44.060  0.00  0.00     0.086 A 
ATOM     10  C   UNL d   1      46.555 -17.556  40.623  0.00  0.00     0.023 C 
ENDROOT
BRANCH   3  11
ATOM     11  N   UNL d   1      45.811 -16.054  43.991  0.00  0.00    -0.286 N 
ATOM     12  C   UNL d   1      46.402 -15.449  43.900  0.00  0.00     0.101 A 
ATOM     13  C   UNL d   1      46.245 -14.662  44.161  0.00  0.00     0.100 A 
ATOM     14  N   UNL d   1      45.497 -14.468  44.516  0.00  0.00    -0.300 N 
ATOM     15  C   UNL d   1      44.904 -15.078  44.608  0.00  0.00     0.100 A 
ATOM     16  C   UNL d   1      45.059 -15.865  44.347  0.00  0.00     0.101 A 
BRANCH  14  17
ATOM     17  C   UNL d   1      45.340 -13.678  44.778  0.00  0.00     0.080 C 
ATOM     18  C   UNL d   1      45.466 -13.028  44.261  0.00  0.00     0.021 C 
ENDBRANCH  14  17
ENDBRANCH   3  11
BRANCH   9  19
ATOM     19  C   UNL d   1      45.900 -18.869  44.640  0.00  0.00     0.018 C 
ATOM     20  C   UNL d   1      45.120 -19.111  44.920  0.00  0.00     0.002 C 
ATOM     21  C   UNL d   1      46.606 -19.254  44.939  0.00  0.00     0.002 C 
ENDBRANCH   9  19
BRANCH   5  22
ATOM     22  C   UNL d   1      46.441 -18.778  41.718  0.00  0.00     0.004 A 
ATOM     23  C   UNL d   1      46.514 -19.364  42.281  0.00  0.00     0.000 A 
ATOM     24  C   UNL d   1      46.617 -20.149  42.047  0.00  0.00     0.000 A 
ATOM     25  C   UNL d   1      46.644 -20.330  41.254  0.00  0.00     0.000 A 
ATOM     26  C   UNL d   1      46.570 -19.735  40.689  0.00  0.00     0.000 A 
ATOM     27  C   UNL d   1      46.469 -18.966  40.928  0.00  0.00     0.000 A 
ENDBRANCH   5  22
TORSDOF 4
ENDMDL
