MODEL 1
REMARK VINA RESULT:      10.8      0.000      0.000
REMARK  1 active torsions:
REMARK  status: ('A' for Active; 'I' for Inactive)
REMARK    1  A    between atoms: C_6  and  C_2 
ROOT
ATOM      1  C   UNL d   1      13.487  12.102  -2.718  0.00  0.00     0.018 A 
ATOM      2  C   UNL d   1      14.255  12.221  -2.428  0.00  0.00     0.002 A 
ATOM      3  C   UNL d   1      14.413  12.120  -1.620  0.00  0.00     0.000 A 
ATOM      4  C   UNL d   1      12.889  11.886  -2.210  0.00  0.00     0.002 A 
ATOM      5  C   UNL d   1      13.795  11.897  -1.095  0.00  0.00     0.000 A 
ATOM      6  C   UNL d   1      13.035  11.781  -1.392  0.00  0.00     0.000 A 
ATOM      7  C   UNL d   1      15.174  12.239  -1.338  0.00  0.00     0.000 A 
ATOM      8  C   UNL d   1      13.954  11.799  -0.302  0.00  0.00     0.000 A 
ATOM      9  C   UNL d   1      15.332  12.138  -0.531  0.00  0.00     0.000 A 
ATOM     10  C   UNL d   1      14.734  11.923  -0.022  0.00  0.00     0.000 A 
ENDROOT
BRANCH   1  11
ATOM     11  C   UNL d   1      13.331  12.203  -3.523  0.00  0.00     0.090 A 
ATOM     12  N   UNL d   1      13.578  11.794  -4.160  0.00  0.00    -0.219 NA
ATOM     13  C   UNL d   1      13.250  12.141  -4.832  0.00  0.00     0.215 A 
ATOM     14  S   UNL d   1      12.792  12.780  -4.568  0.00  0.00    -0.045 SA
ATOM     15  N   UNL d   1      13.357  11.895  -5.635  0.00  0.00    -0.120 N 
ATOM     16  C   UNL d   1      12.848  12.809  -3.773  0.00  0.00     0.058 A 
ENDBRANCH   1  11
TORSDOF 1
ENDMDL
