MODEL 1
REMARK VINA RESULT:      -4.8      0.000      0.000
REMARK  5 active torsions:
REMARK  status: ('A' for Active; 'I' for Inactive)
REMARK    1  A    between atoms: N_5  and  C_1 
REMARK    2  A    between atoms: C_9  and  C_2 
REMARK       I    between atoms: C_6  and  N_5 
REMARK    3  A    between atoms: C_8  and  C_6 
REMARK    4  A    between atoms: O_14  and  C_9 
REMARK    5  A    between atoms: C_16  and  O_14 
ROOT
ATOM      1  C   UNL d   1     -41.302-122.370 -52.633  0.00  0.00     0.114 A 
ATOM      2  C   UNL d   1     -41.510-122.728 -51.361  0.00  0.00     0.094 A 
ATOM      3  S   UNL d   1     -41.540-122.985 -52.131  0.00  0.00    -0.062 SA
ATOM      4  C   UNL d   1     -41.243-121.923 -51.399  0.00  0.00     0.013 A 
ATOM      5  C   UNL d   1     -41.124-121.725 -52.153  0.00  0.00     0.027 A 
ATOM      6  C   UNL d   1     -41.123-121.419 -50.747  0.00  0.00     0.001 C 
ENDROOT
BRANCH   1   7
ATOM      7  N   UNL d   1     -41.247-122.389 -53.496  0.00  0.00    -0.201 NA
ATOM      8  C   UNL d   1     -41.897-122.164 -53.951  0.00  0.00     0.280 C 
ATOM      9  O   UNL d   1     -42.600-121.921 -53.593  0.00  0.00    -0.265 OA
BRANCH   8  10
ATOM     10  C   UNL d   1     -41.845-122.182 -54.771  0.00  0.00     0.058 A 
ATOM     11  C   UNL d   1     -41.499-122.434 -55.476  0.00  0.00     0.005 A 
ATOM     12  C   UNL d   1     -42.100-121.959 -55.588  0.00  0.00     0.005 A 
ENDBRANCH   8  10
ENDBRANCH   1   7
BRANCH   2  13
ATOM     13  C   UNL d   1     -41.702-123.163 -50.669  0.00  0.00     0.306 C 
ATOM     14  O   UNL d   1     -41.123-123.643 -50.338  0.00  0.00    -0.258 OA
BRANCH  13  15
ATOM     15  O   UNL d   1     -42.448-123.118 -50.322  0.00  0.00    -0.271 OA
BRANCH  15  16
ATOM     16  C   UNL d   1     -42.670-123.653 -49.731  0.00  0.00     0.126 C 
ATOM     17  C   UNL d   1     -43.387-123.529 -49.325  0.00  0.00     0.029 C 
ENDBRANCH  15  16
ENDBRANCH  13  15
ENDBRANCH   2  13
TORSDOF 5
ENDMDL
MODEL 2
REMARK VINA RESULT:      -3.7      1.238      4.141
REMARK  5 active torsions:
REMARK  status: ('A' for Active; 'I' for Inactive)
REMARK    1  A    between atoms: N_5  and  C_1 
REMARK    2  A    between atoms: C_9  and  C_2 
REMARK       I    between atoms: C_6  and  N_5 
REMARK    3  A    between atoms: C_8  and  C_6 
REMARK    4  A    between atoms: O_14  and  C_9 
REMARK    5  A    between atoms: C_16  and  O_14 
ROOT
ATOM      1  C   UNL d   1     -41.454-122.945 -51.251  0.00  0.00     0.114 A 
ATOM      2  C   UNL d   1     -41.463-122.506 -52.516  0.00  0.00     0.094 A 
ATOM      3  S   UNL d   1     -41.567-122.285 -51.741  0.00  0.00    -0.062 SA
ATOM      4  C   UNL d   1     -41.278-123.334 -52.494  0.00  0.00     0.013 A 
ATOM      5  C   UNL d   1     -41.277-123.579 -51.744  0.00  0.00     0.027 A 
ATOM      6  C   UNL d   1     -41.123-123.816 -53.156  0.00  0.00     0.001 C 
ENDROOT
BRANCH   1   7
ATOM      7  N   UNL d   1     -41.509-122.973 -50.389  0.00  0.00    -0.201 NA
ATOM      8  C   UNL d   1     -42.248-122.928 -50.026  0.00  0.00     0.280 C 
ATOM      9  O   UNL d   1     -42.937-122.856 -50.476  0.00  0.00    -0.265 OA
BRANCH   8  10
ATOM     10  C   UNL d   1     -42.301-122.955 -49.206  0.00  0.00     0.058 A 
ATOM     11  C   UNL d   1     -42.083-123.254 -48.469  0.00  0.00     0.005 A 
ATOM     12  C   UNL d   1     -42.622-122.700 -48.423  0.00  0.00     0.005 A 
ENDBRANCH   8  10
ENDBRANCH   1   7
BRANCH   2  13
ATOM     13  C   UNL d   1     -41.523-122.021 -53.199  0.00  0.00     0.306 C 
ATOM     14  O   UNL d   1     -41.126-121.301 -53.201  0.00  0.00    -0.258 OA
BRANCH  13  15
ATOM     15  O   UNL d   1     -41.965-122.250 -53.855  0.00  0.00    -0.271 OA
BRANCH  15  16
ATOM     16  C   UNL d   1     -42.066-121.735 -54.494  0.00  0.00     0.126 C 
ATOM     17  C   UNL d   1     -42.612-121.936 -55.090  0.00  0.00     0.029 C 
ENDBRANCH  15  16
ENDBRANCH  13  15
ENDBRANCH   2  13
TORSDOF 5
ENDMDL
MODEL 3
REMARK VINA RESULT:      -3.3      1.242      4.080
REMARK  5 active torsions:
REMARK  status: ('A' for Active; 'I' for Inactive)
REMARK    1  A    between atoms: N_5  and  C_1 
REMARK    2  A    between atoms: C_9  and  C_2 
REMARK       I    between atoms: C_6  and  N_5 
REMARK    3  A    between atoms: C_8  and  C_6 
REMARK    4  A    between atoms: O_14  and  C_9 
REMARK    5  A    between atoms: C_16  and  O_14 
ROOT
ATOM      1  C   UNL d   1     -41.601-122.803 -50.903  0.00  0.00     0.114 A 
ATOM      2  C   UNL d   1     -41.495-122.734 -52.236  0.00  0.00     0.094 A 
ATOM      3  S   UNL d   1     -41.662-123.228 -51.613  0.00  0.00    -0.062 SA
ATOM      4  C   UNL d   1     -41.326-121.978 -51.888  0.00  0.00     0.013 A 
ATOM      5  C   UNL d   1     -41.392-122.033 -51.104  0.00  0.00     0.027 A 
ATOM      6  C   UNL d   1     -41.123-121.286 -52.304  0.00  0.00     0.001 C 
ENDROOT
BRANCH   1   7
ATOM      7  N   UNL d   1     -41.731-123.100 -50.101  0.00  0.00    -0.201 NA
ATOM      8  C   UNL d   1     -42.462-122.988 -49.738  0.00  0.00     0.280 C 
ATOM      9  O   UNL d   1     -43.074-122.596 -50.130  0.00  0.00    -0.265 OA
BRANCH   8  10
ATOM     10  C   UNL d   1     -42.585-123.271 -48.976  0.00  0.00     0.058 A 
ATOM     11  C   UNL d   1     -43.002-123.713 -48.419  0.00  0.00     0.005 A 
ATOM     12  C   UNL d   1     -42.389-123.348 -48.117  0.00  0.00     0.005 A 
ENDBRANCH   8  10
ENDBRANCH   1   7
BRANCH   2  13
ATOM     13  C   UNL d   1     -41.489-122.926 -53.053  0.00  0.00     0.306 C 
ATOM     14  O   UNL d   1     -41.125-123.625 -53.286  0.00  0.00    -0.258 OA
BRANCH  13  15
ATOM     15  O   UNL d   1     -41.835-122.434 -53.616  0.00  0.00    -0.271 OA
BRANCH  15  16
ATOM     16  C   UNL d   1     -42.091-122.739 -54.341  0.00  0.00     0.126 C 
ATOM     17  C   UNL d   1     -42.125-122.232 -55.001  0.00  0.00     0.029 C 
ENDBRANCH  15  16
ENDBRANCH  13  15
ENDBRANCH   2  13
TORSDOF 5
ENDMDL
MODEL 4
REMARK VINA RESULT:      -3.1      1.198      4.171
REMARK  5 active torsions:
REMARK  status: ('A' for Active; 'I' for Inactive)
REMARK    1  A    between atoms: N_5  and  C_1 
REMARK    2  A    between atoms: C_9  and  C_2 
REMARK       I    between atoms: C_6  and  N_5 
REMARK    3  A    between atoms: C_8  and  C_6 
REMARK    4  A    between atoms: O_14  and  C_9 
REMARK    5  A    between atoms: C_16  and  O_14 
ROOT
ATOM      1  C   UNL d   1     -41.302-122.618 -52.535  0.00  0.00     0.114 A 
ATOM      2  C   UNL d   1     -41.523-122.438 -53.843  0.00  0.00     0.094 A 
ATOM      3  S   UNL d   1     -41.548-122.079 -53.115  0.00  0.00    -0.062 SA
ATOM      4  C   UNL d   1     -41.250-123.229 -53.698  0.00  0.00     0.013 A 
ATOM      5  C   UNL d   1     -41.124-123.321 -52.924  0.00  0.00     0.027 A 
ATOM      6  C   UNL d   1     -41.133-123.817 -54.276  0.00  0.00     0.001 C 
ENDROOT
BRANCH   1   7
ATOM      7  N   UNL d   1     -41.240-122.481 -51.683  0.00  0.00    -0.201 NA
ATOM      8  C   UNL d   1     -41.713-122.914 -51.166  0.00  0.00     0.280 C 
ATOM      9  O   UNL d   1     -42.246-123.477 -51.450  0.00  0.00    -0.265 OA
BRANCH   8  10
ATOM     10  C   UNL d   1     -41.654-122.784 -50.356  0.00  0.00     0.058 A 
ATOM     11  C   UNL d   1     -41.979-122.719 -49.601  0.00  0.00     0.005 A 
ATOM     12  C   UNL d   1     -41.213-122.606 -49.611  0.00  0.00     0.005 A 
ENDBRANCH   8  10
ENDBRANCH   1   7
BRANCH   2  13
ATOM     13  C   UNL d   1     -41.723-122.103 -54.586  0.00  0.00     0.306 C 
ATOM     14  O   UNL d   1     -41.129-121.737 -55.021  0.00  0.00    -0.258 OA
BRANCH  13  15
ATOM     15  O   UNL d   1     -42.492-122.134 -54.882  0.00  0.00    -0.271 OA
BRANCH  15  16
ATOM     16  C   UNL d   1     -42.660-121.861 -55.645  0.00  0.00     0.126 C 
ATOM     17  C   UNL d   1     -43.333-122.155 -56.038  0.00  0.00     0.029 C 
ENDBRANCH  15  16
ENDBRANCH  13  15
ENDBRANCH   2  13
TORSDOF 5
ENDMDL
MODEL 5
REMARK VINA RESULT:      -2.2      1.062      1.496
REMARK  5 active torsions:
REMARK  status: ('A' for Active; 'I' for Inactive)
REMARK    1  A    between atoms: N_5  and  C_1 
REMARK    2  A    between atoms: C_9  and  C_2 
REMARK       I    between atoms: C_6  and  N_5 
REMARK    3  A    between atoms: C_8  and  C_6 
REMARK    4  A    between atoms: O_14  and  C_9 
REMARK    5  A    between atoms: C_16  and  O_14 
ROOT
ATOM      1  C   UNL d   1     -41.486-122.374 -53.654  0.00  0.00     0.114 A 
ATOM      2  C   UNL d   1     -41.473-122.367 -52.316  0.00  0.00     0.094 A 
ATOM      3  S   UNL d   1     -41.585-121.907 -52.976  0.00  0.00    -0.062 SA
ATOM      4  C   UNL d   1     -41.299-123.145 -52.607  0.00  0.00     0.013 A 
ATOM      5  C   UNL d   1     -41.310-123.135 -53.396  0.00  0.00     0.027 A 
ATOM      6  C   UNL d   1     -41.141-123.816 -52.139  0.00  0.00     0.001 C 
ENDROOT
BRANCH   1   7
ATOM      7  N   UNL d   1     -41.553-122.121 -54.479  0.00  0.00    -0.201 NA
ATOM      8  C   UNL d   1     -42.290-122.131 -54.849  0.00  0.00     0.280 C 
ATOM      9  O   UNL d   1     -42.964-122.379 -54.444  0.00  0.00    -0.265 OA
BRANCH   8  10
ATOM     10  C   UNL d   1     -42.353-121.892 -55.633  0.00  0.00     0.058 A 
ATOM     11  C   UNL d   1     -42.565-122.015 -56.420  0.00  0.00     0.005 A 
ATOM     12  C   UNL d   1     -42.256-121.316 -56.297  0.00  0.00     0.005 A 
ENDBRANCH   8  10
ENDBRANCH   1   7
BRANCH   2  13
ATOM     13  C   UNL d   1     -41.518-122.128 -51.512  0.00  0.00     0.306 C 
ATOM     14  O   UNL d   1     -41.197-121.401 -51.304  0.00  0.00    -0.258 OA
BRANCH  13  15
ATOM     15  O   UNL d   1     -41.873-122.602 -50.939  0.00  0.00    -0.271 OA
BRANCH  15  16
ATOM     16  C   UNL d   1     -42.310-122.262 -50.324  0.00  0.00     0.126 C 
ATOM     17  C   UNL d   1     -42.885-122.724 -49.936  0.00  0.00     0.029 C 
ENDBRANCH  15  16
ENDBRANCH  13  15
ENDBRANCH   2  13
TORSDOF 5
ENDMDL
