MODEL 1
REMARK VINA RESULT:      56.6      0.000      0.000
REMARK  3 active torsions:
REMARK  status: ('A' for Active; 'I' for Inactive)
REMARK    1  A    between atoms: N_7  and  C_1 
REMARK    2  A    between atoms: C_11  and  N_3 
REMARK       I    between atoms: C_9  and  N_7 
REMARK    3  A    between atoms: C_12  and  C_9 
ROOT
ATOM      1  C   UNL d   1     -57.878 -98.824 -44.493  0.00  0.00     0.169 A 
ATOM      2  C   UNL d   1     -57.137 -98.855 -44.746  0.00  0.00     0.067 A 
ATOM      3  N   UNL d   1     -57.865 -98.838 -43.708  0.00  0.00    -0.212 N 
ATOM      4  C   UNL d   1     -56.660 -98.887 -44.114  0.00  0.00     0.116 A 
ATOM      5  N   UNL d   1     -57.112 -98.877 -43.476  0.00  0.00    -0.163 NA
ATOM      6  S   UNL d   1     -55.940 -98.903 -45.162  0.00  0.00     0.213 S 
ATOM      7  C   UNL d   1     -55.923 -98.917 -44.374  0.00  0.00     0.120 A 
ATOM      8  C   UNL d   1     -56.690 -98.865 -45.391  0.00  0.00     0.103 A 
ATOM      9  O   UNL d   1     -55.220 -98.942 -44.856  0.00  0.00    -0.217 OA
ATOM     10  O   UNL d   1     -56.006 -98.889 -45.839  0.00  0.00    -0.217 OA
ENDROOT
BRANCH   1  11
ATOM     11  N   UNL d   1     -58.152 -98.801 -45.150  0.00  0.00    -0.187 NA
ATOM     12  C   UNL d   1     -58.917 -99.254 -45.640  0.00  0.00     0.303 C 
ATOM     13  O   UNL d   1     -59.370 -99.768 -45.292  0.00  0.00    -0.263 OA
BRANCH  12  14
ATOM     14  C   UNL d   1     -59.057 -99.065 -46.435  0.00  0.00     0.158 A 
ATOM     15  O   UNL d   1     -58.472 -98.940 -47.036  0.00  0.00    -0.300 OA
ATOM     16  C   UNL d   1     -58.868 -98.763 -47.751  0.00  0.00     0.123 A 
ATOM     17  C   UNL d   1     -59.695 -98.775 -47.606  0.00  0.00     0.029 A 
ATOM     18  C   UNL d   1     -59.819 -98.960 -46.799  0.00  0.00     0.032 A 
ENDBRANCH  12  14
ENDBRANCH   1  11
BRANCH   3  19
ATOM     19  C   UNL d   1     -58.534 -98.815 -43.202  0.00  0.00     0.085 A 
ATOM     20  C   UNL d   1     -58.422 -98.798 -42.368  0.00  0.00     0.031 A 
ATOM     21  C   UNL d   1     -59.079 -98.776 -41.872  0.00  0.00     0.059 A 
ATOM     22 CL   UNL d   1     -58.984 -98.759 -41.039  0.00  0.00    -0.082 Cl
ATOM     23  C   UNL d   1     -59.861 -98.770 -42.200  0.00  0.00     0.011 A 
ATOM     24  C   UNL d   1     -59.956 -98.788 -43.032  0.00  0.00     0.002 A 
ATOM     25  C   UNL d   1     -59.295 -98.810 -43.522  0.00  0.00     0.019 A 
ENDBRANCH   3  19
TORSDOF 3
ENDMDL
