MODEL 1
REMARK VINA RESULT:      16.2      0.000      0.000
REMARK  7 active torsions:
REMARK  status: ('A' for Active; 'I' for Inactive)
REMARK    1  A    between atoms: N_2  and  S_1 
REMARK    2  A    between atoms: C_3  and  S_1 
REMARK    3  A    between atoms: C_16  and  N_2 
REMARK    4  A    between atoms: C_4  and  C_10 
REMARK       I    between atoms: N_7  and  C_4 
REMARK    5  A    between atoms: C_17  and  N_7 
REMARK    6  A    between atoms: C_9  and  C_17 
REMARK    7  A    between atoms: O_23  and  C_20 
ROOT
ATOM      1  C   UNL d   1      45.381 -15.733  44.667  0.00  0.00     0.058 A 
ATOM      2  C   UNL d   1      46.009 -17.258  44.663  0.00  0.00     0.094 A 
ATOM      3  C   UNL d   1      46.142 -15.869  44.953  0.00  0.00     0.006 A 
ATOM      4  C   UNL d   1      44.933 -16.363  44.379  0.00  0.00     0.006 A 
ATOM      5  C   UNL d   1      46.459 -16.631  44.953  0.00  0.00     0.020 A 
ATOM      6  C   UNL d   1      45.241 -17.127  44.374  0.00  0.00     0.020 A 
ENDROOT
BRANCH   2   7
ATOM      7  N   UNL d   1      46.318 -18.016  44.660  0.00  0.00    -0.158 NA
BRANCH   7   8
ATOM      8  S   UNL d   1      46.400 -18.423  43.945  0.00  0.00     0.285 S 
ATOM      9  O   UNL d   1      46.543 -19.126  44.360  0.00  0.00    -0.198 OA
ATOM     10  O   UNL d   1      46.258 -17.730  43.528  0.00  0.00    -0.198 OA
BRANCH   8  11
ATOM     11  C   UNL d   1      46.482 -18.833  43.237  0.00  0.00     0.107 A 
ATOM     12  C   UNL d   1      46.500 -18.420  42.524  0.00  0.00     0.037 A 
ATOM     13  C   UNL d   1      46.583 -18.826  41.803  0.00  0.00     0.095 A 
ATOM     14  C   UNL d   1      46.647 -19.647  41.808  0.00  0.00     0.024 A 
ATOM     15  C   UNL d   1      46.629 -20.064  42.520  0.00  0.00     0.003 A 
ATOM     16  C   UNL d   1      46.547 -19.657  43.236  0.00  0.00     0.013 A 
BRANCH  13  17
ATOM     17  O   UNL d   1      46.601 -18.407  41.080  0.00  0.00    -0.328 OA
ATOM     18  C   UNL d   1      46.419 -18.802  40.373  0.00  0.00     0.181 C 
ENDBRANCH  13  17
ENDBRANCH   8  11
ENDBRANCH   7   8
ENDBRANCH   2   7
BRANCH   1  19
ATOM     19  C   UNL d   1      45.059 -14.963  44.668  0.00  0.00     0.279 C 
ATOM     20  N   UNL d   1      45.509 -14.333  44.394  0.00  0.00    -0.204 NA
ATOM     21  O   UNL d   1      44.287 -14.834  44.944  0.00  0.00    -0.265 OA
BRANCH  20  22
ATOM     22  C   UNL d   1      45.190 -13.566  44.394  0.00  0.00     0.127 C 
BRANCH  22  23
ATOM     23  C   UNL d   1      45.267 -13.085  43.717  0.00  0.00     0.119 A 
ATOM     24  O   UNL d   1      45.968 -12.780  43.418  0.00  0.00    -0.304 OA
ATOM     25  C   UNL d   1      45.781 -12.341  42.749  0.00  0.00     0.123 A 
ATOM     26  C   UNL d   1      44.974 -12.378  42.641  0.00  0.00     0.029 A 
ATOM     27  C   UNL d   1      44.654 -12.840  43.242  0.00  0.00     0.028 A 
ENDBRANCH  22  23
ENDBRANCH  20  22
ENDBRANCH   1  19
TORSDOF 7
ENDMDL
