MODEL 1
REMARK VINA RESULT:      75.0      0.000      0.000
REMARK  4 active torsions:
REMARK  status: ('A' for Active; 'I' for Inactive)
REMARK    1  A    between atoms: C_6  and  S_1 
REMARK    2  A    between atoms: N_8  and  S_1 
REMARK    3  A    between atoms: C_17  and  N_8 
REMARK    4  A    between atoms: N_16  and  C_15 
ROOT
ATOM      1  N   UNL d   1     -51.646  25.755  33.334  0.00  0.00    -0.273 N 
ATOM      2  C   UNL d   1     -52.384  26.156  33.338  0.00  0.00     0.265 A 
ATOM      3  C   UNL d   1     -51.051  26.326  33.365  0.00  0.00     0.067 A 
ATOM      4  C   UNL d   1     -51.249  27.118  33.392  0.00  0.00     0.022 A 
ATOM      5  C   UNL d   1     -49.862  27.459  33.426  0.00  0.00     0.105 A 
ATOM      6  C   UNL d   1     -50.258  26.096  33.368  0.00  0.00     0.017 A 
ATOM      7  C   UNL d   1     -52.085  27.184  33.382  0.00  0.00     0.063 A 
ATOM      8  C   UNL d   1     -50.655  27.689  33.423  0.00  0.00     0.015 A 
ATOM      9  C   UNL d   1     -49.665  26.658  33.398  0.00  0.00     0.014 A 
ATOM     10  O   UNL d   1     -53.087  25.720  33.311  0.00  0.00    -0.267 OA
ATOM     11  C   UNL d   1     -51.449  24.954  33.306  0.00  0.00     0.083 A 
ATOM     12  C   UNL d   1     -50.075  25.298  33.340  0.00  0.00     0.003 A 
ATOM     13  C   UNL d   1     -50.657  24.724  33.309  0.00  0.00     0.019 A 
ENDROOT
BRANCH   5  14
ATOM     14  S   UNL d   1     -49.264  28.039  33.457  0.00  0.00     0.285 S 
ATOM     15  O   UNL d   1     -48.713  27.441  33.605  0.00  0.00    -0.198 OA
ATOM     16  O   UNL d   1     -49.831  28.631  33.308  0.00  0.00    -0.198 OA
BRANCH  14  17
ATOM     17  N   UNL d   1     -48.673  28.611  33.488  0.00  0.00    -0.158 NA
BRANCH  17  18
ATOM     18  C   UNL d   1     -48.394  28.871  34.219  0.00  0.00     0.094 A 
ATOM     19  C   UNL d   1     -48.501  29.653  34.446  0.00  0.00     0.021 A 
ATOM     20  C   UNL d   1     -48.222  29.913  35.178  0.00  0.00     0.019 A 
ATOM     21  C   UNL d   1     -47.836  29.392  35.682  0.00  0.00     0.064 A 
ATOM     22  C   UNL d   1     -47.727  28.606  35.455  0.00  0.00     0.019 A 
ATOM     23  C   UNL d   1     -48.007  28.345  34.724  0.00  0.00     0.021 A 
BRANCH  21  24
ATOM     24  N   UNL d   1     -47.557  29.653  36.413  0.00  0.00    -0.301 N 
ATOM     25  C   UNL d   1     -47.802  29.277  37.106  0.00  0.00     0.100 C 
ATOM     26  C   UNL d   1     -47.032  30.289  36.451  0.00  0.00     0.100 C 
ENDBRANCH  21  24
ENDBRANCH  17  18
ENDBRANCH  14  17
ENDBRANCH   5  14
TORSDOF 4
ENDMDL
