MODEL 1
REMARK VINA RESULT:      67.3      0.000      0.000
REMARK  5 active torsions:
REMARK  status: ('A' for Active; 'I' for Inactive)
REMARK    1  A    between atoms: C_10  and  C_3 
REMARK    2  A    between atoms: C_11  and  N_5 
REMARK    3  A    between atoms: O_17  and  C_10 
REMARK    4  A    between atoms: C_22  and  O_17 
REMARK    5  A    between atoms: O_21  and  C_18 
ROOT
ATOM      1  C   UNL d   1     -50.005  24.919  33.534  0.00  0.00     0.086 A 
ATOM      2  C   UNL d   1     -50.823  24.875  33.496  0.00  0.00     0.038 A 
ATOM      3  C   UNL d   1     -51.294  25.551  33.585  0.00  0.00     0.165 A 
ATOM      4  C   UNL d   1     -49.640  25.653  33.664  0.00  0.00     0.282 A 
ATOM      5  N   UNL d   1     -50.097  26.330  33.754  0.00  0.00    -0.194 N 
ATOM      6  N   UNL d   1     -50.922  26.279  33.715  0.00  0.00    -0.157 NA
ATOM      7  C   UNL d   1     -49.702  24.157  33.425  0.00  0.00     0.137 A 
ATOM      8  C   UNL d   1     -51.037  24.090  33.364  0.00  0.00     0.039 A 
ATOM      9  S   UNL d   1     -50.340  23.648  33.320  0.00  0.00    -0.066 SA
ATOM     10  O   UNL d   1     -48.821  25.706  33.704  0.00  0.00    -0.265 OA
ATOM     11  N   UNL d   1     -48.901  23.949  33.422  0.00  0.00    -0.141 N 
ENDROOT
BRANCH   5  12
ATOM     12  C   UNL d   1     -49.735  27.059  33.883  0.00  0.00     0.086 A 
ATOM     13  C   UNL d   1     -49.797  27.662  33.316  0.00  0.00     0.021 A 
ATOM     14  C   UNL d   1     -49.432  28.390  33.451  0.00  0.00     0.026 A 
ATOM     15  C   UNL d   1     -49.007  28.519  34.145  0.00  0.00     0.094 A 
ATOM     16  C   UNL d   1     -48.945  27.917  34.711  0.00  0.00     0.026 A 
ATOM     17  C   UNL d   1     -49.312  27.187  34.574  0.00  0.00     0.021 A 
BRANCH  15  18
ATOM     18  O   UNL d   1     -48.647  29.248  34.271  0.00  0.00    -0.328 OA
ATOM     19  C   UNL d   1     -48.411  29.465  35.038  0.00  0.00     0.181 C 
ENDBRANCH  15  18
ENDBRANCH   5  12
BRANCH   3  20
ATOM     20  C   UNL d   1     -52.115  25.502  33.546  0.00  0.00     0.320 C 
ATOM     21  O   UNL d   1     -52.477  24.796  33.307  0.00  0.00    -0.257 OA
BRANCH  20  22
ATOM     22  O   UNL d   1     -52.578  26.158  33.746  0.00  0.00    -0.270 OA
BRANCH  22  23
ATOM     23  C   UNL d   1     -53.352  26.212  33.477  0.00  0.00     0.126 C 
ATOM     24  C   UNL d   1     -53.690  26.946  33.316  0.00  0.00     0.029 C 
ENDBRANCH  22  23
ENDBRANCH  20  22
ENDBRANCH   3  20
TORSDOF 5
ENDMDL
