MODEL 1
REMARK VINA RESULT:      19.1      0.000      0.000
REMARK  4 active torsions:
REMARK  status: ('A' for Active; 'I' for Inactive)
REMARK    1  A    between atoms: C_8  and  N_2 
REMARK    2  A    between atoms: C_7  and  O_14 
REMARK    3  A    between atoms: C_15  and  C_8 
REMARK    4  A    between atoms: O_14  and  C_15 
ROOT
ATOM      1  C   UNL d   1      13.610  12.346  -1.743  0.00  0.00     0.108 C 
ENDROOT
BRANCH   1   2
ATOM      2  N   UNL d   1      14.204  12.418  -1.166  0.00  0.00    -0.285 N 
ATOM      3  C   UNL d   1      14.565  11.780  -0.683  0.00  0.00     0.183 A 
ATOM      4  N   UNL d   1      15.158  12.186  -0.175  0.00  0.00    -0.224 NA
ATOM      5  C   UNL d   1      15.166  13.004  -0.325  0.00  0.00     0.099 A 
ATOM      6  C   UNL d   1      14.587  13.180  -0.936  0.00  0.00     0.083 A 
ATOM      7  C   UNL d   1      15.592  13.584  -0.016  0.00  0.00     0.021 A 
ATOM      8  C   UNL d   1      14.478  13.923  -1.188  0.00  0.00     0.019 A 
ATOM      9  C   UNL d   1      14.955  14.553  -0.838  0.00  0.00     0.002 A 
ATOM     10  C   UNL d   1      15.510  14.384  -0.253  0.00  0.00     0.002 A 
ENDBRANCH   1   2
BRANCH   1  11
ATOM     11  C   UNL d   1      13.705  11.869  -2.393  0.00  0.00     0.142 C 
BRANCH  11  12
ATOM     12  O   UNL d   1      13.096  11.804  -2.947  0.00  0.00    -0.304 OA
BRANCH  12  13
ATOM     13  C   UNL d   1      13.146  12.195  -3.679  0.00  0.00     0.100 A 
ATOM     14  C   UNL d   1      13.173  13.018  -3.697  0.00  0.00     0.026 A 
ATOM     15  C   UNL d   1      13.222  13.431  -4.399  0.00  0.00     0.013 A 
ATOM     16  C   UNL d   1      13.247  13.018  -5.136  0.00  0.00     0.058 A 
ATOM     17  C   UNL d   1      13.218  12.180  -5.107  0.00  0.00     0.013 A 
ATOM     18 CL   UNL d   1      13.298  13.454  -5.859  0.00  0.00    -0.082 Cl
ATOM     19  C   UNL d   1      13.169  11.781  -4.392  0.00  0.00     0.026 A 
ENDBRANCH  12  13
ENDBRANCH  11  12
ENDBRANCH   1  11
TORSDOF 4
ENDMDL
MODEL 2
REMARK VINA RESULT:      20.6      2.027      4.133
REMARK  4 active torsions:
REMARK  status: ('A' for Active; 'I' for Inactive)
REMARK    1  A    between atoms: C_8  and  N_2 
REMARK    2  A    between atoms: C_7  and  O_14 
REMARK    3  A    between atoms: C_15  and  C_8 
REMARK    4  A    between atoms: O_14  and  C_15 
ROOT
ATOM      1  C   UNL d   1      12.984  12.312  -2.779  0.00  0.00     0.108 C 
ENDROOT
BRANCH   1   2
ATOM      2  N   UNL d   1      13.061  12.405  -3.602  0.00  0.00    -0.285 N 
ATOM      3  C   UNL d   1      13.197  11.781  -4.204  0.00  0.00     0.183 A 
ATOM      4  N   UNL d   1      13.229  12.210  -4.973  0.00  0.00    -0.224 NA
ATOM      5  C   UNL d   1      13.122  13.027  -4.861  0.00  0.00     0.099 A 
ATOM      6  C   UNL d   1      13.015  13.181  -4.022  0.00  0.00     0.083 A 
ATOM      7  C   UNL d   1      13.107  13.622  -5.369  0.00  0.00     0.021 A 
ATOM      8  C   UNL d   1      12.901  13.919  -3.757  0.00  0.00     0.019 A 
ATOM      9  C   UNL d   1      12.886  14.566  -4.330  0.00  0.00     0.002 A 
ATOM     10  C   UNL d   1      12.989  14.418  -5.134  0.00  0.00     0.002 A 
ENDBRANCH   1   2
BRANCH   1  11
ATOM     11  C   UNL d   1      13.455  11.793  -2.367  0.00  0.00     0.142 C 
BRANCH  11  12
ATOM     12  O   UNL d   1      13.484  11.834  -1.542  0.00  0.00    -0.304 OA
BRANCH  12  13
ATOM     13  C   UNL d   1      14.111  12.223  -1.159  0.00  0.00     0.100 A 
ATOM     14  C   UNL d   1      14.867  12.188  -1.483  0.00  0.00     0.026 A 
ATOM     15  C   UNL d   1      15.504  12.559  -1.132  0.00  0.00     0.013 A 
ATOM     16  C   UNL d   1      15.400  12.995  -0.416  0.00  0.00     0.058 A 
ATOM     17  C   UNL d   1      14.626  13.025  -0.094  0.00  0.00     0.013 A 
ATOM     18 CL   UNL d   1      16.065  13.376  -0.059  0.00  0.00    -0.082 Cl
ATOM     19  C   UNL d   1      13.998  12.647  -0.460  0.00  0.00     0.026 A 
ENDBRANCH  12  13
ENDBRANCH  11  12
ENDBRANCH   1  11
TORSDOF 4
ENDMDL
