MODEL 1
REMARK VINA RESULT:       2.3      0.000      0.000
REMARK  5 active torsions:
REMARK  status: ('A' for Active; 'I' for Inactive)
REMARK    1  A    between atoms: S_3  and  C_17 
REMARK    2  A    between atoms: N_11  and  S_3 
REMARK    3  A    between atoms: C_13  and  C_10 
REMARK    4  A    between atoms: C_12  and  N_11 
REMARK       I    between atoms: N_19  and  C_13 
REMARK    5  A    between atoms: C_31  and  N_19 
ROOT
ATOM      1  C   UNL d   1      32.365  22.455 -20.216  0.00  0.00     0.105 A 
ATOM      2  C   UNL d   1      31.799  21.926 -20.354  0.00  0.00     0.015 A 
ATOM      3  C   UNL d   1      33.066  22.414 -20.618  0.00  0.00     0.015 A 
ATOM      4  C   UNL d   1      32.594  21.315 -21.273  0.00  0.00     0.085 A 
ATOM      5  C   UNL d   1      33.160  21.841 -21.138  0.00  0.00     0.020 A 
ATOM      6  C   UNL d   1      31.913  21.335 -20.899  0.00  0.00     0.020 A 
ENDROOT
BRANCH   4   7
ATOM      7  N   UNL d   1      32.681  20.747 -21.786  0.00  0.00    -0.208 NA
ATOM      8  C   UNL d   1      32.663  19.956 -21.533  0.00  0.00     0.285 C 
ATOM      9  O   UNL d   1      32.551  19.775 -20.724  0.00  0.00    -0.265 OA
BRANCH   8  10
ATOM     10  C   UNL d   1      32.756  19.332 -22.084  0.00  0.00     0.089 A 
ATOM     11  C   UNL d   1      32.849  19.409 -22.900  0.00  0.00     0.018 A 
ATOM     12  C   UNL d   1      32.922  18.640 -23.226  0.00  0.00     0.081 A 
ATOM     13  C   UNL d   1      32.873  18.090 -22.598  0.00  0.00     0.117 A 
ATOM     14  C   UNL d   1      33.027  18.377 -24.006  0.00  0.00     0.268 A 
ATOM     15  N   UNL d   1      32.928  17.281 -22.760  0.00  0.00    -0.221 NA
ATOM     16  S   UNL d   1      32.770  18.517 -21.892  0.00  0.00    -0.063 SA
ATOM     17  C   UNL d   1      33.033  17.009 -23.541  0.00  0.00     0.151 A 
ATOM     18  N   UNL d   1      33.081  17.560 -24.159  0.00  0.00    -0.258 N 
ATOM     19  C   UNL d   1      33.088  16.201 -23.698  0.00  0.00     0.038 A 
ATOM     20  C   UNL d   1      33.187  17.296 -24.950  0.00  0.00     0.084 A 
ATOM     21  C   UNL d   1      33.241  16.476 -25.094  0.00  0.00     0.019 A 
ATOM     22  C   UNL d   1      33.191  15.931 -24.471  0.00  0.00     0.005 A 
ATOM     23  O   UNL d   1      33.077  18.927 -24.635  0.00  0.00    -0.267 OA
ENDBRANCH   8  10
ENDBRANCH   4   7
BRANCH   1  24
ATOM     24  S   UNL d   1      32.245  22.998 -19.707  0.00  0.00     0.287 S 
ATOM     25  O   UNL d   1      31.574  23.696 -19.241  0.00  0.00    -0.198 OA
ATOM     26  O   UNL d   1      31.217  23.041 -20.037  0.00  0.00    -0.198 OA
BRANCH  24  27
ATOM     27  N   UNL d   1      32.983  23.323 -19.109  0.00  0.00    -0.139 NA
BRANCH  27  28
ATOM     28  C   UNL d   1      33.049  23.031 -18.395  0.00  0.00     0.178 A 
ATOM     29  N   UNL d   1      33.104  22.213 -18.336  0.00  0.00    -0.207 NA
ATOM     30  C   UNL d   1      33.173  21.917 -17.578  0.00  0.00     0.164 A 
ATOM     31  C   UNL d   1      33.225  21.164 -17.512  0.00  0.00     0.042 C 
ATOM     32  N   UNL d   1      33.188  22.412 -16.899  0.00  0.00    -0.227 NA
ATOM     33  C   UNL d   1      33.132  23.222 -16.975  0.00  0.00     0.086 A 
ATOM     34  C   UNL d   1      33.063  23.528 -17.724  0.00  0.00     0.059 A 
ATOM     35  C   UNL d   1      33.144  23.668 -16.369  0.00  0.00     0.021 C 
ENDBRANCH  27  28
ENDBRANCH  24  27
ENDBRANCH   1  24
TORSDOF 5
ENDMDL
