MODEL 1
REMARK VINA RESULT:     173.6      0.000      0.000
REMARK  6 active torsions:
REMARK  status: ('A' for Active; 'I' for Inactive)
REMARK    1  A    between atoms: S_5  and  C_2 
REMARK    2  A    between atoms: C_15  and  S_5 
REMARK    3  A    between atoms: N_11  and  C_8 
REMARK    4  A    between atoms: C_16  and  N_11 
REMARK    5  A    between atoms: C_17  and  N_12 
REMARK    6  A    between atoms: C_24  and  C_17 
ROOT
ATOM      1  C   UNL d   1     -54.980-100.761 -42.404  0.00  0.00     0.197 A 
ATOM      2  C   UNL d   1     -55.036-100.527 -41.624  0.00  0.00     0.227 A 
ATOM      3  N   UNL d   1     -54.932-100.080 -42.870  0.00  0.00    -0.192 N 
ATOM      4  N   UNL d   1     -54.965-101.508 -42.762  0.00  0.00    -0.206 NA
ATOM      5  N   UNL d   1     -55.023 -99.709 -41.601  0.00  0.00    -0.115 NA
ATOM      6  N   UNL d   1     -54.958 -99.427 -42.377  0.00  0.00    -0.058 NA
ATOM      7  C   UNL d   1     -54.903-101.572 -43.579  0.00  0.00     0.166 A 
ATOM      8  C   UNL d   1     -54.855-100.891 -44.046  0.00  0.00     0.054 A 
ATOM      9  C   UNL d   1     -54.869-100.148 -43.694  0.00  0.00     0.089 A 
ATOM     10  C   UNL d   1     -54.793-100.957 -44.866  0.00  0.00     0.005 A 
ATOM     11  C   UNL d   1     -54.821 -99.464 -44.163  0.00  0.00     0.019 A 
ATOM     12  C   UNL d   1     -54.745-100.272 -45.335  0.00  0.00     0.000 A 
ATOM     13  C   UNL d   1     -54.759 -99.528 -44.980  0.00  0.00     0.002 A 
ENDROOT
BRANCH   7  14
ATOM     14  N   UNL d   1     -54.890-102.326 -43.928  0.00  0.00    -0.227 NA
BRANCH  14  15
ATOM     15  C   UNL d   1     -55.213-102.446 -44.684  0.00  0.00     0.086 A 
ATOM     16  C   UNL d   1     -54.714-102.515 -45.342  0.00  0.00     0.038 A 
ATOM     17  C   UNL d   1     -55.039-102.634 -46.094  0.00  0.00     0.082 A 
ATOM     18  N   UNL d   1     -55.861-102.683 -46.184  0.00  0.00    -0.302 N 
ATOM     19  C   UNL d   1     -56.353-102.615 -45.528  0.00  0.00     0.082 A 
ATOM     20  C   UNL d   1     -56.028-102.496 -44.777  0.00  0.00     0.038 A 
BRANCH  18  21
ATOM     21  C   UNL d   1     -56.188-102.802 -46.930  0.00  0.00     0.080 C 
BRANCH  21  22
ATOM     22  C   UNL d   1     -56.951-102.529 -47.091  0.00  0.00     0.018 A 
ATOM     23  C   UNL d   1     -57.063-101.937 -47.653  0.00  0.00     0.002 A 
ATOM     24  C   UNL d   1     -57.819-101.660 -47.820  0.00  0.00     0.000 A 
ATOM     25  C   UNL d   1     -58.478-101.981 -47.416  0.00  0.00     0.000 A 
ATOM     26  C   UNL d   1     -58.357-102.572 -46.856  0.00  0.00     0.000 A 
ATOM     27  C   UNL d   1     -57.597-102.849 -46.690  0.00  0.00     0.002 A 
ENDBRANCH  21  22
ENDBRANCH  18  21
ENDBRANCH  14  15
ENDBRANCH   7  14
BRANCH   2  28
ATOM     28  S   UNL d   1     -55.095-101.027 -40.969  0.00  0.00     0.231 S 
ATOM     29  O   UNL d   1     -55.423-100.409 -40.527  0.00  0.00    -0.215 OA
ATOM     30  O   UNL d   1     -54.769-101.648 -41.402  0.00  0.00    -0.215 OA
BRANCH  28  31
ATOM     31  C   UNL d   1     -55.158-101.519 -40.311  0.00  0.00     0.090 A 
ATOM     32  C   UNL d   1     -54.732-101.351 -39.634  0.00  0.00     0.011 A 
ATOM     33  C   UNL d   1     -54.792-101.842 -38.973  0.00  0.00     0.001 A 
ATOM     34  C   UNL d   1     -55.283-102.503 -38.994  0.00  0.00     0.000 A 
ATOM     35  C   UNL d   1     -55.708-102.668 -39.673  0.00  0.00     0.001 A 
ATOM     36  C   UNL d   1     -55.646-102.179 -40.329  0.00  0.00     0.011 A 
ENDBRANCH  28  31
ENDBRANCH   2  28
TORSDOF 6
ENDMDL
