MODEL 1
REMARK VINA RESULT:      71.6      0.000      0.000
REMARK  5 active torsions:
REMARK  status: ('A' for Active; 'I' for Inactive)
REMARK    1  A    between atoms: C_10  and  C_4 
REMARK    2  A    between atoms: C_19  and  N_5 
REMARK       I    between atoms: N_11  and  C_10 
REMARK    3  A    between atoms: C_22  and  C_19 
REMARK    4  A    between atoms: C_26  and  C_22 
REMARK    5  A    between atoms: O_23  and  C_26 
ROOT
ATOM      1  C   UNL d   1      58.069  49.687  53.126  0.00  0.00     0.154 A 
ATOM      2  C   UNL d   1      57.255  49.684  53.265  0.00  0.00     0.093 A 
ATOM      3  N   UNL d   1      58.588  49.694  53.744  0.00  0.00    -0.210 NA
ATOM      4  C   UNL d   1      57.836  49.678  51.774  0.00  0.00     0.122 A 
ATOM      5  N   UNL d   1      58.354  49.684  52.385  0.00  0.00    -0.286 N 
ATOM      6  C   UNL d   1      56.961  49.688  54.016  0.00  0.00     0.269 A 
ATOM      7  N   UNL d   1      57.490  49.694  54.629  0.00  0.00    -0.258 N 
ATOM      8  C   UNL d   1      58.303  49.697  54.489  0.00  0.00     0.152 A 
ATOM      9  C   UNL d   1      57.036  49.675  51.912  0.00  0.00     0.030 A 
ATOM     10  C   UNL d   1      57.189  49.698  55.376  0.00  0.00     0.084 A 
ATOM     11  O   UNL d   1      56.148  49.685  54.156  0.00  0.00    -0.266 OA
ATOM     12  C   UNL d   1      58.816  49.704  55.096  0.00  0.00     0.038 A 
ATOM     13  C   UNL d   1      57.722  49.704  55.980  0.00  0.00     0.019 A 
ATOM     14  C   UNL d   1      58.536  49.707  55.840  0.00  0.00     0.005 A 
ENDROOT
BRANCH   4  15
ATOM     15  C   UNL d   1      58.131  49.674  51.016  0.00  0.00     0.281 C 
ATOM     16  N   UNL d   1      57.595  49.673  50.374  0.00  0.00    -0.267 N 
ATOM     17  C   UNL d   1      57.895  49.669  49.593  0.00  0.00     0.110 A 
ATOM     18  C   UNL d   1      56.770  49.675  50.516  0.00  0.00     0.110 A 
ATOM     19  C   UNL d   1      57.362  49.668  48.946  0.00  0.00     0.142 A 
ATOM     20  O   UNL d   1      56.535  49.671  49.079  0.00  0.00    -0.300 OA
ATOM     21  C   UNL d   1      56.241  49.674  49.864  0.00  0.00     0.142 A 
ATOM     22  O   UNL d   1      58.942  49.672  50.889  0.00  0.00    -0.265 OA
ENDBRANCH   4  15
BRANCH   5  23
ATOM     23  C   UNL d   1      59.177  49.687  52.253  0.00  0.00     0.084 C 
BRANCH  23  24
ATOM     24  C   UNL d   1      59.513  49.169  51.697  0.00  0.00     0.045 C 
BRANCH  24  25
ATOM     25  C   UNL d   1      59.844  48.448  51.953  0.00  0.00     0.118 C 
BRANCH  25  26
ATOM     26  O   UNL d   1      60.636  48.274  51.773  0.00  0.00    -0.326 OA
ATOM     27  C   UNL d   1      61.232  48.397  52.349  0.00  0.00     0.181 C 
ENDBRANCH  25  26
ENDBRANCH  24  25
ENDBRANCH  23  24
ENDBRANCH   5  23
TORSDOF 5
ENDMDL
