MODEL 1
REMARK VINA RESULT:     -12.1      0.000      0.000
REMARK  6 active torsions:
REMARK  status: ('A' for Active; 'I' for Inactive)
REMARK    1  A    between atoms: N_13  and  C_2 
REMARK    2  A    between atoms: C_22  and  C_5 
REMARK    3  A    between atoms: C_23  and  C_6 
REMARK    4  A    between atoms: C_7  and  S_17 
REMARK       I    between atoms: C_16  and  N_13 
REMARK    5  A    between atoms: C_25  and  C_16 
REMARK    6  A    between atoms: S_17  and  C_25 
ROOT
ATOM      1  C   UNL d   1      52.727  33.690  53.627  0.00  0.00     0.092 A 
ATOM      2  C   UNL d   1      53.185  32.341  53.614  0.00  0.00     0.057 A 
ATOM      3  C   UNL d   1      53.286  33.122  53.843  0.00  0.00     0.016 A 
ATOM      4  C   UNL d   1      52.072  33.471  53.183  0.00  0.00     0.120 A 
ATOM      5  N   UNL d   1      51.967  32.687  52.950  0.00  0.00    -0.239 NA
ATOM      6  C   UNL d   1      52.526  32.118  53.167  0.00  0.00     0.081 A 
ATOM      7  C   UNL d   1      53.746  31.781  53.833  0.00  0.00     0.193 A 
ATOM      8  C   UNL d   1      52.832  34.475  53.859  0.00  0.00     0.103 C 
ATOM      9  N   UNL d   1      52.926  35.262  54.086  0.00  0.00    -0.191 NA
ATOM     10  C   UNL d   1      52.984  30.765  53.152  0.00  0.00     0.042 A 
ATOM     11  C   UNL d   1      53.649  30.982  53.602  0.00  0.00     0.019 A 
ATOM     12  C   UNL d   1      52.421  31.335  52.934  0.00  0.00    -0.003 A 
ATOM     13  O   UNL d   1      54.407  31.998  54.280  0.00  0.00    -0.287 OA
ATOM     14  C   UNL d   1      52.427  30.338  52.723  0.00  0.00     0.009 C 
ATOM     15  C   UNL d   1      53.551  30.199  53.374  0.00  0.00     0.009 C 
ENDROOT
BRANCH   4  16
ATOM     16  S   UNL d   1      51.513  34.039  52.967  0.00  0.00    -0.062 SA
BRANCH  16  17
ATOM     17  C   UNL d   1      50.744  33.809  52.765  0.00  0.00     0.100 C 
BRANCH  17  18
ATOM     18  C   UNL d   1      50.169  34.385  52.626  0.00  0.00     0.302 C 
ATOM     19  N   UNL d   1      49.565  34.505  53.164  0.00  0.00    -0.018 NA
ATOM     20  O   UNL d   1      50.202  34.841  51.944  0.00  0.00    -0.264 OA
BRANCH  19  21
ATOM     21  C   UNL d   1      48.981  35.090  53.023  0.00  0.00     0.760 A 
ATOM     22  N   UNL d   1      48.287  34.988  52.594  0.00  0.00    -0.051 NA
ATOM     23  C   UNL d   1      47.885  35.700  52.597  0.00  0.00     0.147 A 
ATOM     24  S   UNL d   1      48.328  36.237  53.025  0.00  0.00     0.052 SA
ATOM     25  N   UNL d   1      49.007  35.858  53.288  0.00  0.00    -0.019 NA
BRANCH  23  26
ATOM     26  C   UNL d   1      47.161  35.885  52.245  0.00  0.00     0.026 A 
ATOM     27  C   UNL d   1      46.962  35.553  51.518  0.00  0.00     0.002 A 
ATOM     28  C   UNL d   1      46.235  35.739  51.165  0.00  0.00     0.000 A 
ATOM     29  C   UNL d   1      45.712  36.250  51.533  0.00  0.00     0.000 A 
ATOM     30  C   UNL d   1      45.912  36.582  52.260  0.00  0.00     0.000 A 
ATOM     31  C   UNL d   1      46.641  36.399  52.620  0.00  0.00     0.002 A 
ENDBRANCH  23  26
ENDBRANCH  19  21
ENDBRANCH  17  18
ENDBRANCH  16  17
ENDBRANCH   4  16
BRANCH   3  32
ATOM     32  C   UNL d   1      53.940  33.342  54.287  0.00  0.00     0.001 A 
ATOM     33  C   UNL d   1      53.897  33.336  55.112  0.00  0.00     0.000 A 
ATOM     34  C   UNL d   1      54.551  33.557  55.556  0.00  0.00     0.000 A 
ATOM     35  C   UNL d   1      55.251  33.785  55.187  0.00  0.00     0.000 A 
ATOM     36  C   UNL d   1      55.295  33.791  54.363  0.00  0.00     0.000 A 
ATOM     37  C   UNL d   1      54.638  33.569  53.911  0.00  0.00     0.000 A 
ENDBRANCH   3  32
TORSDOF 6
ENDMDL
