MODEL 1
REMARK VINA RESULT:      -5.5      0.000      0.000
REMARK  3 active torsions:
REMARK  status: ('A' for Active; 'I' for Inactive)
REMARK    1  A    between atoms: C_6  and  C_16 
REMARK    2  A    between atoms: S_14  and  C_8 
REMARK    3  A    between atoms: C_16  and  S_14 
ROOT
ATOM      1  C   UNL d   1     -42.075-122.853 -49.776  0.00  0.00     0.141 A 
ATOM      2  O   UNL d   1     -41.428-123.264 -49.468  0.00  0.00    -0.303 OA
ATOM      3  C   UNL d   1     -42.613-122.729 -49.164  0.00  0.00     0.110 A 
ATOM      4  C   UNL d   1     -42.300-123.063 -48.477  0.00  0.00     0.043 A 
ATOM      5  C   UNL d   1     -42.242-122.575 -50.536  0.00  0.00     0.137 A 
ATOM      6  C   UNL d   1     -41.569-123.394 -48.666  0.00  0.00     0.102 A 
ATOM      7  N   UNL d   1     -42.948-122.173 -50.681  0.00  0.00    -0.215 NA
ATOM      8  N   UNL d   1     -43.319-122.327 -49.309  0.00  0.00    -0.222 NA
ATOM      9  C   UNL d   1     -43.487-122.049 -50.069  0.00  0.00     0.200 A 
ATOM     10  C   UNL d   1     -42.588-123.109 -47.705  0.00  0.00     0.004 A 
ATOM     11  C   UNL d   1     -41.124-123.771 -48.081  0.00  0.00     0.025 A 
ATOM     12  C   UNL d   1     -42.143-123.486 -47.121  0.00  0.00     0.000 A 
ATOM     13  C   UNL d   1     -41.410-123.817 -47.309  0.00  0.00     0.002 A 
ENDROOT
BRANCH   5  14
ATOM     14  S   UNL d   1     -41.703-122.699 -51.148  0.00  0.00    -0.062 SA
BRANCH  14  15
ATOM     15  C   UNL d   1     -41.640-122.149 -51.760  0.00  0.00     0.076 C 
BRANCH  15  16
ATOM     16  C   UNL d   1     -41.553-122.407 -52.538  0.00  0.00     0.169 A 
ATOM     17  N   UNL d   1     -41.614-121.941 -53.216  0.00  0.00    -0.225 NA
ATOM     18  C   UNL d   1     -41.487-122.424 -53.871  0.00  0.00     0.101 A 
ATOM     19  C   UNL d   1     -41.481-122.266 -54.681  0.00  0.00     0.021 A 
ATOM     20  C   UNL d   1     -41.348-123.191 -53.600  0.00  0.00     0.101 A 
ATOM     21  C   UNL d   1     -41.335-122.875 -55.219  0.00  0.00     0.002 A 
ATOM     22  C   UNL d   1     -41.197-123.640 -54.948  0.00  0.00     0.002 A 
ATOM     23  C   UNL d   1     -41.203-123.798 -54.138  0.00  0.00     0.021 A 
ATOM     24  N   UNL d   1     -41.389-123.181 -52.776  0.00  0.00    -0.225 NA
ENDBRANCH  15  16
ENDBRANCH  14  15
ENDBRANCH   5  14
TORSDOF 3
ENDMDL
MODEL 2
REMARK VINA RESULT:      -4.9      1.170      5.217
REMARK  3 active torsions:
REMARK  status: ('A' for Active; 'I' for Inactive)
REMARK    1  A    between atoms: C_6  and  C_16 
REMARK    2  A    between atoms: S_14  and  C_8 
REMARK    3  A    between atoms: C_16  and  S_14 
ROOT
ATOM      1  C   UNL d   1     -41.613-122.501 -52.284  0.00  0.00     0.141 A 
ATOM      2  O   UNL d   1     -41.841-123.201 -52.658  0.00  0.00    -0.303 OA
ATOM      3  C   UNL d   1     -41.441-121.944 -52.867  0.00  0.00     0.110 A 
ATOM      4  C   UNL d   1     -41.562-122.299 -53.602  0.00  0.00     0.043 A 
ATOM      5  C   UNL d   1     -41.540-122.300 -51.486  0.00  0.00     0.137 A 
ATOM      6  C   UNL d   1     -41.809-123.074 -53.473  0.00  0.00     0.102 A 
ATOM      7  N   UNL d   1     -41.295-121.541 -51.273  0.00  0.00    -0.215 NA
ATOM      8  N   UNL d   1     -41.195-121.185 -52.655  0.00  0.00    -0.222 NA
ATOM      9  C   UNL d   1     -41.123-120.984 -51.856  0.00  0.00     0.200 A 
ATOM     10  C   UNL d   1     -41.479-122.014 -54.372  0.00  0.00     0.004 A 
ATOM     11  C   UNL d   1     -41.973-123.568 -54.115  0.00  0.00     0.025 A 
ATOM     12  C   UNL d   1     -41.643-122.507 -55.014  0.00  0.00     0.000 A 
ATOM     13  C   UNL d   1     -41.891-123.285 -54.885  0.00  0.00     0.002 A 
ENDROOT
BRANCH   5  14
ATOM     14  S   UNL d   1     -41.712-122.858 -50.902  0.00  0.00    -0.062 SA
BRANCH  14  15
ATOM     15  C   UNL d   1     -41.246-122.901 -50.223  0.00  0.00     0.076 C 
BRANCH  15  16
ATOM     16  C   UNL d   1     -41.590-123.098 -49.500  0.00  0.00     0.169 A 
ATOM     17  N   UNL d   1     -41.214-123.095 -48.765  0.00  0.00    -0.225 NA
ATOM     18  C   UNL d   1     -41.763-123.328 -48.196  0.00  0.00     0.101 A 
ATOM     19  C   UNL d   1     -41.704-123.425 -47.379  0.00  0.00     0.021 A 
ATOM     20  C   UNL d   1     -42.480-123.476 -48.578  0.00  0.00     0.101 A 
ATOM     21  C   UNL d   1     -42.362-123.670 -46.944  0.00  0.00     0.002 A 
ATOM     22  C   UNL d   1     -43.076-123.817 -47.325  0.00  0.00     0.002 A 
ATOM     23  C   UNL d   1     -43.136-123.720 -48.143  0.00  0.00     0.021 A 
ATOM     24  N   UNL d   1     -42.372-123.334 -49.384  0.00  0.00    -0.225 NA
ENDBRANCH  15  16
ENDBRANCH  14  15
ENDBRANCH   5  14
TORSDOF 3
ENDMDL
MODEL 3
REMARK VINA RESULT:      -3.9      1.180      1.529
REMARK  3 active torsions:
REMARK  status: ('A' for Active; 'I' for Inactive)
REMARK    1  A    between atoms: C_6  and  C_16 
REMARK    2  A    between atoms: S_14  and  C_8 
REMARK    3  A    between atoms: C_16  and  S_14 
ROOT
ATOM      1  C   UNL d   1     -42.007-122.647 -50.643  0.00  0.00     0.141 A 
ATOM      2  O   UNL d   1     -42.476-123.313 -50.509  0.00  0.00    -0.303 OA
ATOM      3  C   UNL d   1     -41.956-122.225 -49.936  0.00  0.00     0.110 A 
ATOM      4  C   UNL d   1     -42.392-122.629 -49.365  0.00  0.00     0.043 A 
ATOM      5  C   UNL d   1     -41.620-122.370 -51.318  0.00  0.00     0.137 A 
ATOM      6  C   UNL d   1     -42.713-123.301 -49.719  0.00  0.00     0.102 A 
ATOM      7  N   UNL d   1     -41.182-121.672 -51.285  0.00  0.00    -0.215 NA
ATOM      8  N   UNL d   1     -41.518-121.526 -49.903  0.00  0.00    -0.222 NA
ATOM      9  C   UNL d   1     -41.131-121.249 -50.578  0.00  0.00     0.200 A 
ATOM     10  C   UNL d   1     -42.539-122.472 -48.568  0.00  0.00     0.004 A 
ATOM     11  C   UNL d   1     -43.182-123.817 -49.276  0.00  0.00     0.025 A 
ATOM     12  C   UNL d   1     -43.007-122.988 -48.125  0.00  0.00     0.000 A 
ATOM     13  C   UNL d   1     -43.329-123.661 -48.479  0.00  0.00     0.002 A 
ENDROOT
BRANCH   5  14
ATOM     14  S   UNL d   1     -41.672-122.793 -52.025  0.00  0.00    -0.062 SA
BRANCH  14  15
ATOM     15  C   UNL d   1     -41.184-122.594 -52.660  0.00  0.00     0.076 C 
BRANCH  15  16
ATOM     16  C   UNL d   1     -41.509-122.493 -53.412  0.00  0.00     0.169 A 
ATOM     17  N   UNL d   1     -41.549-121.785 -53.834  0.00  0.00    -0.225 NA
ATOM     18  C   UNL d   1     -41.915-121.938 -54.556  0.00  0.00     0.101 A 
ATOM     19  C   UNL d   1     -42.104-121.451 -55.194  0.00  0.00     0.021 A 
ATOM     20  C   UNL d   1     -42.103-122.742 -54.582  0.00  0.00     0.101 A 
ATOM     21  C   UNL d   1     -42.479-121.766 -55.859  0.00  0.00     0.002 A 
ATOM     22  C   UNL d   1     -42.666-122.568 -55.884  0.00  0.00     0.002 A 
ATOM     23  C   UNL d   1     -42.478-123.056 -55.245  0.00  0.00     0.021 A 
ATOM     24  N   UNL d   1     -41.852-123.084 -53.875  0.00  0.00    -0.225 NA
ENDBRANCH  15  16
ENDBRANCH  14  15
ENDBRANCH   5  14
TORSDOF 3
ENDMDL
