MODEL 1
REMARK VINA RESULT:      -6.2      0.000      0.000
REMARK  4 active torsions:
REMARK  status: ('A' for Active; 'I' for Inactive)
REMARK    1  A    between atoms: C_5  and  C_2 
REMARK    2  A    between atoms: C_7  and  C_5 
REMARK       I    between atoms: N_9  and  C_7 
REMARK    3  A    between atoms: C_8  and  C_10 
REMARK    4  A    between atoms: C_17  and  N_9 
ROOT
ATOM      1  C   UNL d   1     -41.398-122.723 -52.172  0.00  0.00     0.280 C 
ATOM      2  N   UNL d   1     -41.131-122.219 -51.581  0.00  0.00    -0.208 NA
ATOM      3  O   UNL d   1     -41.933-123.322 -51.991  0.00  0.00    -0.265 OA
ENDROOT
BRANCH   1   4
ATOM      4  C   UNL d   1     -41.131-122.631 -52.950  0.00  0.00     0.074 C 
BRANCH   4   5
ATOM      5  C   UNL d   1     -41.531-122.555 -53.661  0.00  0.00     0.097 A 
ATOM      6  C   UNL d   1     -41.530-123.102 -54.278  0.00  0.00     0.288 A 
ATOM      7  N   UNL d   1     -42.001-122.808 -54.885  0.00  0.00    -0.163 NA
ATOM      8  O   UNL d   1     -41.123-123.817 -54.278  0.00  0.00    -0.265 OA
ATOM      9  C   UNL d   1     -42.298-122.076 -54.645  0.00  0.00     0.313 A 
ATOM     10  S   UNL d   1     -42.009-121.920 -53.891  0.00  0.00    -0.021 SA
ATOM     11  O   UNL d   1     -42.794-121.587 -55.077  0.00  0.00    -0.258 OA
ENDBRANCH   4   5
ENDBRANCH   1   4
BRANCH   2  12
ATOM     12  C   UNL d   1     -41.509-122.473 -50.892  0.00  0.00     0.085 A 
ATOM     13  C   UNL d   1     -42.215-122.134 -50.664  0.00  0.00     0.019 A 
ATOM     14  C   UNL d   1     -42.598-122.384 -49.976  0.00  0.00     0.008 A 
ATOM     15  C   UNL d   1     -42.260-122.987 -49.513  0.00  0.00     0.065 A 
ATOM     16  C   UNL d   1     -41.539-123.331 -49.749  0.00  0.00     0.008 A 
ATOM     17  C   UNL d   1     -41.168-123.074 -50.435  0.00  0.00     0.019 A 
BRANCH  15  18
ATOM     18  C   UNL d   1     -42.635-123.240 -48.829  0.00  0.00     0.211 C 
ATOM     19  O   UNL d   1     -42.388-122.956 -48.094  0.00  0.00    -0.644 OA
ATOM     20  O   UNL d   1     -43.261-123.777 -48.871  0.00  0.00    -0.644 OA
ENDBRANCH  15  18
ENDBRANCH   2  12
TORSDOF 4
ENDMDL
MODEL 2
REMARK VINA RESULT:      -4.3      1.439      4.571
REMARK  4 active torsions:
REMARK  status: ('A' for Active; 'I' for Inactive)
REMARK    1  A    between atoms: C_5  and  C_2 
REMARK    2  A    between atoms: C_7  and  C_5 
REMARK       I    between atoms: N_9  and  C_7 
REMARK    3  A    between atoms: C_8  and  C_10 
REMARK    4  A    between atoms: C_17  and  N_9 
ROOT
ATOM      1  C   UNL d   1     -41.652-122.518 -51.426  0.00  0.00     0.280 C 
ATOM      2  N   UNL d   1     -41.122-122.876 -51.942  0.00  0.00    -0.208 NA
ATOM      3  O   UNL d   1     -42.268-122.059 -51.721  0.00  0.00    -0.265 OA
ENDROOT
BRANCH   1   4
ATOM      4  C   UNL d   1     -41.568-122.617 -50.608  0.00  0.00     0.074 C 
BRANCH   4   5
ATOM      5  C   UNL d   1     -42.062-122.947 -50.043  0.00  0.00     0.097 A 
ATOM      6  C   UNL d   1     -41.861-123.107 -49.260  0.00  0.00     0.288 A 
ATOM      7  N   UNL d   1     -42.516-123.435 -48.887  0.00  0.00    -0.163 NA
ATOM      8  O   UNL d   1     -41.127-122.960 -48.918  0.00  0.00    -0.265 OA
ATOM      9  C   UNL d   1     -43.128-123.480 -49.440  0.00  0.00     0.313 A 
ATOM     10  S   UNL d   1     -42.848-123.179 -50.153  0.00  0.00    -0.021 SA
ATOM     11  O   UNL d   1     -43.882-123.772 -49.308  0.00  0.00    -0.258 OA
ENDBRANCH   4   5
ENDBRANCH   1   4
BRANCH   2  12
ATOM     12  C   UNL d   1     -41.376-122.657 -52.698  0.00  0.00     0.085 A 
ATOM     13  C   UNL d   1     -41.513-123.228 -53.265  0.00  0.00     0.019 A 
ATOM     14  C   UNL d   1     -41.766-123.015 -54.021  0.00  0.00     0.008 A 
ATOM     15  C   UNL d   1     -41.882-122.212 -54.207  0.00  0.00     0.065 A 
ATOM     16  C   UNL d   1     -41.740-121.632 -53.625  0.00  0.00     0.008 A 
ATOM     17  C   UNL d   1     -41.489-121.856 -52.876  0.00  0.00     0.019 A 
BRANCH  15  18
ATOM     18  C   UNL d   1     -42.133-121.995 -54.957  0.00  0.00     0.211 C 
ATOM     19  O   UNL d   1     -42.933-122.049 -55.155  0.00  0.00    -0.644 OA
ATOM     20  O   UNL d   1     -41.590-121.721 -55.515  0.00  0.00    -0.644 OA
ENDBRANCH  15  18
ENDBRANCH   2  12
TORSDOF 4
ENDMDL
MODEL 3
REMARK VINA RESULT:      -4.1      1.593      4.595
REMARK  4 active torsions:
REMARK  status: ('A' for Active; 'I' for Inactive)
REMARK    1  A    between atoms: C_5  and  C_2 
REMARK    2  A    between atoms: C_7  and  C_5 
REMARK       I    between atoms: N_9  and  C_7 
REMARK    3  A    between atoms: C_8  and  C_10 
REMARK    4  A    between atoms: C_17  and  N_9 
ROOT
ATOM      1  C   UNL d   1     -41.757-123.512 -51.305  0.00  0.00     0.280 C 
ATOM      2  N   UNL d   1     -41.123-123.652 -51.808  0.00  0.00    -0.208 NA
ATOM      3  O   UNL d   1     -42.397-123.066 -51.566  0.00  0.00    -0.265 OA
ENDROOT
BRANCH   1   4
ATOM      4  C   UNL d   1     -41.754-123.818 -50.536  0.00  0.00     0.074 C 
BRANCH   4   5
ATOM      5  C   UNL d   1     -41.962-123.488 -49.815  0.00  0.00     0.097 A 
ATOM      6  C   UNL d   1     -42.717-123.484 -49.484  0.00  0.00     0.288 A 
ATOM      7  N   UNL d   1     -42.680-123.098 -48.759  0.00  0.00    -0.163 NA
ATOM      8  O   UNL d   1     -43.388-123.812 -49.829  0.00  0.00    -0.265 OA
ATOM      9  C   UNL d   1     -41.898-122.860 -48.637  0.00  0.00     0.313 A 
ATOM     10  S   UNL d   1     -41.456-123.101 -49.287  0.00  0.00    -0.021 SA
ATOM     11  O   UNL d   1     -41.610-122.457 -47.985  0.00  0.00    -0.258 OA
ENDBRANCH   4   5
ENDBRANCH   1   4
BRANCH   2  12
ATOM     12  C   UNL d   1     -41.317-123.269 -52.513  0.00  0.00     0.085 A 
ATOM     13  C   UNL d   1     -41.549-123.705 -53.165  0.00  0.00     0.019 A 
ATOM     14  C   UNL d   1     -41.744-123.327 -53.873  0.00  0.00     0.008 A 
ATOM     15  C   UNL d   1     -41.704-122.497 -53.922  0.00  0.00     0.065 A 
ATOM     16  C   UNL d   1     -41.467-122.057 -53.255  0.00  0.00     0.008 A 
ATOM     17  C   UNL d   1     -41.275-122.444 -52.557  0.00  0.00     0.019 A 
BRANCH  15  18
ATOM     18  C   UNL d   1     -41.897-122.117 -54.623  0.00  0.00     0.211 C 
ATOM     19  O   UNL d   1     -41.340-122.065 -55.230  0.00  0.00    -0.644 OA
ATOM     20  O   UNL d   1     -42.646-121.785 -54.724  0.00  0.00    -0.644 OA
ENDBRANCH  15  18
ENDBRANCH   2  12
TORSDOF 4
ENDMDL
