MODEL 1
REMARK VINA RESULT:      37.9      0.000      0.000
REMARK  4 active torsions:
REMARK  status: ('A' for Active; 'I' for Inactive)
REMARK    1  A    between atoms: C_14  and  N_1 
REMARK    2  A    between atoms: S_12  and  C_2 
REMARK    3  A    between atoms: C_9  and  C_17 
REMARK    4  A    between atoms: C_17  and  S_12 
ROOT
ATOM      1  S   UNL d   1     -55.934 -99.438 -43.684  0.00  0.00    -0.045 SA
ENDROOT
BRANCH   1   2
ATOM      2  C   UNL d   1     -55.494 -99.610 -44.354  0.00  0.00     0.219 A 
ATOM      3  N   UNL d   1     -55.087-100.303 -44.489  0.00  0.00    -0.186 N 
ATOM      4  N   UNL d   1     -54.726-100.246 -45.216  0.00  0.00    -0.038 NA
ATOM      5  N   UNL d   1     -54.909 -99.515 -45.537  0.00  0.00    -0.022 NA
ATOM      6  N   UNL d   1     -55.390 -99.118 -44.993  0.00  0.00    -0.101 NA
BRANCH   3   7
ATOM      7  C   UNL d   1     -55.047-100.948 -43.980  0.00  0.00     0.087 A 
ATOM      8  C   UNL d   1     -55.301-101.688 -44.232  0.00  0.00     0.019 A 
ATOM      9  C   UNL d   1     -55.261-102.330 -43.726  0.00  0.00     0.002 A 
ATOM     10  C   UNL d   1     -54.967-102.237 -42.961  0.00  0.00     0.000 A 
ATOM     11  C   UNL d   1     -54.714-101.496 -42.709  0.00  0.00     0.002 A 
ATOM     12  C   UNL d   1     -54.754-100.851 -43.219  0.00  0.00     0.019 A 
ENDBRANCH   3   7
ENDBRANCH   1   2
BRANCH   1  13
ATOM     13  C   UNL d   1     -56.354 -98.756 -43.655  0.00  0.00     0.059 C 
BRANCH  13  14
ATOM     14  C   UNL d   1     -57.155 -98.773 -43.803  0.00  0.00     0.107 A 
ATOM     15  N   UNL d   1     -57.750 -98.809 -43.216  0.00  0.00    -0.226 NA
ATOM     16  C   UNL d   1     -58.502 -98.817 -43.628  0.00  0.00     0.148 A 
ATOM     17  C   UNL d   1     -59.291 -98.849 -43.339  0.00  0.00     0.037 A 
ATOM     18  N   UNL d   1     -58.351 -98.786 -44.452  0.00  0.00    -0.289 N 
ATOM     19  C   UNL d   1     -59.921 -98.849 -43.889  0.00  0.00     0.005 A 
ATOM     20  C   UNL d   1     -59.770 -98.817 -44.713  0.00  0.00     0.018 A 
ATOM     21  C   UNL d   1     -58.988 -98.786 -44.993  0.00  0.00     0.066 A 
ATOM     22  C   UNL d   1     -58.838 -98.755 -45.807  0.00  0.00     0.019 C 
ATOM     23  C   UNL d   1     -57.504 -98.758 -44.559  0.00  0.00     0.101 A 
ENDBRANCH  13  14
ENDBRANCH   1  13
TORSDOF 4
ENDMDL
MODEL 2
REMARK VINA RESULT:      40.0      1.010      1.719
REMARK  4 active torsions:
REMARK  status: ('A' for Active; 'I' for Inactive)
REMARK    1  A    between atoms: C_14  and  N_1 
REMARK    2  A    between atoms: S_12  and  C_2 
REMARK    3  A    between atoms: C_9  and  C_17 
REMARK    4  A    between atoms: C_17  and  S_12 
ROOT
ATOM      1  S   UNL d   1     -55.515 -99.582 -44.404  0.00  0.00    -0.045 SA
ENDROOT
BRANCH   1   2
ATOM      2  C   UNL d   1     -55.201 -99.964 -43.750  0.00  0.00     0.219 A 
ATOM      3  N   UNL d   1     -55.005-100.753 -43.710  0.00  0.00    -0.186 N 
ATOM      4  N   UNL d   1     -54.714-100.904 -42.965  0.00  0.00    -0.038 NA
ATOM      5  N   UNL d   1     -54.729-100.205 -42.538  0.00  0.00    -0.022 NA
ATOM      6  N   UNL d   1     -55.035 -99.617 -43.033  0.00  0.00    -0.101 NA
BRANCH   3   7
ATOM      7  C   UNL d   1     -55.087-101.304 -44.316  0.00  0.00     0.087 A 
ATOM      8  C   UNL d   1     -54.712-101.181 -45.037  0.00  0.00     0.019 A 
ATOM      9  C   UNL d   1     -54.793-101.728 -45.640  0.00  0.00     0.002 A 
ATOM     10  C   UNL d   1     -55.250-102.405 -45.527  0.00  0.00     0.000 A 
ATOM     11  C   UNL d   1     -55.625-102.527 -44.805  0.00  0.00     0.002 A 
ATOM     12  C   UNL d   1     -55.543-101.977 -44.199  0.00  0.00     0.019 A 
ENDBRANCH   3   7
ENDBRANCH   1   2
BRANCH   1  13
ATOM     13  C   UNL d   1     -55.901 -98.887 -44.306  0.00  0.00     0.059 C 
BRANCH  13  14
ATOM     14  C   UNL d   1     -56.706 -98.857 -44.425  0.00  0.00     0.107 A 
ATOM     15  N   UNL d   1     -57.080 -98.842 -45.173  0.00  0.00    -0.226 NA
ATOM     16  C   UNL d   1     -57.924 -98.811 -45.026  0.00  0.00     0.148 A 
ATOM     17  C   UNL d   1     -58.577 -98.786 -45.554  0.00  0.00     0.037 A 
ATOM     18  N   UNL d   1     -58.046 -98.808 -44.197  0.00  0.00    -0.289 N 
ATOM     19  C   UNL d   1     -59.350 -98.758 -45.237  0.00  0.00     0.005 A 
ATOM     20  C   UNL d   1     -59.473 -98.755 -44.408  0.00  0.00     0.018 A 
ATOM     21  C   UNL d   1     -58.823 -98.780 -43.891  0.00  0.00     0.066 A 
ATOM     22  C   UNL d   1     -58.944 -98.776 -43.070  0.00  0.00     0.019 C 
ATOM     23  C   UNL d   1     -57.280 -98.837 -43.822  0.00  0.00     0.101 A 
ENDBRANCH  13  14
ENDBRANCH   1  13
TORSDOF 4
ENDMDL
