MODEL 1
REMARK VINA RESULT:      12.0      0.000      0.000
REMARK  2 active torsions:
REMARK  status: ('A' for Active; 'I' for Inactive)
REMARK    1  A    between atoms: N_9  and  C_2 
REMARK    2  A    between atoms: C_11  and  N_9 
ROOT
ATOM      1  C   UNL d   1     -54.830-102.142 -36.611  0.00  0.00     0.154 A 
ATOM      2  C   UNL d   1     -54.755-102.072 -37.425  0.00  0.00     0.185 A 
ATOM      3  C   UNL d   1     -54.860-101.467 -36.138  0.00  0.00     0.186 A 
ATOM      4  N   UNL d   1     -54.885-102.802 -36.119  0.00  0.00    -0.218 NA
ATOM      5  N   UNL d   1     -54.935-101.710 -35.355  0.00  0.00    -0.203 NA
ATOM      6  N   UNL d   1     -54.711-101.324 -37.772  0.00  0.00    -0.203 NA
ATOM      7  N   UNL d   1     -54.817-100.721 -36.480  0.00  0.00    -0.203 NA
ATOM      8  C   UNL d   1     -54.950-102.527 -35.341  0.00  0.00     0.201 A 
ATOM      9  C   UNL d   1     -54.742-100.649 -37.299  0.00  0.00     0.202 A 
ENDROOT
BRANCH   2  10
ATOM     10  N   UNL d   1     -54.725-102.747 -37.898  0.00  0.00    -0.225 NA
BRANCH  10  11
ATOM     11  C   UNL d   1     -55.130-102.770 -38.612  0.00  0.00     0.083 A 
ATOM     12  C   UNL d   1     -55.950-102.854 -38.622  0.00  0.00     0.021 A 
ATOM     13  C   UNL d   1     -56.354-102.877 -39.332  0.00  0.00     0.031 A 
ATOM     14  C   UNL d   1     -55.938-102.816 -40.051  0.00  0.00     0.140 A 
ATOM     15  C   UNL d   1     -55.117-102.732 -40.042  0.00  0.00     0.031 A 
ATOM     16  F   UNL d   1     -56.342-102.838 -40.775  0.00  0.00    -0.204 F 
ATOM     17  C   UNL d   1     -54.713-102.709 -39.322  0.00  0.00     0.021 A 
ENDBRANCH  10  11
ENDBRANCH   2  10
TORSDOF 2
ENDMDL
