MODEL 1
REMARK VINA RESULT:      -9.8      0.000      0.000
REMARK  3 active torsions:
REMARK  status: ('A' for Active; 'I' for Inactive)
REMARK    1  A    between atoms: S_4  and  C_1 
REMARK    2  A    between atoms: C_8  and  S_4 
REMARK    3  A    between atoms: C_10  and  C_8 
ROOT
ATOM      1  C   UNL d   1      53.727  33.074  54.277  0.00  0.00     0.114 A 
ATOM      2  C   UNL d   1      53.357  33.801  54.178  0.00  0.00     0.042 A 
ATOM      3  N   UNL d   1      54.390  33.016  54.766  0.00  0.00    -0.217 NA
ATOM      4  N   UNL d   1      54.305  34.416  55.053  0.00  0.00    -0.224 NA
ATOM      5  C   UNL d   1      54.679  33.687  55.153  0.00  0.00     0.200 A 
ATOM      6  C   UNL d   1      53.646  34.472  54.566  0.00  0.00     0.085 A 
ATOM      7  C   UNL d   1      52.694  33.858  53.690  0.00  0.00     0.004 A 
ATOM      8  C   UNL d   1      53.272  35.200  54.465  0.00  0.00     0.019 A 
ATOM      9  C   UNL d   1      52.321  34.587  53.589  0.00  0.00     0.000 A 
ATOM     10  C   UNL d   1      52.610  35.258  53.977  0.00  0.00     0.002 A 
ENDROOT
BRANCH   1  11
ATOM     11  S   UNL d   1      53.439  32.404  53.890  0.00  0.00    -0.067 SA
BRANCH  11  12
ATOM     12  C   UNL d   1      53.870  31.708  53.889  0.00  0.00     0.037 C 
BRANCH  12  13
ATOM     13  C   UNL d   1      53.522  31.007  53.649  0.00  0.00     0.007 A 
ATOM     14  C   UNL d   1      53.124  30.955  52.921  0.00  0.00     0.003 A 
ATOM     15  C   UNL d   1      52.780  30.251  52.691  0.00  0.00     0.030 A 
ATOM     16  C   UNL d   1      52.827  29.594  53.176  0.00  0.00     0.140 A 
ATOM     17  C   UNL d   1      53.217  29.637  53.894  0.00  0.00     0.030 A 
ATOM     18  F   UNL d   1      52.475  28.878  52.939  0.00  0.00    -0.204 F 
ATOM     19  C   UNL d   1      53.569  30.343  54.140  0.00  0.00     0.003 A 
ENDBRANCH  12  13
ENDBRANCH  11  12
ENDBRANCH   1  11
TORSDOF 3
ENDMDL
MODEL 2
REMARK VINA RESULT:      -9.4      2.189      3.977
REMARK  3 active torsions:
REMARK  status: ('A' for Active; 'I' for Inactive)
REMARK    1  A    between atoms: S_4  and  C_1 
REMARK    2  A    between atoms: C_8  and  S_4 
REMARK    3  A    between atoms: C_10  and  C_8 
ROOT
ATOM      1  C   UNL d   1      52.911  32.704  53.300  0.00  0.00     0.114 A 
ATOM      2  C   UNL d   1      53.086  31.901  53.320  0.00  0.00     0.042 A 
ATOM      3  N   UNL d   1      53.439  33.245  53.632  0.00  0.00    -0.217 NA
ATOM      4  N   UNL d   1      54.313  32.173  54.000  0.00  0.00    -0.224 NA
ATOM      5  C   UNL d   1      54.140  32.980  53.982  0.00  0.00     0.200 A 
ATOM      6  C   UNL d   1      53.787  31.636  53.670  0.00  0.00     0.085 A 
ATOM      7  C   UNL d   1      52.559  31.360  52.988  0.00  0.00     0.004 A 
ATOM      8  C   UNL d   1      53.960  30.829  53.688  0.00  0.00     0.019 A 
ATOM      9  C   UNL d   1      52.733  30.553  53.007  0.00  0.00     0.000 A 
ATOM     10  C   UNL d   1      53.433  30.288  53.357  0.00  0.00     0.002 A 
ENDROOT
BRANCH   1  11
ATOM     11  S   UNL d   1      52.211  32.969  52.951  0.00  0.00    -0.067 SA
BRANCH  11  12
ATOM     12  C   UNL d   1      52.015  33.763  52.967  0.00  0.00     0.037 C 
BRANCH  12  13
ATOM     13  C   UNL d   1      51.297  34.017  52.668  0.00  0.00     0.007 A 
ATOM     14  C   UNL d   1      51.179  34.097  51.848  0.00  0.00     0.003 A 
ATOM     15  C   UNL d   1      50.459  34.351  51.560  0.00  0.00     0.030 A 
ATOM     16  C   UNL d   1      49.851  34.529  52.077  0.00  0.00     0.140 A 
ATOM     17  C   UNL d   1      49.958  34.453  52.885  0.00  0.00     0.030 A 
ATOM     18  F   UNL d   1      49.118  34.788  51.780  0.00  0.00    -0.204 F 
ATOM     19  C   UNL d   1      50.681  34.197  53.190  0.00  0.00     0.003 A 
ENDBRANCH  12  13
ENDBRANCH  11  12
ENDBRANCH   1  11
TORSDOF 3
ENDMDL
MODEL 3
REMARK VINA RESULT:      -9.0      2.206      3.605
REMARK  3 active torsions:
REMARK  status: ('A' for Active; 'I' for Inactive)
REMARK    1  A    between atoms: S_4  and  C_1 
REMARK    2  A    between atoms: C_8  and  S_4 
REMARK    3  A    between atoms: C_10  and  C_8 
ROOT
ATOM      1  C   UNL d   1      53.071  33.012  53.631  0.00  0.00     0.114 A 
ATOM      2  C   UNL d   1      53.626  33.293  54.169  0.00  0.00     0.042 A 
ATOM      3  N   UNL d   1      53.172  32.266  53.292  0.00  0.00    -0.217 NA
ATOM      4  N   UNL d   1      54.382  32.088  54.035  0.00  0.00    -0.224 NA
ATOM      5  C   UNL d   1      53.828  31.804  53.494  0.00  0.00     0.200 A 
ATOM      6  C   UNL d   1      54.281  32.831  54.371  0.00  0.00     0.085 A 
ATOM      7  C   UNL d   1      53.525  34.039  54.507  0.00  0.00     0.004 A 
ATOM      8  C   UNL d   1      54.836  33.115  54.911  0.00  0.00     0.019 A 
ATOM      9  C   UNL d   1      54.080  34.322  55.048  0.00  0.00     0.000 A 
ATOM     10  C   UNL d   1      54.736  33.860  55.250  0.00  0.00     0.002 A 
ENDROOT
BRANCH   1  11
ATOM     11  S   UNL d   1      52.417  33.474  53.429  0.00  0.00    -0.067 SA
BRANCH  11  12
ATOM     12  C   UNL d   1      51.874  33.205  52.879  0.00  0.00     0.037 C 
BRANCH  12  13
ATOM     13  C   UNL d   1      51.216  33.655  52.693  0.00  0.00     0.007 A 
ATOM     14  C   UNL d   1      50.606  33.769  53.247  0.00  0.00     0.003 A 
ATOM     15  C   UNL d   1      49.954  34.219  53.052  0.00  0.00     0.030 A 
ATOM     16  C   UNL d   1      49.898  34.561  52.311  0.00  0.00     0.140 A 
ATOM     17  C   UNL d   1      50.494  34.453  51.760  0.00  0.00     0.030 A 
ATOM     18  F   UNL d   1      49.232  35.019  52.116  0.00  0.00    -0.204 F 
ATOM     19  C   UNL d   1      51.159  34.000  51.944  0.00  0.00     0.003 A 
ENDBRANCH  12  13
ENDBRANCH  11  12
ENDBRANCH   1  11
TORSDOF 3
ENDMDL
MODEL 4
REMARK VINA RESULT:      -7.8      2.357      4.497
REMARK  3 active torsions:
REMARK  status: ('A' for Active; 'I' for Inactive)
REMARK    1  A    between atoms: S_4  and  C_1 
REMARK    2  A    between atoms: C_8  and  S_4 
REMARK    3  A    between atoms: C_10  and  C_8 
ROOT
ATOM      1  C   UNL d   1      53.314  30.887  53.699  0.00  0.00     0.114 A 
ATOM      2  C   UNL d   1      53.261  30.112  53.967  0.00  0.00     0.042 A 
ATOM      3  N   UNL d   1      52.961  31.096  52.983  0.00  0.00    -0.217 NA
ATOM      4  N   UNL d   1      52.504  29.751  52.810  0.00  0.00    -0.224 NA
ATOM      5  C   UNL d   1      52.556  30.529  52.539  0.00  0.00     0.200 A 
ATOM      6  C   UNL d   1      52.856  29.544  53.523  0.00  0.00     0.085 A 
ATOM      7  C   UNL d   1      53.614  29.902  54.683  0.00  0.00     0.004 A 
ATOM      8  C   UNL d   1      52.805  28.767  53.794  0.00  0.00     0.019 A 
ATOM      9  C   UNL d   1      53.563  29.124  54.954  0.00  0.00     0.000 A 
ATOM     10  C   UNL d   1      53.158  28.556  54.509  0.00  0.00     0.002 A 
ENDROOT
BRANCH   1  11
ATOM     11  S   UNL d   1      53.718  31.454  54.143  0.00  0.00    -0.067 SA
BRANCH  11  12
ATOM     12  C   UNL d   1      53.761  32.229  53.885  0.00  0.00     0.037 C 
BRANCH  12  13
ATOM     13  C   UNL d   1      54.243  32.768  54.270  0.00  0.00     0.007 A 
ATOM     14  C   UNL d   1      54.078  33.008  55.049  0.00  0.00     0.003 A 
ATOM     15  C   UNL d   1      54.564  33.545  55.424  0.00  0.00     0.030 A 
ATOM     16  C   UNL d   1      55.216  33.849  55.035  0.00  0.00     0.140 A 
ATOM     17  C   UNL d   1      55.386  33.618  54.268  0.00  0.00     0.030 A 
ATOM     18  F   UNL d   1      55.711  34.396  55.421  0.00  0.00    -0.204 F 
ATOM     19  C   UNL d   1      54.902  33.075  53.877  0.00  0.00     0.003 A 
ENDBRANCH  12  13
ENDBRANCH  11  12
ENDBRANCH   1  11
TORSDOF 3
ENDMDL
MODEL 5
REMARK VINA RESULT:      -7.4      2.101      4.393
REMARK  3 active torsions:
REMARK  status: ('A' for Active; 'I' for Inactive)
REMARK    1  A    between atoms: S_4  and  C_1 
REMARK    2  A    between atoms: C_8  and  S_4 
REMARK    3  A    between atoms: C_10  and  C_8 
ROOT
ATOM      1  C   UNL d   1      53.132  31.377  53.361  0.00  0.00     0.114 A 
ATOM      2  C   UNL d   1      53.191  30.691  53.809  0.00  0.00     0.042 A 
ATOM      3  N   UNL d   1      52.984  31.324  52.551  0.00  0.00    -0.217 NA
ATOM      4  N   UNL d   1      52.956  29.897  52.644  0.00  0.00    -0.224 NA
ATOM      5  C   UNL d   1      52.896  30.584  52.192  0.00  0.00     0.200 A 
ATOM      6  C   UNL d   1      53.103  29.951  53.451  0.00  0.00     0.085 A 
ATOM      7  C   UNL d   1      53.338  30.744  54.619  0.00  0.00     0.004 A 
ATOM      8  C   UNL d   1      53.163  29.263  53.903  0.00  0.00     0.019 A 
ATOM      9  C   UNL d   1      53.398  30.055  55.071  0.00  0.00     0.000 A 
ATOM     10  C   UNL d   1      53.310  29.315  54.713  0.00  0.00     0.002 A 
ENDROOT
BRANCH   1  11
ATOM     11  S   UNL d   1      53.219  32.117  53.719  0.00  0.00    -0.067 SA
BRANCH  11  12
ATOM     12  C   UNL d   1      53.273  32.794  53.262  0.00  0.00     0.037 C 
BRANCH  12  13
ATOM     13  C   UNL d   1      53.195  33.532  53.608  0.00  0.00     0.007 A 
ATOM     14  C   UNL d   1      53.671  33.755  54.252  0.00  0.00     0.003 A 
ATOM     15  C   UNL d   1      53.586  34.493  54.589  0.00  0.00     0.030 A 
ATOM     16  C   UNL d   1      53.031  35.016  54.294  0.00  0.00     0.140 A 
ATOM     17  C   UNL d   1      52.558  34.805  53.661  0.00  0.00     0.030 A 
ATOM     18  F   UNL d   1      52.946  35.768  54.641  0.00  0.00    -0.204 F 
ATOM     19  C   UNL d   1      52.634  34.061  53.310  0.00  0.00     0.003 A 
ENDBRANCH  12  13
ENDBRANCH  11  12
ENDBRANCH   1  11
TORSDOF 3
ENDMDL
MODEL 6
REMARK VINA RESULT:      -7.1      2.477      3.523
REMARK  3 active torsions:
REMARK  status: ('A' for Active; 'I' for Inactive)
REMARK    1  A    between atoms: S_4  and  C_1 
REMARK    2  A    between atoms: C_8  and  S_4 
REMARK    3  A    between atoms: C_10  and  C_8 
ROOT
ATOM      1  C   UNL d   1      52.246  32.837  53.263  0.00  0.00     0.114 A 
ATOM      2  C   UNL d   1      51.656  33.383  53.093  0.00  0.00     0.042 A 
ATOM      3  N   UNL d   1      52.065  32.031  53.277  0.00  0.00    -0.217 NA
ATOM      4  N   UNL d   1      50.703  32.327  52.951  0.00  0.00    -0.224 NA
ATOM      5  C   UNL d   1      51.293  31.777  53.121  0.00  0.00     0.200 A 
ATOM      6  C   UNL d   1      50.885  33.128  52.937  0.00  0.00     0.085 A 
ATOM      7  C   UNL d   1      51.837  34.188  53.078  0.00  0.00     0.004 A 
ATOM      8  C   UNL d   1      50.295  33.679  52.767  0.00  0.00     0.019 A 
ATOM      9  C   UNL d   1      51.246  34.738  52.908  0.00  0.00     0.000 A 
ATOM     10  C   UNL d   1      50.475  34.484  52.752  0.00  0.00     0.002 A 
ENDROOT
BRANCH   1  11
ATOM     11  S   UNL d   1      53.016  33.091  53.418  0.00  0.00    -0.067 SA
BRANCH  11  12
ATOM     12  C   UNL d   1      53.516  32.638  53.883  0.00  0.00     0.037 C 
BRANCH  12  13
ATOM     13  C   UNL d   1      54.116  32.994  54.312  0.00  0.00     0.007 A 
ATOM     14  C   UNL d   1      54.079  33.040  55.141  0.00  0.00     0.003 A 
ATOM     15  C   UNL d   1      54.682  33.396  55.560  0.00  0.00     0.030 A 
ATOM     16  C   UNL d   1      55.325  33.709  55.164  0.00  0.00     0.140 A 
ATOM     17  C   UNL d   1      55.370  33.669  54.348  0.00  0.00     0.030 A 
ATOM     18  F   UNL d   1      55.939  34.072  55.594  0.00  0.00    -0.204 F 
ATOM     19  C   UNL d   1      54.766  33.311  53.912  0.00  0.00     0.003 A 
ENDBRANCH  12  13
ENDBRANCH  11  12
ENDBRANCH   1  11
TORSDOF 3
ENDMDL
MODEL 7
REMARK VINA RESULT:      -7.1      4.149      5.313
REMARK  3 active torsions:
REMARK  status: ('A' for Active; 'I' for Inactive)
REMARK    1  A    between atoms: S_4  and  C_1 
REMARK    2  A    between atoms: C_8  and  S_4 
REMARK    3  A    between atoms: C_10  and  C_8 
ROOT
ATOM      1  C   UNL d   1      49.125  34.837  52.093  0.00  0.00     0.114 A 
ATOM      2  C   UNL d   1      48.533  35.334  52.374  0.00  0.00     0.042 A 
ATOM      3  N   UNL d   1      49.054  34.502  51.343  0.00  0.00    -0.217 NA
ATOM      4  N   UNL d   1      47.798  35.164  51.161  0.00  0.00    -0.224 NA
ATOM      5  C   UNL d   1      48.390  34.665  50.876  0.00  0.00     0.200 A 
ATOM      6  C   UNL d   1      47.870  35.498  51.908  0.00  0.00     0.085 A 
ATOM      7  C   UNL d   1      48.604  35.670  53.125  0.00  0.00     0.004 A 
ATOM      8  C   UNL d   1      47.278  35.996  52.192  0.00  0.00     0.019 A 
ATOM      9  C   UNL d   1      48.011  36.169  53.409  0.00  0.00     0.000 A 
ATOM     10  C   UNL d   1      47.348  36.332  52.943  0.00  0.00     0.002 A 
ENDROOT
BRANCH   1  11
ATOM     11  S   UNL d   1      49.787  34.674  52.559  0.00  0.00    -0.067 SA
BRANCH  11  12
ATOM     12  C   UNL d   1      50.387  34.197  52.273  0.00  0.00     0.037 C 
BRANCH  12  13
ATOM     13  C   UNL d   1      51.058  34.062  52.722  0.00  0.00     0.007 A 
ATOM     14  C   UNL d   1      51.697  34.595  52.707  0.00  0.00     0.003 A 
ATOM     15  C   UNL d   1      52.361  34.451  53.159  0.00  0.00     0.030 A 
ATOM     16  C   UNL d   1      52.400  33.783  53.629  0.00  0.00     0.140 A 
ATOM     17  C   UNL d   1      51.776  33.254  53.650  0.00  0.00     0.030 A 
ATOM     18  F   UNL d   1      53.079  33.640  54.089  0.00  0.00    -0.204 F 
ATOM     19  C   UNL d   1      51.098  33.387  53.198  0.00  0.00     0.003 A 
ENDBRANCH  12  13
ENDBRANCH  11  12
ENDBRANCH   1  11
TORSDOF 3
ENDMDL
