MODEL 1
REMARK VINA RESULT:       6.4      0.000      0.000
REMARK  0 active torsions:
REMARK  status: ('A' for Active; 'I' for Inactive)
ROOT
ATOM      1  N   UNL d   1     -51.579  25.452  33.309  0.00  0.00    -0.300 N 
ATOM      2  C   UNL d   1     -50.272  24.887  33.308  0.00  0.00     0.295 A 
ATOM      3  N   UNL d   1     -50.615  24.128  33.307  0.00  0.00    -0.205 NA
ATOM      4  C   UNL d   1     -50.756  25.555  33.309  0.00  0.00     0.123 A 
ATOM      5  C   UNL d   1     -51.912  24.714  33.308  0.00  0.00     0.082 A 
ATOM      6  C   UNL d   1     -51.437  24.049  33.307  0.00  0.00     0.101 A 
ATOM      7  O   UNL d   1     -49.470  24.989  33.308  0.00  0.00    -0.264 OA
ATOM      8  C   UNL d   1     -51.912  26.191  33.309  0.00  0.00     0.080 A 
ATOM      9  C   UNL d   1     -50.596  26.368  33.310  0.00  0.00     0.024 A 
ATOM     10  C   UNL d   1     -52.742  24.639  33.308  0.00  0.00     0.019 A 
ATOM     11  C   UNL d   1     -51.779  23.290  33.306  0.00  0.00     0.021 A 
ATOM     12  C   UNL d   1     -51.336  26.766  33.310  0.00  0.00     0.021 A 
ATOM     13  C   UNL d   1     -53.084  23.880  33.307  0.00  0.00     0.002 A 
ATOM     14  C   UNL d   1     -52.600  23.225  33.306  0.00  0.00     0.002 A 
ENDROOT
TORSDOF 0
ENDMDL
MODEL 2
REMARK VINA RESULT:       7.4      0.799      2.398
REMARK  0 active torsions:
REMARK  status: ('A' for Active; 'I' for Inactive)
ROOT
ATOM      1  N   UNL d   1     -52.339  24.676  33.334  0.00  0.00    -0.300 N 
ATOM      2  C   UNL d   1     -51.127  23.931  33.331  0.00  0.00     0.295 A 
ATOM      3  N   UNL d   1     -50.702  24.647  33.325  0.00  0.00    -0.205 NA
ATOM      4  C   UNL d   1     -51.952  23.944  33.336  0.00  0.00     0.123 A 
ATOM      5  C   UNL d   1     -51.926  25.373  33.328  0.00  0.00     0.082 A 
ATOM      6  C   UNL d   1     -51.109  25.365  33.324  0.00  0.00     0.101 A 
ATOM      7  O   UNL d   1     -50.750  23.215  33.332  0.00  0.00    -0.264 OA
ATOM      8  C   UNL d   1     -53.136  24.525  33.339  0.00  0.00     0.080 A 
ATOM      9  C   UNL d   1     -52.526  23.346  33.342  0.00  0.00     0.024 A 
ATOM     10  C   UNL d   1     -52.341  26.095  33.327  0.00  0.00     0.019 A 
ATOM     11  C   UNL d   1     -50.684  26.082  33.318  0.00  0.00     0.021 A 
ATOM     12  C   UNL d   1     -53.276  23.724  33.344  0.00  0.00     0.021 A 
ATOM     13  C   UNL d   1     -51.916  26.812  33.321  0.00  0.00     0.002 A 
ATOM     14  C   UNL d   1     -51.102  26.791  33.316  0.00  0.00     0.002 A 
ENDROOT
TORSDOF 0
ENDMDL
