MODEL 1
REMARK VINA RESULT:      -3.8      0.000      0.000
REMARK  2 active torsions:
REMARK  status: ('A' for Active; 'I' for Inactive)
REMARK    1  A    between atoms: N_2  and  S_1 
REMARK    2  A    between atoms: C_3  and  S_1 
ROOT
ATOM      1  S   UNL d   1     -42.123-122.535 -50.190  0.00  0.00     0.273 S 
ATOM      2  O   UNL d   1     -42.866-122.193 -50.381  0.00  0.00    -0.200 OA
ATOM      3  O   UNL d   1     -41.386-122.867 -50.009  0.00  0.00    -0.200 OA
ENDROOT
BRANCH   1   4
ATOM      4  N   UNL d   1     -41.764-122.106 -50.812  0.00  0.00    -0.231 N 
ATOM      5  C   UNL d   1     -41.659-122.469 -51.551  0.00  0.00     0.075 A 
ATOM      6  C   UNL d   1     -41.297-121.919 -52.042  0.00  0.00     0.018 A 
ATOM      7  C   UNL d   1     -41.844-123.207 -51.822  0.00  0.00     0.018 A 
ATOM      8  C   UNL d   1     -41.123-122.115 -52.805  0.00  0.00     0.002 A 
ATOM      9  C   UNL d   1     -41.181-121.247 -51.636  0.00  0.00     0.021 A 
ATOM     10  C   UNL d   1     -41.307-122.869 -53.095  0.00  0.00     0.000 A 
ATOM     11  C   UNL d   1     -41.670-123.406 -52.585  0.00  0.00     0.002 A 
ATOM     12  C   UNL d   1     -41.470-121.356 -50.866  0.00  0.00     0.092 A 
ENDBRANCH   1   4
BRANCH   1  13
ATOM     13  C   UNL d   1     -42.485-122.954 -49.579  0.00  0.00     0.121 A 
ATOM     14  C   UNL d   1     -42.177-122.947 -48.814  0.00  0.00     0.093 A 
ATOM     15  N   UNL d   1     -41.493-122.513 -48.650  0.00  0.00    -0.243 NA
ATOM     16  C   UNL d   1     -42.558-123.377 -48.214  0.00  0.00     0.018 A 
ATOM     17  C   UNL d   1     -41.187-122.506 -47.888  0.00  0.00     0.099 A 
ATOM     18  C   UNL d   1     -41.562-122.934 -47.283  0.00  0.00     0.021 A 
ATOM     19  C   UNL d   1     -42.252-123.370 -47.453  0.00  0.00     0.003 A 
ATOM     20  C   UNL d   1     -43.243-123.811 -48.379  0.00  0.00     0.002 A 
ATOM     21  C   UNL d   1     -43.550-123.817 -49.144  0.00  0.00     0.001 A 
ATOM     22  C   UNL d   1     -43.170-123.390 -49.739  0.00  0.00     0.014 A 
ENDBRANCH   1  13
TORSDOF 2
ENDMDL
MODEL 2
REMARK VINA RESULT:      -3.7      1.655      2.925
REMARK  2 active torsions:
REMARK  status: ('A' for Active; 'I' for Inactive)
REMARK    1  A    between atoms: N_2  and  S_1 
REMARK    2  A    between atoms: C_3  and  S_1 
ROOT
ATOM      1  S   UNL d   1     -41.497-122.704 -52.561  0.00  0.00     0.273 S 
ATOM      2  O   UNL d   1     -41.875-122.022 -52.872  0.00  0.00    -0.200 OA
ATOM      3  O   UNL d   1     -41.123-123.381 -52.263  0.00  0.00    -0.200 OA
ENDROOT
BRANCH   1   4
ATOM      4  N   UNL d   1     -41.494-123.051 -53.321  0.00  0.00    -0.231 N 
ATOM      5  C   UNL d   1     -41.771-122.615 -53.971  0.00  0.00     0.075 A 
ATOM      6  C   UNL d   1     -41.701-123.095 -54.634  0.00  0.00     0.018 A 
ATOM      7  C   UNL d   1     -42.067-121.866 -54.032  0.00  0.00     0.018 A 
ATOM      8  C   UNL d   1     -41.929-122.819 -55.356  0.00  0.00     0.002 A 
ATOM      9  C   UNL d   1     -41.396-123.795 -54.414  0.00  0.00     0.021 A 
ATOM     10  C   UNL d   1     -42.234-122.052 -55.433  0.00  0.00     0.000 A 
ATOM     11  C   UNL d   1     -42.296-121.588 -54.754  0.00  0.00     0.002 A 
ATOM     12  C   UNL d   1     -41.264-123.775 -53.595  0.00  0.00     0.092 A 
ENDBRANCH   1   4
BRANCH   1  13
ATOM     13  C   UNL d   1     -41.503-122.354 -51.814  0.00  0.00     0.121 A 
ATOM     14  C   UNL d   1     -41.871-122.720 -51.172  0.00  0.00     0.093 A 
ATOM     15  N   UNL d   1     -42.243-123.452 -51.274  0.00  0.00    -0.243 NA
ATOM     16  C   UNL d   1     -41.865-122.350 -50.430  0.00  0.00     0.018 A 
ATOM     17  C   UNL d   1     -42.610-123.815 -50.636  0.00  0.00     0.099 A 
ATOM     18  C   UNL d   1     -42.607-123.451 -49.889  0.00  0.00     0.021 A 
ATOM     19  C   UNL d   1     -42.231-122.713 -49.791  0.00  0.00     0.003 A 
ATOM     20  C   UNL d   1     -41.493-121.618 -50.328  0.00  0.00     0.002 A 
ATOM     21  C   UNL d   1     -41.125-121.252 -50.969  0.00  0.00     0.001 A 
ATOM     22  C   UNL d   1     -41.132-121.622 -51.707  0.00  0.00     0.014 A 
ENDBRANCH   1  13
TORSDOF 2
ENDMDL
