MODEL 1
REMARK VINA RESULT:      -3.2      0.000      0.000
REMARK  3 active torsions:
REMARK  status: ('A' for Active; 'I' for Inactive)
REMARK    1  A    between atoms: N_5  and  C_1 
REMARK    2  A    between atoms: C_8  and  C_2 
REMARK       I    between atoms: C_7  and  N_5 
REMARK    3  A    between atoms: C_9  and  C_7 
ROOT
ATOM      1  C   UNL d   1     -41.496-122.458 -52.019  0.00  0.00     0.119 A 
ATOM      2  C   UNL d   1     -41.575-121.957 -51.358  0.00  0.00     0.084 A 
ATOM      3  S   UNL d   1     -41.318-123.208 -51.743  0.00  0.00    -0.068 SA
ATOM      4  C   UNL d   1     -41.444-122.408 -50.680  0.00  0.00     0.013 A 
ATOM      5  C   UNL d   1     -41.285-123.187 -50.920  0.00  0.00     0.031 A 
ATOM      6  C   UNL d   1     -41.466-122.140 -49.904  0.00  0.00     0.001 C 
ATOM      7  C   UNL d   1     -41.123-123.817 -50.420  0.00  0.00     0.007 C 
ENDROOT
BRANCH   1   8
ATOM      8  N   UNL d   1     -41.582-122.234 -52.805  0.00  0.00    -0.200 NA
ATOM      9  C   UNL d   1     -41.619-122.812 -53.391  0.00  0.00     0.302 C 
ATOM     10  O   UNL d   1     -41.572-123.614 -53.199  0.00  0.00    -0.263 OA
BRANCH   9  11
ATOM     11  C   UNL d   1     -41.706-122.578 -54.184  0.00  0.00     0.158 A 
ATOM     12  O   UNL d   1     -42.321-122.115 -54.483  0.00  0.00    -0.300 OA
ATOM     13  C   UNL d   1     -42.189-122.014 -55.306  0.00  0.00     0.123 A 
ATOM     14  C   UNL d   1     -41.500-122.415 -55.496  0.00  0.00     0.029 A 
ATOM     15  C   UNL d   1     -41.190-122.768 -54.814  0.00  0.00     0.032 A 
ENDBRANCH   9  11
ENDBRANCH   1   8
BRANCH   2  16
ATOM     16  C   UNL d   1     -41.752-121.155 -51.381  0.00  0.00     0.299 C 
ATOM     17  O   UNL d   1     -41.146-120.600 -51.522  0.00  0.00    -0.264 OA
ATOM     18  N   UNL d   1     -42.528-120.888 -51.267  0.00  0.00    -0.102 N 
ENDBRANCH   2  16
TORSDOF 3
ENDMDL
MODEL 2
REMARK VINA RESULT:      -1.8      1.275      3.879
REMARK  3 active torsions:
REMARK  status: ('A' for Active; 'I' for Inactive)
REMARK    1  A    between atoms: N_5  and  C_1 
REMARK    2  A    between atoms: C_8  and  C_2 
REMARK       I    between atoms: C_7  and  N_5 
REMARK    3  A    between atoms: C_9  and  C_7 
ROOT
ATOM      1  C   UNL d   1     -41.879-122.272 -53.395  0.00  0.00     0.119 A 
ATOM      2  C   UNL d   1     -41.920-122.580 -54.168  0.00  0.00     0.084 A 
ATOM      3  S   UNL d   1     -41.961-121.459 -53.447  0.00  0.00    -0.068 SA
ATOM      4  C   UNL d   1     -42.027-121.950 -54.688  0.00  0.00     0.013 A 
ATOM      5  C   UNL d   1     -42.052-121.251 -54.239  0.00  0.00     0.031 A 
ATOM      6  C   UNL d   1     -42.097-121.996 -55.505  0.00  0.00     0.001 C 
ATOM      7  C   UNL d   1     -42.151-120.494 -54.538  0.00  0.00     0.007 C 
ENDROOT
BRANCH   1   8
ATOM      8  N   UNL d   1     -41.775-122.711 -52.708  0.00  0.00    -0.200 NA
ATOM      9  C   UNL d   1     -41.898-122.354 -51.975  0.00  0.00     0.302 C 
ATOM     10  O   UNL d   1     -42.124-121.562 -51.922  0.00  0.00    -0.263 OA
BRANCH   9  11
ATOM     11  C   UNL d   1     -41.791-122.804 -51.284  0.00  0.00     0.158 A 
ATOM     12  O   UNL d   1     -42.124-123.545 -51.137  0.00  0.00    -0.300 OA
ATOM     13  C   UNL d   1     -41.870-123.794 -50.376  0.00  0.00     0.123 A 
ATOM     14  C   UNL d   1     -41.389-123.205 -50.073  0.00  0.00     0.029 A 
ATOM     15  C   UNL d   1     -41.329-122.587 -50.621  0.00  0.00     0.032 A 
ENDBRANCH   9  11
ENDBRANCH   1   8
BRANCH   2  16
ATOM     16  C   UNL d   1     -41.863-123.375 -54.373  0.00  0.00     0.299 C 
ATOM     17  O   UNL d   1     -42.555-123.817 -54.516  0.00  0.00    -0.264 OA
ATOM     18  N   UNL d   1     -41.124-123.744 -54.439  0.00  0.00    -0.102 N 
ENDBRANCH   2  16
TORSDOF 3
ENDMDL
