MODEL 1
REMARK VINA RESULT:      83.6      0.000      0.000
REMARK  3 active torsions:
REMARK  status: ('A' for Active; 'I' for Inactive)
REMARK    1  A    between atoms: C_8  and  N_1 
REMARK    2  A    between atoms: O_16  and  C_11 
REMARK    3  A    between atoms: C_19  and  O_16 
ROOT
ATOM      1  N   UNL d   1      59.267  49.222  50.747  0.00  0.00    -0.240 N 
ATOM      2  C   UNL d   1      58.962  49.283  51.500  0.00  0.00     0.267 A 
ATOM      3  C   UNL d   1      58.866  49.288  50.028  0.00  0.00     0.267 A 
ATOM      4  C   UNL d   1      58.064  49.432  49.889  0.00  0.00     0.057 A 
ATOM      5  C   UNL d   1      58.186  49.426  51.733  0.00  0.00     0.057 A 
ATOM      6  C   UNL d   1      57.470  49.544  50.442  0.00  0.00     0.005 A 
ATOM      7  C   UNL d   1      57.517  49.543  51.265  0.00  0.00     0.005 A 
ATOM      8  O   UNL d   1      59.510  49.190  52.118  0.00  0.00    -0.267 OA
ATOM      9  O   UNL d   1      59.337  49.197  49.355  0.00  0.00    -0.267 OA
ATOM     10  C   UNL d   1      57.896  49.456  49.089  0.00  0.00     0.005 A 
ATOM     11  C   UNL d   1      58.122  49.445  52.545  0.00  0.00     0.005 A 
ATOM     12  C   UNL d   1      56.788  49.678  51.613  0.00  0.00     0.000 A 
ATOM     13  C   UNL d   1      56.691  49.683  50.190  0.00  0.00     0.000 A 
ATOM     14  C   UNL d   1      56.520  49.707  49.381  0.00  0.00     0.000 A 
ATOM     15  C   UNL d   1      56.718  49.698  52.432  0.00  0.00     0.000 A 
ATOM     16  C   UNL d   1      57.391  49.580  52.902  0.00  0.00     0.000 A 
ATOM     17  C   UNL d   1      57.117  49.594  48.837  0.00  0.00     0.000 A 
ENDROOT
BRANCH   1  18
ATOM     18  C   UNL d   1      60.081  49.074  50.698  0.00  0.00     0.092 A 
ATOM     19  C   UNL d   1      60.365  48.302  50.773  0.00  0.00     0.116 A 
ATOM     20  C   UNL d   1      61.179  48.154  50.725  0.00  0.00     0.026 A 
ATOM     21  C   UNL d   1      61.713  48.785  50.601  0.00  0.00     0.002 A 
ATOM     22  C   UNL d   1      61.420  49.564  50.526  0.00  0.00     0.002 A 
ATOM     23  C   UNL d   1      60.607  49.707  50.575  0.00  0.00     0.020 A 
BRANCH  19  24
ATOM     24  O   UNL d   1      59.835  47.679  50.896  0.00  0.00    -0.304 OA
BRANCH  24  25
ATOM     25  C   UNL d   1      60.123  46.916  50.968  0.00  0.00     0.123 C 
ATOM     26  C   UNL d   1      59.640  46.333  51.290  0.00  0.00     0.029 C 
ENDBRANCH  24  25
ENDBRANCH  19  24
ENDBRANCH   1  18
TORSDOF 3
ENDMDL
MODEL 2
REMARK VINA RESULT:      84.7      1.246      3.028
REMARK  3 active torsions:
REMARK  status: ('A' for Active; 'I' for Inactive)
REMARK    1  A    between atoms: C_8  and  N_1 
REMARK    2  A    between atoms: O_16  and  C_11 
REMARK    3  A    between atoms: C_19  and  O_16 
ROOT
ATOM      1  N   UNL d   1      58.055  49.215  50.406  0.00  0.00    -0.240 N 
ATOM      2  C   UNL d   1      57.928  49.278  51.210  0.00  0.00     0.267 A 
ATOM      3  C   UNL d   1      58.769  49.282  49.997  0.00  0.00     0.267 A 
ATOM      4  C   UNL d   1      59.528  49.427  50.291  0.00  0.00     0.057 A 
ATOM      5  C   UNL d   1      58.473  49.422  51.808  0.00  0.00     0.057 A 
ATOM      6  C   UNL d   1      59.752  49.540  51.071  0.00  0.00     0.005 A 
ATOM      7  C   UNL d   1      59.287  49.539  51.752  0.00  0.00     0.005 A 
ATOM      8  O   UNL d   1      57.140  49.183  51.456  0.00  0.00    -0.267 OA
ATOM      9  O   UNL d   1      58.712  49.190  49.178  0.00  0.00    -0.267 OA
ATOM     10  C   UNL d   1      60.084  49.450  49.692  0.00  0.00     0.005 A 
ATOM     11  C   UNL d   1      58.110  49.441  52.537  0.00  0.00     0.005 A 
ATOM     12  C   UNL d   1      59.733  49.675  52.425  0.00  0.00     0.000 A 
ATOM     13  C   UNL d   1      60.549  49.680  51.256  0.00  0.00     0.000 A 
ATOM     14  C   UNL d   1      61.112  49.704  50.651  0.00  0.00     0.000 A 
ATOM     15  C   UNL d   1      59.371  49.696  53.163  0.00  0.00     0.000 A 
ATOM     16  C   UNL d   1      58.552  49.577  53.220  0.00  0.00     0.000 A 
ATOM     17  C   UNL d   1      60.881  49.590  49.877  0.00  0.00     0.000 A 
ENDROOT
BRANCH   1  18
ATOM     18  C   UNL d   1      57.382  49.066  49.946  0.00  0.00     0.092 A 
ATOM     19  C   UNL d   1      57.121  48.291  49.836  0.00  0.00     0.116 A 
ATOM     20  C   UNL d   1      56.448  48.142  49.375  0.00  0.00     0.026 A 
ATOM     21  C   UNL d   1      56.034  48.775  49.022  0.00  0.00     0.002 A 
ATOM     22  C   UNL d   1      56.302  49.558  49.137  0.00  0.00     0.002 A 
ATOM     23  C   UNL d   1      56.974  49.702  49.597  0.00  0.00     0.020 A 
BRANCH  19  24
ATOM     24  O   UNL d   1      57.533  47.665  50.186  0.00  0.00    -0.304 OA
BRANCH  24  25
ATOM     25  C   UNL d   1      57.121  47.002  50.433  0.00  0.00     0.123 C 
ATOM     26  C   UNL d   1      57.539  46.348  50.708  0.00  0.00     0.029 C 
ENDBRANCH  24  25
ENDBRANCH  19  24
ENDBRANCH   1  18
TORSDOF 3
ENDMDL
MODEL 3
REMARK VINA RESULT:      85.8      0.418      2.072
REMARK  3 active torsions:
REMARK  status: ('A' for Active; 'I' for Inactive)
REMARK    1  A    between atoms: C_8  and  N_1 
REMARK    2  A    between atoms: O_16  and  C_11 
REMARK    3  A    between atoms: C_19  and  O_16 
ROOT
ATOM      1  N   UNL d   1      59.434  49.255  50.453  0.00  0.00    -0.240 N 
ATOM      2  C   UNL d   1      58.951  49.315  49.798  0.00  0.00     0.267 A 
ATOM      3  C   UNL d   1      59.223  49.316  51.249  0.00  0.00     0.267 A 
ATOM      4  C   UNL d   1      58.478  49.450  51.583  0.00  0.00     0.057 A 
ATOM      5  C   UNL d   1      58.141  49.449  49.766  0.00  0.00     0.057 A 
ATOM      6  C   UNL d   1      57.765  49.557  51.194  0.00  0.00     0.005 A 
ATOM      7  C   UNL d   1      57.607  49.558  50.385  0.00  0.00     0.005 A 
ATOM      8  O   UNL d   1      59.331  49.229  49.064  0.00  0.00    -0.267 OA
ATOM      9  O   UNL d   1      59.846  49.229  51.785  0.00  0.00    -0.267 OA
ATOM     10  C   UNL d   1      58.513  49.470  52.399  0.00  0.00     0.005 A 
ATOM     11  C   UNL d   1      57.878  49.469  48.995  0.00  0.00     0.005 A 
ATOM     12  C   UNL d   1      56.813  49.686  50.229  0.00  0.00     0.000 A 
ATOM     13  C   UNL d   1      57.071  49.687  51.631  0.00  0.00     0.000 A 
ATOM     14  C   UNL d   1      57.105  49.707  52.457  0.00  0.00     0.000 A 
ATOM     15  C   UNL d   1      56.543  49.706  49.452  0.00  0.00     0.000 A 
ATOM     16  C   UNL d   1      57.080  49.597  48.829  0.00  0.00     0.000 A 
ATOM     17  C   UNL d   1      57.819  49.600  52.837  0.00  0.00     0.000 A 
ENDROOT
BRANCH   1  18
ATOM     18  C   UNL d   1      60.236  49.116  50.298  0.00  0.00     0.092 A 
ATOM     19  C   UNL d   1      60.578  48.395  50.509  0.00  0.00     0.116 A 
ATOM     20  C   UNL d   1      61.380  48.256  50.354  0.00  0.00     0.026 A 
ATOM     21  C   UNL d   1      61.844  48.845  49.984  0.00  0.00     0.002 A 
ATOM     22  C   UNL d   1      61.492  49.573  49.773  0.00  0.00     0.002 A 
ATOM     23  C   UNL d   1      60.692  49.708  49.929  0.00  0.00     0.020 A 
BRANCH  19  24
ATOM     24  O   UNL d   1      60.118  47.814  50.875  0.00  0.00    -0.304 OA
BRANCH  24  25
ATOM     25  C   UNL d   1      60.418  47.056  50.955  0.00  0.00     0.123 C 
ATOM     26  C   UNL d   1      60.452  46.714  51.703  0.00  0.00     0.029 C 
ENDBRANCH  24  25
ENDBRANCH  19  24
ENDBRANCH   1  18
TORSDOF 3
ENDMDL
