MODEL 1
REMARK VINA RESULT:      -7.6      0.000      0.000
REMARK  3 active torsions:
REMARK  status: ('A' for Active; 'I' for Inactive)
REMARK    1  A    between atoms: N_6  and  C_2 
REMARK    2  A    between atoms: C_7  and  C_5 
REMARK    3  A    between atoms: C_9  and  C_7 
ROOT
ATOM      1  N   UNL d   1     -47.037  11.835  23.249  0.00  0.00    -0.183 NA
ATOM      2  C   UNL d   1     -47.125  12.559  22.871  0.00  0.00     0.183 A 
ATOM      3  S   UNL d   1     -47.925  12.678  22.730  0.00  0.00    -0.045 SA
ATOM      4  C   UNL d   1     -47.785  11.505  23.342  0.00  0.00     0.287 A 
ATOM      5  C   UNL d   1     -48.339  12.024  23.022  0.00  0.00     0.090 A 
ATOM      6  O   UNL d   1     -47.952  10.779  23.696  0.00  0.00    -0.265 OA
ENDROOT
BRANCH   5   7
ATOM      7  C   UNL d   1     -49.156  11.911  22.997  0.00  0.00     0.011 C 
BRANCH   7   8
ATOM      8  C   UNL d   1     -49.635  12.448  22.599  0.00  0.00     0.001 A 
ATOM      9  C   UNL d   1     -49.709  12.396  21.774  0.00  0.00     0.001 A 
ATOM     10  C   UNL d   1     -50.189  12.933  21.372  0.00  0.00     0.011 A 
ATOM     11  C   UNL d   1     -50.595  13.520  21.790  0.00  0.00     0.058 A 
ATOM     12  C   UNL d   1     -50.519  13.569  22.608  0.00  0.00     0.011 A 
ATOM     13 CL   UNL d   1     -51.064  14.037  21.349  0.00  0.00    -0.082 Cl
ATOM     14  C   UNL d   1     -50.046  13.041  23.016  0.00  0.00     0.001 A 
ENDBRANCH   7   8
ENDBRANCH   5   7
BRANCH   2  15
ATOM     15  N   UNL d   1     -46.433  12.992  22.720  0.00  0.00    -0.280 N 
ATOM     16  C   UNL d   1     -45.793  12.635  22.347  0.00  0.00     0.109 A 
ATOM     17  C   UNL d   1     -45.100  13.072  22.197  0.00  0.00     0.142 A 
ATOM     18  O   UNL d   1     -45.062  13.861  22.425  0.00  0.00    -0.300 OA
ATOM     19  C   UNL d   1     -45.710  14.223  22.803  0.00  0.00     0.142 A 
ATOM     20  C   UNL d   1     -46.389  13.786  22.948  0.00  0.00     0.109 A 
ENDBRANCH   2  15
TORSDOF 3
ENDMDL
MODEL 2
REMARK VINA RESULT:      -7.4      2.069      3.923
REMARK  3 active torsions:
REMARK  status: ('A' for Active; 'I' for Inactive)
REMARK    1  A    between atoms: N_6  and  C_2 
REMARK    2  A    between atoms: C_7  and  C_5 
REMARK    3  A    between atoms: C_9  and  C_7 
ROOT
ATOM      1  N   UNL d   1     -49.232  12.046  22.969  0.00  0.00    -0.183 NA
ATOM      2  C   UNL d   1     -49.150  12.825  22.720  0.00  0.00     0.183 A 
ATOM      3  S   UNL d   1     -48.409  13.091  22.955  0.00  0.00    -0.045 SA
ATOM      4  C   UNL d   1     -48.541  11.829  23.359  0.00  0.00     0.287 A 
ATOM      5  C   UNL d   1     -48.027  12.474  23.353  0.00  0.00     0.090 A 
ATOM      6  O   UNL d   1     -48.387  11.093  23.698  0.00  0.00    -0.265 OA
ENDROOT
BRANCH   5   7
ATOM      7  C   UNL d   1     -47.272  12.499  23.683  0.00  0.00     0.011 C 
BRANCH   7   8
ATOM      8  C   UNL d   1     -46.628  12.725  23.225  0.00  0.00     0.001 A 
ATOM      9  C   UNL d   1     -46.107  12.147  22.939  0.00  0.00     0.001 A 
ATOM     10  C   UNL d   1     -45.460  12.372  22.479  0.00  0.00     0.011 A 
ATOM     11  C   UNL d   1     -45.332  13.169  22.304  0.00  0.00     0.058 A 
ATOM     12  C   UNL d   1     -45.851  13.741  22.589  0.00  0.00     0.011 A 
ATOM     13 CL   UNL d   1     -44.673  13.351  21.840  0.00  0.00    -0.082 Cl
ATOM     14  C   UNL d   1     -46.496  13.529  23.046  0.00  0.00     0.001 A 
ENDBRANCH   7   8
ENDBRANCH   5   7
BRANCH   2  15
ATOM     15  N   UNL d   1     -49.790  13.159  22.310  0.00  0.00    -0.280 N 
ATOM     16  C   UNL d   1     -49.870  13.043  21.499  0.00  0.00     0.109 A 
ATOM     17  C   UNL d   1     -50.513  13.379  21.091  0.00  0.00     0.142 A 
ATOM     18  O   UNL d   1     -51.064  13.827  21.505  0.00  0.00    -0.300 OA
ATOM     19  C   UNL d   1     -50.983  13.945  22.326  0.00  0.00     0.142 A 
ATOM     20  C   UNL d   1     -50.347  13.610  22.721  0.00  0.00     0.109 A 
ENDBRANCH   2  15
TORSDOF 3
ENDMDL
MODEL 3
REMARK VINA RESULT:      -7.2      1.303      2.188
REMARK  3 active torsions:
REMARK  status: ('A' for Active; 'I' for Inactive)
REMARK    1  A    between atoms: N_6  and  C_2 
REMARK    2  A    between atoms: C_7  and  C_5 
REMARK    3  A    between atoms: C_9  and  C_7 
ROOT
ATOM      1  N   UNL d   1     -46.287  13.759  22.862  0.00  0.00    -0.183 NA
ATOM      2  C   UNL d   1     -46.724  13.087  23.043  0.00  0.00     0.183 A 
ATOM      3  S   UNL d   1     -47.519  13.293  23.047  0.00  0.00    -0.045 SA
ATOM      4  C   UNL d   1     -46.813  14.382  22.754  0.00  0.00     0.287 A 
ATOM      5  C   UNL d   1     -47.579  14.098  22.868  0.00  0.00     0.090 A 
ATOM      6  O   UNL d   1     -46.611  15.159  22.565  0.00  0.00    -0.265 OA
ENDROOT
BRANCH   5   7
ATOM      7  C   UNL d   1     -48.275  14.536  22.813  0.00  0.00     0.011 C 
BRANCH   7   8
ATOM      8  C   UNL d   1     -48.959  14.189  22.516  0.00  0.00     0.001 A 
ATOM      9  C   UNL d   1     -49.550  13.937  23.041  0.00  0.00     0.001 A 
ATOM     10  C   UNL d   1     -50.237  13.589  22.745  0.00  0.00     0.011 A 
ATOM     11  C   UNL d   1     -50.336  13.492  21.931  0.00  0.00     0.058 A 
ATOM     12  C   UNL d   1     -49.748  13.743  21.412  0.00  0.00     0.011 A 
ATOM     13 CL   UNL d   1     -51.038  13.139  21.678  0.00  0.00    -0.082 Cl
ATOM     14  C   UNL d   1     -49.062  14.089  21.695  0.00  0.00     0.001 A 
ENDBRANCH   7   8
ENDBRANCH   5   7
BRANCH   2  15
ATOM     15  N   UNL d   1     -46.299  12.386  23.176  0.00  0.00    -0.280 N 
ATOM     16  C   UNL d   1     -45.519  12.319  22.925  0.00  0.00     0.109 A 
ATOM     17  C   UNL d   1     -45.096  11.615  23.059  0.00  0.00     0.142 A 
ATOM     18  O   UNL d   1     -45.465  10.989  23.444  0.00  0.00    -0.300 OA
ATOM     19  C   UNL d   1     -46.255  11.056  23.698  0.00  0.00     0.142 A 
ATOM     20  C   UNL d   1     -46.665  11.753  23.562  0.00  0.00     0.109 A 
ENDBRANCH   2  15
TORSDOF 3
ENDMDL
MODEL 4
REMARK VINA RESULT:      -6.1      8.652     10.004
REMARK  3 active torsions:
REMARK  status: ('A' for Active; 'I' for Inactive)
REMARK    1  A    between atoms: N_6  and  C_2 
REMARK    2  A    between atoms: C_7  and  C_5 
REMARK    3  A    between atoms: C_9  and  C_7 
ROOT
ATOM      1  N   UNL d   1     -40.352  14.746  16.938  0.00  0.00    -0.183 NA
ATOM      2  C   UNL d   1     -39.635  14.621  17.321  0.00  0.00     0.183 A 
ATOM      3  S   UNL d   1     -39.666  15.002  18.048  0.00  0.00    -0.045 SA
ATOM      4  C   UNL d   1     -40.827  15.203  17.430  0.00  0.00     0.287 A 
ATOM      5  C   UNL d   1     -40.405  15.364  18.120  0.00  0.00     0.090 A 
ATOM      6  O   UNL d   1     -41.593  15.457  17.262  0.00  0.00    -0.265 OA
ENDROOT
BRANCH   5   7
ATOM      7  C   UNL d   1     -40.673  15.806  18.762  0.00  0.00     0.011 C 
BRANCH   7   8
ATOM      8  C   UNL d   1     -40.465  15.590  19.528  0.00  0.00     0.001 A 
ATOM      9  C   UNL d   1     -40.929  15.037  19.936  0.00  0.00     0.001 A 
ATOM     10  C   UNL d   1     -40.722  14.819  20.705  0.00  0.00     0.011 A 
ATOM     11  C   UNL d   1     -40.056  15.150  21.065  0.00  0.00     0.058 A 
ATOM     12  C   UNL d   1     -39.598  15.699  20.657  0.00  0.00     0.011 A 
ATOM     13 CL   UNL d   1     -39.885  14.904  21.835  0.00  0.00    -0.082 Cl
ATOM     14  C   UNL d   1     -39.794  15.922  19.895  0.00  0.00     0.001 A 
ENDBRANCH   7   8
ENDBRANCH   5   7
BRANCH   2  15
ATOM     15  N   UNL d   1     -39.067  14.168  16.919  0.00  0.00    -0.280 N 
ATOM     16  C   UNL d   1     -38.713  14.457  16.235  0.00  0.00     0.109 A 
ATOM     17  C   UNL d   1     -38.143  13.999  15.836  0.00  0.00     0.142 A 
ATOM     18  O   UNL d   1     -37.940  13.260  16.131  0.00  0.00    -0.300 OA
ATOM     19  C   UNL d   1     -38.298  12.967  16.823  0.00  0.00     0.142 A 
ATOM     20  C   UNL d   1     -38.858  13.423  17.212  0.00  0.00     0.109 A 
ENDBRANCH   2  15
TORSDOF 3
ENDMDL
MODEL 5
REMARK VINA RESULT:      -6.0      8.654      9.834
REMARK  3 active torsions:
REMARK  status: ('A' for Active; 'I' for Inactive)
REMARK    1  A    between atoms: N_6  and  C_2 
REMARK    2  A    between atoms: C_7  and  C_5 
REMARK    3  A    between atoms: C_9  and  C_7 
ROOT
ATOM      1  N   UNL d   1     -40.220  14.320  17.845  0.00  0.00    -0.183 NA
ATOM      2  C   UNL d   1     -39.722  14.965  17.953  0.00  0.00     0.183 A 
ATOM      3  S   UNL d   1     -39.900  15.306  18.679  0.00  0.00    -0.045 SA
ATOM      4  C   UNL d   1     -40.708  14.262  18.505  0.00  0.00     0.287 A 
ATOM      5  C   UNL d   1     -40.513  14.871  19.025  0.00  0.00     0.090 A 
ATOM      6  O   UNL d   1     -41.291  13.692  18.625  0.00  0.00    -0.265 OA
ENDROOT
BRANCH   5   7
ATOM      7  C   UNL d   1     -40.865  15.019  19.756  0.00  0.00     0.011 C 
BRANCH   7   8
ATOM      8  C   UNL d   1     -40.401  15.103  20.429  0.00  0.00     0.001 A 
ATOM      9  C   UNL d   1     -40.220  14.435  20.886  0.00  0.00     0.001 A 
ATOM     10  C   UNL d   1     -39.753  14.517  21.562  0.00  0.00     0.011 A 
ATOM     11  C   UNL d   1     -39.469  15.260  21.782  0.00  0.00     0.058 A 
ATOM     12  C   UNL d   1     -39.650  15.922  21.326  0.00  0.00     0.011 A 
ATOM     13 CL   UNL d   1     -39.006  15.298  22.465  0.00  0.00    -0.082 Cl
ATOM     14  C   UNL d   1     -40.111  15.852  20.654  0.00  0.00     0.001 A 
ENDBRANCH   7   8
ENDBRANCH   5   7
BRANCH   2  15
ATOM     15  N   UNL d   1     -39.178  15.127  17.347  0.00  0.00    -0.280 N 
ATOM     16  C   UNL d   1     -38.483  14.691  17.285  0.00  0.00     0.109 A 
ATOM     17  C   UNL d   1     -37.940  14.857  16.676  0.00  0.00     0.142 A 
ATOM     18  O   UNL d   1     -38.105  15.458  16.140  0.00  0.00    -0.300 OA
ATOM     19  C   UNL d   1     -38.808  15.899  16.202  0.00  0.00     0.142 A 
ATOM     20  C   UNL d   1     -39.338  15.730  16.805  0.00  0.00     0.109 A 
ENDBRANCH   2  15
TORSDOF 3
ENDMDL
MODEL 6
REMARK VINA RESULT:      -5.4      9.163      9.837
REMARK  3 active torsions:
REMARK  status: ('A' for Active; 'I' for Inactive)
REMARK    1  A    between atoms: N_6  and  C_2 
REMARK    2  A    between atoms: C_7  and  C_5 
REMARK    3  A    between atoms: C_9  and  C_7 
ROOT
ATOM      1  N   UNL d   1     -38.584  14.061  20.109  0.00  0.00    -0.183 NA
ATOM      2  C   UNL d   1     -38.875  14.829  20.131  0.00  0.00     0.183 A 
ATOM      3  S   UNL d   1     -39.038  15.062  19.360  0.00  0.00    -0.045 SA
ATOM      4  C   UNL d   1     -38.568  13.817  19.323  0.00  0.00     0.287 A 
ATOM      5  C   UNL d   1     -38.849  14.435  18.855  0.00  0.00     0.090 A 
ATOM      6  O   UNL d   1     -38.314  13.082  19.051  0.00  0.00    -0.265 OA
ENDROOT
BRANCH   5   7
ATOM      7  C   UNL d   1     -38.926  14.428  18.034  0.00  0.00     0.011 C 
BRANCH   7   8
ATOM      8  C   UNL d   1     -39.562  14.805  17.676  0.00  0.00     0.001 A 
ATOM      9  C   UNL d   1     -40.303  14.432  17.661  0.00  0.00     0.001 A 
ATOM     10  C   UNL d   1     -40.943  14.809  17.302  0.00  0.00     0.011 A 
ATOM     11  C   UNL d   1     -40.846  15.554  16.958  0.00  0.00     0.058 A 
ATOM     12  C   UNL d   1     -40.109  15.922  16.974  0.00  0.00     0.011 A 
ATOM     13 CL   UNL d   1     -41.512  15.896  16.609  0.00  0.00    -0.082 Cl
ATOM     14  C   UNL d   1     -39.468  15.557  17.327  0.00  0.00     0.001 A 
ENDBRANCH   7   8
ENDBRANCH   5   7
BRANCH   2  15
ATOM     15  N   UNL d   1     -38.939  15.187  20.877  0.00  0.00    -0.280 N 
ATOM     16  C   UNL d   1     -39.651  15.167  21.288  0.00  0.00     0.109 A 
ATOM     17  C   UNL d   1     -39.712  15.527  22.036  0.00  0.00     0.142 A 
ATOM     18  O   UNL d   1     -39.055  15.902  22.359  0.00  0.00    -0.300 OA
ATOM     19  C   UNL d   1     -38.333  15.922  21.943  0.00  0.00     0.142 A 
ATOM     20  C   UNL d   1     -38.281  15.565  21.207  0.00  0.00     0.109 A 
ENDBRANCH   2  15
TORSDOF 3
ENDMDL
MODEL 7
REMARK VINA RESULT:      -5.3      9.320     10.132
REMARK  3 active torsions:
REMARK  status: ('A' for Active; 'I' for Inactive)
REMARK    1  A    between atoms: N_6  and  C_2 
REMARK    2  A    between atoms: C_7  and  C_5 
REMARK    3  A    between atoms: C_9  and  C_7 
ROOT
ATOM      1  N   UNL d   1     -39.373  13.947  17.887  0.00  0.00    -0.183 NA
ATOM      2  C   UNL d   1     -39.579  14.724  18.061  0.00  0.00     0.183 A 
ATOM      3  S   UNL d   1     -39.256  14.915  18.792  0.00  0.00    -0.045 SA
ATOM      4  C   UNL d   1     -38.921  13.658  18.511  0.00  0.00     0.287 A 
ATOM      5  C   UNL d   1     -38.846  14.255  19.075  0.00  0.00     0.090 A 
ATOM      6  O   UNL d   1     -38.598  12.902  18.564  0.00  0.00    -0.265 OA
ENDROOT
BRANCH   5   7
ATOM      7  C   UNL d   1     -38.437  14.203  19.789  0.00  0.00     0.011 C 
BRANCH   7   8
ATOM      8  C   UNL d   1     -38.699  14.620  20.447  0.00  0.00     0.001 A 
ATOM      9  C   UNL d   1     -38.358  15.353  20.629  0.00  0.00     0.001 A 
ATOM     10  C   UNL d   1     -38.620  15.774  21.289  0.00  0.00     0.011 A 
ATOM     11  C   UNL d   1     -39.219  15.465  21.766  0.00  0.00     0.058 A 
ATOM     12  C   UNL d   1     -39.557  14.736  21.583  0.00  0.00     0.011 A 
ATOM     13 CL   UNL d   1     -39.452  15.918  22.417  0.00  0.00    -0.082 Cl
ATOM     14  C   UNL d   1     -39.304  14.312  20.931  0.00  0.00     0.001 A 
ENDBRANCH   7   8
ENDBRANCH   5   7
BRANCH   2  15
ATOM     15  N   UNL d   1     -40.040  15.126  17.501  0.00  0.00    -0.280 N 
ATOM     16  C   UNL d   1     -39.682  15.519  16.873  0.00  0.00     0.109 A 
ATOM     17  C   UNL d   1     -40.149  15.922  16.313  0.00  0.00     0.142 A 
ATOM     18  O   UNL d   1     -40.967  15.922  16.393  0.00  0.00    -0.300 OA
ATOM     19  C   UNL d   1     -41.330  15.524  17.028  0.00  0.00     0.142 A 
ATOM     20  C   UNL d   1     -40.864  15.130  17.576  0.00  0.00     0.109 A 
ENDBRANCH   2  15
TORSDOF 3
ENDMDL
