MODEL 1
REMARK VINA RESULT:      -8.5      0.000      0.000
REMARK  7 active torsions:
REMARK  status: ('A' for Active; 'I' for Inactive)
REMARK    1  A    between atoms: S_9  and  C_2 
REMARK    2  A    between atoms: C_15  and  C_5 
REMARK    3  A    between atoms: C_6  and  C_7 
REMARK       I    between atoms: C_7  and  N_8 
REMARK    4  A    between atoms: N_8  and  C_15 
REMARK    5  A    between atoms: C_14  and  S_9 
REMARK    6  A    between atoms: C_10  and  C_14 
REMARK    7  A    between atoms: C_12  and  C_10 
ROOT
ATOM      1  O   UNL d   1      50.459  34.251  53.370  0.00  0.00    -0.262 OA
ATOM      2  C   UNL d   1      50.869  33.767  52.837  0.00  0.00     0.236 A 
ATOM      3  N   UNL d   1      50.627  33.965  52.084  0.00  0.00    -0.114 NA
ATOM      4  N   UNL d   1      50.072  34.568  52.145  0.00  0.00    -0.119 NA
ATOM      5  C   UNL d   1      49.970  34.743  52.936  0.00  0.00     0.224 A 
ENDROOT
BRANCH   2   6
ATOM      6  S   UNL d   1      51.420  33.190  53.039  0.00  0.00    -0.037 SA
BRANCH   6   7
ATOM      7  C   UNL d   1      52.130  33.402  53.376  0.00  0.00     0.081 C 
BRANCH   7   8
ATOM      8  C   UNL d   1      52.719  32.832  53.515  0.00  0.00     0.202 C 
ATOM      9  O   UNL d   1      52.614  32.064  53.251  0.00  0.00    -0.286 OA
BRANCH   8  10
ATOM     10  C   UNL d   1      53.405  33.041  53.918  0.00  0.00     0.040 A 
ATOM     11  C   UNL d   1      53.354  33.338  54.683  0.00  0.00     0.004 A 
ATOM     12  C   UNL d   1      54.042  33.549  55.092  0.00  0.00     0.011 A 
ATOM     13  C   UNL d   1      54.781  33.464  54.736  0.00  0.00     0.058 A 
ATOM     14  C   UNL d   1      54.829  33.165  53.969  0.00  0.00     0.011 A 
ATOM     15 CL   UNL d   1      55.459  33.673  55.142  0.00  0.00    -0.082 Cl
ATOM     16  C   UNL d   1      54.148  32.952  53.554  0.00  0.00     0.004 A 
ENDBRANCH   8  10
ENDBRANCH   7   8
ENDBRANCH   6   7
ENDBRANCH   2   6
BRANCH   5  17
ATOM     17  C   UNL d   1      49.463  35.314  53.243  0.00  0.00     0.149 C 
BRANCH  17  18
ATOM     18  N   UNL d   1      48.697  35.384  52.959  0.00  0.00    -0.203 NA
ATOM     19  C   UNL d   1      48.209  35.989  53.237  0.00  0.00     0.281 C 
ATOM     20  O   UNL d   1      48.486  36.522  53.795  0.00  0.00    -0.265 OA
BRANCH  19  21
ATOM     21  C   UNL d   1      47.440  36.056  52.948  0.00  0.00     0.085 A 
ATOM     22  C   UNL d   1      46.814  35.938  53.456  0.00  0.00     0.145 A 
ATOM     23  F   UNL d   1      46.930  35.755  54.249  0.00  0.00    -0.204 F 
ATOM     24  C   UNL d   1      46.047  36.008  53.153  0.00  0.00     0.030 A 
ATOM     25  C   UNL d   1      45.901  36.192  52.356  0.00  0.00     0.002 A 
ATOM     26  C   UNL d   1      46.560  36.307  51.858  0.00  0.00     0.000 A 
ATOM     27  C   UNL d   1      47.328  36.237  52.161  0.00  0.00     0.007 A 
ENDBRANCH  19  21
ENDBRANCH  17  18
ENDBRANCH   5  17
TORSDOF 7
ENDMDL
MODEL 2
REMARK VINA RESULT:      -8.4      2.750      6.661
REMARK  7 active torsions:
REMARK  status: ('A' for Active; 'I' for Inactive)
REMARK    1  A    between atoms: S_9  and  C_2 
REMARK    2  A    between atoms: C_15  and  C_5 
REMARK    3  A    between atoms: C_6  and  C_7 
REMARK       I    between atoms: C_7  and  N_8 
REMARK    4  A    between atoms: N_8  and  C_15 
REMARK    5  A    between atoms: C_14  and  S_9 
REMARK    6  A    between atoms: C_10  and  C_14 
REMARK    7  A    between atoms: C_12  and  C_10 
ROOT
ATOM      1  O   UNL d   1      50.759  33.955  53.345  0.00  0.00    -0.262 OA
ATOM      2  C   UNL d   1      50.298  34.475  52.893  0.00  0.00     0.236 A 
ATOM      3  N   UNL d   1      50.580  34.454  52.127  0.00  0.00    -0.114 NA
ATOM      4  N   UNL d   1      51.209  33.927  52.101  0.00  0.00    -0.119 NA
ATOM      5  C   UNL d   1      51.319  33.621  52.851  0.00  0.00     0.224 A 
ENDROOT
BRANCH   2   6
ATOM      6  S   UNL d   1      49.671  34.928  53.172  0.00  0.00    -0.037 SA
BRANCH   6   7
ATOM      7  C   UNL d   1      49.063  35.137  52.674  0.00  0.00     0.081 C 
BRANCH   7   8
ATOM      8  C   UNL d   1      48.502  35.705  52.906  0.00  0.00     0.202 C 
ATOM      9  O   UNL d   1      48.669  36.214  53.526  0.00  0.00    -0.286 OA
BRANCH   8  10
ATOM     10  C   UNL d   1      47.781  35.755  52.512  0.00  0.00     0.040 A 
ATOM     11  C   UNL d   1      47.111  36.005  52.918  0.00  0.00     0.004 A 
ATOM     12  C   UNL d   1      46.384  36.057  52.526  0.00  0.00     0.011 A 
ATOM     13  C   UNL d   1      46.327  35.858  51.727  0.00  0.00     0.058 A 
ATOM     14  C   UNL d   1      47.001  35.607  51.322  0.00  0.00     0.011 A 
ATOM     15 CL   UNL d   1      45.608  35.910  51.341  0.00  0.00    -0.082 Cl
ATOM     16  C   UNL d   1      47.730  35.553  51.706  0.00  0.00     0.004 A 
ENDBRANCH   8  10
ENDBRANCH   7   8
ENDBRANCH   6   7
ENDBRANCH   2   6
BRANCH   5  17
ATOM     17  C   UNL d   1      51.892  33.073  53.070  0.00  0.00     0.149 C 
BRANCH  17  18
ATOM     18  N   UNL d   1      52.548  33.308  53.502  0.00  0.00    -0.203 NA
ATOM     19  C   UNL d   1      53.128  32.756  53.701  0.00  0.00     0.281 C 
ATOM     20  O   UNL d   1      53.054  31.973  53.469  0.00  0.00    -0.265 OA
BRANCH  19  21
ATOM     21  C   UNL d   1      53.786  32.998  54.135  0.00  0.00     0.085 A 
ATOM     22  C   UNL d   1      54.507  33.058  53.761  0.00  0.00     0.145 A 
ATOM     23  F   UNL d   1      54.596  32.884  52.962  0.00  0.00    -0.204 F 
ATOM     24  C   UNL d   1      55.160  33.302  54.209  0.00  0.00     0.030 A 
ATOM     25  C   UNL d   1      55.098  33.483  55.017  0.00  0.00     0.002 A 
ATOM     26  C   UNL d   1      54.348  33.413  55.374  0.00  0.00     0.000 A 
ATOM     27  C   UNL d   1      53.695  33.169  54.926  0.00  0.00     0.007 A 
ENDBRANCH  19  21
ENDBRANCH  17  18
ENDBRANCH   5  17
TORSDOF 7
ENDMDL
MODEL 3
REMARK VINA RESULT:      -8.4      1.316      1.601
REMARK  7 active torsions:
REMARK  status: ('A' for Active; 'I' for Inactive)
REMARK    1  A    between atoms: S_9  and  C_2 
REMARK    2  A    between atoms: C_15  and  C_5 
REMARK    3  A    between atoms: C_6  and  C_7 
REMARK       I    between atoms: C_7  and  N_8 
REMARK    4  A    between atoms: N_8  and  C_15 
REMARK    5  A    between atoms: C_14  and  S_9 
REMARK    6  A    between atoms: C_10  and  C_14 
REMARK    7  A    between atoms: C_12  and  C_10 
ROOT
ATOM      1  O   UNL d   1      50.788  34.691  53.252  0.00  0.00    -0.262 OA
ATOM      2  C   UNL d   1      51.142  34.150  52.734  0.00  0.00     0.236 A 
ATOM      3  N   UNL d   1      50.585  33.938  52.176  0.00  0.00    -0.114 NA
ATOM      4  N   UNL d   1      49.891  34.343  52.343  0.00  0.00    -0.119 NA
ATOM      5  C   UNL d   1      50.016  34.806  53.005  0.00  0.00     0.224 A 
ENDROOT
BRANCH   2   6
ATOM      6  S   UNL d   1      51.917  33.878  52.780  0.00  0.00    -0.037 SA
BRANCH   6   7
ATOM      7  C   UNL d   1      52.069  33.099  52.962  0.00  0.00     0.081 C 
BRANCH   7   8
ATOM      8  C   UNL d   1      52.850  32.830  53.052  0.00  0.00     0.202 C 
ATOM      9  O   UNL d   1      53.474  33.356  52.980  0.00  0.00    -0.286 OA
BRANCH   8  10
ATOM     10  C   UNL d   1      52.995  32.036  53.212  0.00  0.00     0.040 A 
ATOM     11  C   UNL d   1      53.550  31.830  53.782  0.00  0.00     0.004 A 
ATOM     12  C   UNL d   1      53.698  31.032  53.947  0.00  0.00     0.011 A 
ATOM     13  C   UNL d   1      53.291  30.441  53.541  0.00  0.00     0.058 A 
ATOM     14  C   UNL d   1      52.734  30.650  52.970  0.00  0.00     0.011 A 
ATOM     15 CL   UNL d   1      53.439  29.653  53.705  0.00  0.00    -0.082 Cl
ATOM     16  C   UNL d   1      52.580  31.443  52.799  0.00  0.00     0.004 A 
ENDBRANCH   8  10
ENDBRANCH   7   8
ENDBRANCH   6   7
ENDBRANCH   2   6
BRANCH   5  17
ATOM     17  C   UNL d   1      49.463  35.300  53.360  0.00  0.00     0.149 C 
BRANCH  17  18
ATOM     18  N   UNL d   1      48.714  35.384  53.038  0.00  0.00    -0.203 NA
ATOM     19  C   UNL d   1      48.221  35.993  53.297  0.00  0.00     0.281 C 
ATOM     20  O   UNL d   1      48.475  36.516  53.875  0.00  0.00    -0.265 OA
BRANCH  19  21
ATOM     21  C   UNL d   1      47.469  36.074  52.970  0.00  0.00     0.085 A 
ATOM     22  C   UNL d   1      46.816  35.939  53.438  0.00  0.00     0.145 A 
ATOM     23  F   UNL d   1      46.888  35.725  54.229  0.00  0.00    -0.204 F 
ATOM     24  C   UNL d   1      46.066  36.023  53.096  0.00  0.00     0.030 A 
ATOM     25  C   UNL d   1      45.965  36.238  52.301  0.00  0.00     0.002 A 
ATOM     26  C   UNL d   1      46.650  36.370  51.844  0.00  0.00     0.000 A 
ATOM     27  C   UNL d   1      47.400  36.286  52.186  0.00  0.00     0.007 A 
ENDBRANCH  19  21
ENDBRANCH  17  18
ENDBRANCH   5  17
TORSDOF 7
ENDMDL
MODEL 4
REMARK VINA RESULT:      -8.2      3.000      6.627
REMARK  7 active torsions:
REMARK  status: ('A' for Active; 'I' for Inactive)
REMARK    1  A    between atoms: S_9  and  C_2 
REMARK    2  A    between atoms: C_15  and  C_5 
REMARK    3  A    between atoms: C_6  and  C_7 
REMARK       I    between atoms: C_7  and  N_8 
REMARK    4  A    between atoms: N_8  and  C_15 
REMARK    5  A    between atoms: C_14  and  S_9 
REMARK    6  A    between atoms: C_10  and  C_14 
REMARK    7  A    between atoms: C_12  and  C_10 
ROOT
ATOM      1  O   UNL d   1      51.013  33.903  52.169  0.00  0.00    -0.262 OA
ATOM      2  C   UNL d   1      50.285  34.262  52.337  0.00  0.00     0.236 A 
ATOM      3  N   UNL d   1      50.273  34.437  53.135  0.00  0.00    -0.114 NA
ATOM      4  N   UNL d   1      50.984  34.190  53.461  0.00  0.00    -0.119 NA
ATOM      5  C   UNL d   1      51.439  33.861  52.866  0.00  0.00     0.224 A 
ENDROOT
BRANCH   2   6
ATOM      6  S   UNL d   1      49.687  34.412  51.793  0.00  0.00    -0.037 SA
BRANCH   6   7
ATOM      7  C   UNL d   1      49.034  34.847  52.011  0.00  0.00     0.081 C 
BRANCH   7   8
ATOM      8  C   UNL d   1      48.449  35.039  51.453  0.00  0.00     0.202 C 
ATOM      9  O   UNL d   1      48.538  34.811  50.672  0.00  0.00    -0.286 OA
BRANCH   8  10
ATOM     10  C   UNL d   1      47.780  35.459  51.688  0.00  0.00     0.040 A 
ATOM     11  C   UNL d   1      47.041  35.239  51.405  0.00  0.00     0.004 A 
ATOM     12  C   UNL d   1      46.366  35.657  51.638  0.00  0.00     0.011 A 
ATOM     13  C   UNL d   1      46.432  36.297  52.155  0.00  0.00     0.058 A 
ATOM     14  C   UNL d   1      47.175  36.516  52.438  0.00  0.00     0.011 A 
ATOM     15 CL   UNL d   1      45.764  36.709  52.385  0.00  0.00    -0.082 Cl
ATOM     16  C   UNL d   1      47.853  36.103  52.210  0.00  0.00     0.004 A 
ENDBRANCH   8  10
ENDBRANCH   7   8
ENDBRANCH   6   7
ENDBRANCH   2   6
BRANCH   5  17
ATOM     17  C   UNL d   1      52.193  33.545  52.954  0.00  0.00     0.149 C 
BRANCH  17  18
ATOM     18  N   UNL d   1      52.292  32.749  53.128  0.00  0.00    -0.203 NA
ATOM     19  C   UNL d   1      53.045  32.412  53.099  0.00  0.00     0.281 C 
ATOM     20  O   UNL d   1      53.696  32.868  52.898  0.00  0.00    -0.265 OA
BRANCH  19  21
ATOM     21  C   UNL d   1      53.139  31.613  53.275  0.00  0.00     0.085 A 
ATOM     22  C   UNL d   1      53.550  31.399  53.945  0.00  0.00     0.145 A 
ATOM     23  F   UNL d   1      53.874  31.961  54.451  0.00  0.00    -0.204 F 
ATOM     24  C   UNL d   1      53.636  30.592  54.110  0.00  0.00     0.030 A 
ATOM     25  C   UNL d   1      53.319  30.004  53.616  0.00  0.00     0.002 A 
ATOM     26  C   UNL d   1      52.903  30.251  52.937  0.00  0.00     0.000 A 
ATOM     27  C   UNL d   1      52.817  31.058  52.773  0.00  0.00     0.007 A 
ENDBRANCH  19  21
ENDBRANCH  17  18
ENDBRANCH   5  17
TORSDOF 7
ENDMDL
