MODEL 1
REMARK VINA RESULT:      -9.9      0.000      0.000
REMARK  4 active torsions:
REMARK  status: ('A' for Active; 'I' for Inactive)
REMARK    1  A    between atoms: N_3  and  S_1 
REMARK    2  A    between atoms: C_4  and  S_1 
REMARK    3  A    between atoms: C_13  and  N_3 
REMARK    4  A    between atoms: C_16  and  N_3 
ROOT
ATOM      1  S   UNL d   1      52.982  32.945  53.338  0.00  0.00     0.271 S 
ATOM      2  O   UNL d   1      53.646  32.776  52.880  0.00  0.00    -0.200 OA
ATOM      3  O   UNL d   1      52.942  32.686  54.117  0.00  0.00    -0.200 OA
ENDROOT
BRANCH   1   4
ATOM      4  N   UNL d   1      53.601  32.516  53.667  0.00  0.00    -0.231 N 
BRANCH   4   5
ATOM      5  C   UNL d   1      54.110  32.876  54.224  0.00  0.00     0.075 A 
ATOM      6  C   UNL d   1      54.799  33.241  53.969  0.00  0.00     0.018 A 
ATOM      7  C   UNL d   1      55.301  33.596  54.518  0.00  0.00     0.002 A 
ATOM      8  C   UNL d   1      55.114  33.586  55.321  0.00  0.00     0.000 A 
ATOM      9  C   UNL d   1      54.426  33.221  55.576  0.00  0.00     0.002 A 
ATOM     10  C   UNL d   1      53.919  32.863  55.029  0.00  0.00     0.018 A 
ENDBRANCH   4   5
BRANCH   4  11
ATOM     11  C   UNL d   1      53.720  31.734  53.450  0.00  0.00     0.092 C 
ATOM     12  C   UNL d   1      53.373  31.123  53.880  0.00  0.00     0.021 C 
ENDBRANCH   4  11
ENDBRANCH   1   4
BRANCH   1  13
ATOM     13  C   UNL d   1      52.358  33.375  53.017  0.00  0.00     0.106 A 
ATOM     14  C   UNL d   1      51.655  33.449  53.436  0.00  0.00     0.034 A 
ATOM     15  C   UNL d   1      51.023  33.882  53.115  0.00  0.00     0.105 A 
ATOM     16  N   UNL d   1      50.265  34.051  53.397  0.00  0.00    -0.189 NA
ATOM     17  C   UNL d   1      51.105  34.239  52.368  0.00  0.00     0.104 A 
ATOM     18  C   UNL d   1      49.873  34.515  52.825  0.00  0.00     0.369 A 
ATOM     19  O   UNL d   1      49.104  34.807  52.881  0.00  0.00    -0.242 OA
ATOM     20  N   UNL d   1      50.396  34.627  52.194  0.00  0.00    -0.189 NA
ATOM     21  C   UNL d   1      51.816  34.161  51.949  0.00  0.00     0.021 A 
ATOM     22  C   UNL d   1      52.439  33.729  52.278  0.00  0.00     0.015 A 
ENDBRANCH   1  13
TORSDOF 4
ENDMDL
MODEL 2
REMARK VINA RESULT:      -9.8      1.887      3.862
REMARK  4 active torsions:
REMARK  status: ('A' for Active; 'I' for Inactive)
REMARK    1  A    between atoms: N_3  and  S_1 
REMARK    2  A    between atoms: C_4  and  S_1 
REMARK    3  A    between atoms: C_13  and  N_3 
REMARK    4  A    between atoms: C_16  and  N_3 
ROOT
ATOM      1  S   UNL d   1      53.669  32.344  53.750  0.00  0.00     0.271 S 
ATOM      2  O   UNL d   1      54.137  32.690  53.167  0.00  0.00    -0.200 OA
ATOM      3  O   UNL d   1      53.405  32.792  54.386  0.00  0.00    -0.200 OA
ENDROOT
BRANCH   1   4
ATOM      4  N   UNL d   1      53.868  33.139  53.811  0.00  0.00    -0.231 N 
BRANCH   4   5
ATOM      5  C   UNL d   1      53.282  33.726  53.699  0.00  0.00     0.075 A 
ATOM      6  C   UNL d   1      52.829  33.974  54.336  0.00  0.00     0.018 A 
ATOM      7  C   UNL d   1      52.252  34.552  54.226  0.00  0.00     0.002 A 
ATOM      8  C   UNL d   1      52.128  34.881  53.479  0.00  0.00     0.000 A 
ATOM      9  C   UNL d   1      52.581  34.633  52.843  0.00  0.00     0.002 A 
ATOM     10  C   UNL d   1      53.162  34.053  52.949  0.00  0.00     0.018 A 
ENDBRANCH   4   5
BRANCH   4  11
ATOM     11  C   UNL d   1      54.640  33.359  53.981  0.00  0.00     0.092 C 
ATOM     12  C   UNL d   1      54.867  33.520  54.757  0.00  0.00     0.021 C 
ENDBRANCH   4  11
ENDBRANCH   1   4
BRANCH   1  13
ATOM     13  C   UNL d   1      53.466  31.548  53.697  0.00  0.00     0.106 A 
ATOM     14  C   UNL d   1      53.651  31.037  54.313  0.00  0.00     0.034 A 
ATOM     15  C   UNL d   1      53.447  30.234  54.263  0.00  0.00     0.105 A 
ATOM     16  N   UNL d   1      53.556  29.599  54.780  0.00  0.00    -0.189 NA
ATOM     17  C   UNL d   1      53.056  29.949  53.586  0.00  0.00     0.104 A 
ATOM     18  C   UNL d   1      53.233  28.916  54.427  0.00  0.00     0.369 A 
ATOM     19  O   UNL d   1      53.222  28.160  54.753  0.00  0.00    -0.242 OA
ATOM     20  N   UNL d   1      52.926  29.139  53.691  0.00  0.00    -0.189 NA
ATOM     21  C   UNL d   1      52.872  30.468  52.967  0.00  0.00     0.021 A 
ATOM     22  C   UNL d   1      53.079  31.265  53.027  0.00  0.00     0.015 A 
ENDBRANCH   1  13
TORSDOF 4
ENDMDL
MODEL 3
REMARK VINA RESULT:      -8.9      0.915      2.024
REMARK  4 active torsions:
REMARK  status: ('A' for Active; 'I' for Inactive)
REMARK    1  A    between atoms: N_3  and  S_1 
REMARK    2  A    between atoms: C_4  and  S_1 
REMARK    3  A    between atoms: C_13  and  N_3 
REMARK    4  A    between atoms: C_16  and  N_3 
ROOT
ATOM      1  S   UNL d   1      53.079  32.844  53.552  0.00  0.00     0.271 S 
ATOM      2  O   UNL d   1      53.295  32.662  54.326  0.00  0.00    -0.200 OA
ATOM      3  O   UNL d   1      53.433  32.453  52.923  0.00  0.00    -0.200 OA
ENDROOT
BRANCH   1   4
ATOM      4  N   UNL d   1      53.650  32.269  53.688  0.00  0.00    -0.231 N 
BRANCH   4   5
ATOM      5  C   UNL d   1      53.457  31.460  53.605  0.00  0.00     0.075 A 
ATOM      6  C   UNL d   1      53.434  30.977  54.268  0.00  0.00     0.018 A 
ATOM      7  C   UNL d   1      53.244  30.180  54.186  0.00  0.00     0.002 A 
ATOM      8  C   UNL d   1      53.075  29.865  53.442  0.00  0.00     0.000 A 
ATOM      9  C   UNL d   1      53.097  30.347  52.781  0.00  0.00     0.002 A 
ATOM     10  C   UNL d   1      53.289  31.149  52.857  0.00  0.00     0.018 A 
ENDBRANCH   4   5
BRANCH   4  11
ATOM     11  C   UNL d   1      54.411  32.488  53.904  0.00  0.00     0.092 C 
ATOM     12  C   UNL d   1      54.981  32.641  53.329  0.00  0.00     0.021 C 
ENDBRANCH   4  11
ENDBRANCH   1   4
BRANCH   1  13
ATOM     13  C   UNL d   1      52.508  33.418  53.408  0.00  0.00     0.106 A 
ATOM     14  C   UNL d   1      51.734  33.194  53.244  0.00  0.00     0.034 A 
ATOM     15  C   UNL d   1      51.156  33.770  53.098  0.00  0.00     0.105 A 
ATOM     16  N   UNL d   1      50.349  33.718  52.922  0.00  0.00    -0.189 NA
ATOM     17  C   UNL d   1      51.361  34.576  53.117  0.00  0.00     0.104 A 
ATOM     18  C   UNL d   1      50.052  34.491  52.831  0.00  0.00     0.369 A 
ATOM     19  O   UNL d   1      49.273  34.694  52.653  0.00  0.00    -0.242 OA
ATOM     20  N   UNL d   1      50.680  35.016  52.953  0.00  0.00    -0.189 NA
ATOM     21  C   UNL d   1      52.143  34.798  53.283  0.00  0.00     0.021 A 
ATOM     22  C   UNL d   1      52.711  34.217  53.427  0.00  0.00     0.015 A 
ENDBRANCH   1  13
TORSDOF 4
ENDMDL
