MODEL 1
REMARK VINA RESULT:      14.4      0.000      0.000
REMARK  3 active torsions:
REMARK  status: ('A' for Active; 'I' for Inactive)
REMARK    1  A    between atoms: C_6  and  N_1 
REMARK    2  A    between atoms: C_7  and  O_10 
REMARK    3  A    between atoms: O_10  and  C_13 
ROOT
ATOM      1  C   UNL d   1      58.157  49.692  50.407  0.00  0.00     0.070 A 
ATOM      2  C   UNL d   1      58.638  49.706  49.724  0.00  0.00     0.020 A 
ATOM      3  C   UNL d   1      58.505  49.678  51.156  0.00  0.00     0.020 A 
ATOM      4  C   UNL d   1      59.809  49.691  50.568  0.00  0.00     0.105 A 
ATOM      5  C   UNL d   1      59.324  49.677  51.243  0.00  0.00     0.026 A 
ATOM      6  C   UNL d   1      59.460  49.706  49.811  0.00  0.00     0.026 A 
ENDROOT
BRANCH   1   7
ATOM      7  N   UNL d   1      57.343  49.693  50.321  0.00  0.00    -0.242 N 
ATOM      8  C   UNL d   1      56.899  49.690  49.602  0.00  0.00     0.267 A 
ATOM      9  C   UNL d   1      56.118  49.692  49.800  0.00  0.00     0.066 A 
ATOM     10  O   UNL d   1      57.193  49.686  48.834  0.00  0.00    -0.267 OA
ATOM     11  C   UNL d   1      56.033  49.696  50.602  0.00  0.00     0.066 A 
ATOM     12  C   UNL d   1      56.816  49.697  50.923  0.00  0.00     0.267 A 
ATOM     13  O   UNL d   1      57.017  49.701  51.725  0.00  0.00    -0.267 OA
ENDBRANCH   1   7
BRANCH   4  14
ATOM     14  O   UNL d   1      60.604  49.690  50.653  0.00  0.00    -0.260 OA
BRANCH  14  15
ATOM     15  C   UNL d   1      60.971  49.089  51.062  0.00  0.00     0.391 C 
ATOM     16  F   UNL d   1      61.295  48.467  50.664  0.00  0.00    -0.145 F 
ATOM     17  F   UNL d   1      61.010  49.115  51.875  0.00  0.00    -0.145 F 
ENDBRANCH  14  15
ENDBRANCH   4  14
TORSDOF 3
ENDMDL
MODEL 2
REMARK VINA RESULT:      14.9      2.097      3.718
REMARK  3 active torsions:
REMARK  status: ('A' for Active; 'I' for Inactive)
REMARK    1  A    between atoms: C_6  and  N_1 
REMARK    2  A    between atoms: C_7  and  O_10 
REMARK    3  A    between atoms: O_10  and  C_13 
ROOT
ATOM      1  C   UNL d   1      59.081  49.703  50.930  0.00  0.00     0.070 A 
ATOM      2  C   UNL d   1      58.844  49.706  50.129  0.00  0.00     0.020 A 
ATOM      3  C   UNL d   1      58.511  49.699  51.528  0.00  0.00     0.020 A 
ATOM      4  C   UNL d   1      57.465  49.703  50.553  0.00  0.00     0.105 A 
ATOM      5  C   UNL d   1      57.708  49.699  51.348  0.00  0.00     0.026 A 
ATOM      6  C   UNL d   1      58.038  49.706  49.948  0.00  0.00     0.026 A 
ENDROOT
BRANCH   1   7
ATOM      7  N   UNL d   1      59.880  49.703  51.109  0.00  0.00    -0.242 N 
ATOM      8  C   UNL d   1      60.238  49.704  51.874  0.00  0.00     0.267 A 
ATOM      9  C   UNL d   1      61.037  49.704  51.766  0.00  0.00     0.066 A 
ATOM     10  O   UNL d   1      59.859  49.706  52.603  0.00  0.00    -0.267 OA
ATOM     11  C   UNL d   1      61.213  49.702  50.979  0.00  0.00     0.066 A 
ATOM     12  C   UNL d   1      60.473  49.701  50.571  0.00  0.00     0.267 A 
ATOM     13  O   UNL d   1      60.364  49.699  49.751  0.00  0.00    -0.267 OA
ENDBRANCH   1   7
BRANCH   4  14
ATOM     14  O   UNL d   1      56.684  49.703  50.379  0.00  0.00    -0.260 OA
BRANCH  14  15
ATOM     15  C   UNL d   1      56.415  49.314  49.715  0.00  0.00     0.391 C 
ATOM     16  F   UNL d   1      56.164  48.549  49.768  0.00  0.00    -0.145 F 
ATOM     17  F   UNL d   1      56.398  49.697  48.997  0.00  0.00    -0.145 F 
ENDBRANCH  14  15
ENDBRANCH   4  14
TORSDOF 3
ENDMDL
