MODEL 1
REMARK VINA RESULT:      -3.0      0.000      0.000
REMARK  4 active torsions:
REMARK  status: ('A' for Active; 'I' for Inactive)
REMARK    1  A    between atoms: S_2  and  C_1 
REMARK    2  A    between atoms: C_8  and  S_2 
REMARK    3  A    between atoms: N_7  and  C_4 
REMARK    4  A    between atoms: C_11  and  N_7 
ROOT
ATOM      1  C   UNL d   1      31.366  16.825 -24.091  0.00  0.00     0.187 A 
ATOM      2  N   UNL d   1      31.612  17.585 -24.054  0.00  0.00    -0.208 NA
ATOM      3  C   UNL d   1      32.432  17.587 -24.143  0.00  0.00     0.196 A 
ATOM      4  C   UNL d   1      31.955  16.283 -24.200  0.00  0.00     0.118 A 
ATOM      5  S   UNL d   1      32.692  16.785 -24.238  0.00  0.00    -0.035 SA
ATOM      6 CL   UNL d   1      32.003  15.490 -24.271  0.00  0.00    -0.073 Cl
ENDROOT
BRANCH   1   7
ATOM      7  S   UNL d   1      30.592  16.506 -24.033  0.00  0.00     0.228 S 
ATOM      8  O   UNL d   1      30.850  16.158 -23.235  0.00  0.00    -0.216 OA
ATOM      9  O   UNL d   1      30.452  16.864 -24.772  0.00  0.00    -0.216 OA
BRANCH   7  10
ATOM     10  C   UNL d   1      29.868  16.232 -24.024  0.00  0.00     0.089 A 
ATOM     11  C   UNL d   1      29.546  15.691 -24.516  0.00  0.00     0.011 A 
ATOM     12  C   UNL d   1      28.735  15.458 -24.417  0.00  0.00     0.001 A 
ATOM     13  C   UNL d   1      28.208  15.712 -23.875  0.00  0.00     0.000 A 
ATOM     14  C   UNL d   1      28.496  16.318 -23.292  0.00  0.00     0.001 A 
ATOM     15  C   UNL d   1      27.341  15.456 -23.780  0.00  0.00     0.000 C 
ATOM     16  C   UNL d   1      29.307  16.551 -23.391  0.00  0.00     0.011 A 
ENDBRANCH   7  10
ENDBRANCH   1   7
BRANCH   3  17
ATOM     17  N   UNL d   1      33.081  18.243 -24.159  0.00  0.00    -0.221 NA
BRANCH  17  18
ATOM     18  C   UNL d   1      33.123  18.887 -23.557  0.00  0.00     0.084 A 
ATOM     19  C   UNL d   1      33.195  19.600 -23.905  0.00  0.00     0.018 A 
ATOM     20  C   UNL d   1      33.231  19.784 -24.675  0.00  0.00     0.002 C 
ATOM     21  C   UNL d   1      33.234  20.186 -23.364  0.00  0.00     0.002 A 
ATOM     22  C   UNL d   1      33.195  20.001 -22.477  0.00  0.00     0.000 A 
ATOM     23  C   UNL d   1      33.125  19.289 -22.188  0.00  0.00     0.002 A 
ATOM     24  C   UNL d   1      33.089  18.702 -22.848  0.00  0.00     0.019 A 
ENDBRANCH  17  18
ENDBRANCH   3  17
TORSDOF 4
ENDMDL
MODEL 2
REMARK VINA RESULT:      -2.0      2.226      5.062
REMARK  4 active torsions:
REMARK  status: ('A' for Active; 'I' for Inactive)
REMARK    1  A    between atoms: S_2  and  C_1 
REMARK    2  A    between atoms: C_8  and  S_2 
REMARK    3  A    between atoms: N_7  and  C_4 
REMARK    4  A    between atoms: C_11  and  N_7 
ROOT
ATOM      1  C   UNL d   1      32.755  19.224 -22.865  0.00  0.00     0.187 A 
ATOM      2  N   UNL d   1      32.539  18.456 -22.818  0.00  0.00    -0.208 NA
ATOM      3  C   UNL d   1      32.598  18.132 -23.574  0.00  0.00     0.196 A 
ATOM      4  C   UNL d   1      32.965  19.472 -23.605  0.00  0.00     0.118 A 
ATOM      5  S   UNL d   1      32.864  18.740 -24.104  0.00  0.00    -0.035 SA
ATOM      6 CL   UNL d   1      33.213  20.154 -23.935  0.00  0.00    -0.073 Cl
ENDROOT
BRANCH   1   7
ATOM      7  S   UNL d   1      32.797  19.810 -22.266  0.00  0.00     0.228 S 
ATOM      8  O   UNL d   1      32.308  20.338 -22.820  0.00  0.00    -0.216 OA
ATOM      9  O   UNL d   1      33.239  19.253 -21.833  0.00  0.00    -0.216 OA
BRANCH   7  10
ATOM     10  C   UNL d   1      32.862  20.318 -21.686  0.00  0.00     0.089 A 
ATOM     11  C   UNL d   1      33.208  20.204 -20.975  0.00  0.00     0.011 A 
ATOM     12  C   UNL d   1      33.224  20.835 -20.406  0.00  0.00     0.001 A 
ATOM     13  C   UNL d   1      32.929  21.572 -20.472  0.00  0.00     0.000 A 
ATOM     14  C   UNL d   1      32.528  21.773 -21.240  0.00  0.00     0.001 A 
ATOM     15  C   UNL d   1      32.953  22.239 -19.855  0.00  0.00     0.000 C 
ATOM     16  C   UNL d   1      32.512  21.142 -21.810  0.00  0.00     0.011 A 
ENDBRANCH   7  10
ENDBRANCH   1   7
BRANCH   3  17
ATOM     17  N   UNL d   1      32.443  17.298 -23.937  0.00  0.00    -0.221 NA
BRANCH  17  18
ATOM     18  C   UNL d   1      31.646  16.919 -23.940  0.00  0.00     0.084 A 
ATOM     19  C   UNL d   1      31.688  16.161 -23.700  0.00  0.00     0.018 A 
ATOM     20  C   UNL d   1      32.320  15.737 -23.474  0.00  0.00     0.002 C 
ATOM     21  C   UNL d   1      30.969  15.814 -23.701  0.00  0.00     0.002 A 
ATOM     22  C   UNL d   1      30.231  16.278 -23.955  0.00  0.00     0.000 A 
ATOM     23  C   UNL d   1      30.243  17.015 -24.180  0.00  0.00     0.002 A 
ATOM     24  C   UNL d   1      31.071  17.323 -24.151  0.00  0.00     0.019 A 
ENDBRANCH  17  18
ENDBRANCH   3  17
TORSDOF 4
ENDMDL
MODEL 3
REMARK VINA RESULT:      -1.3      2.790      5.370
REMARK  4 active torsions:
REMARK  status: ('A' for Active; 'I' for Inactive)
REMARK    1  A    between atoms: S_2  and  C_1 
REMARK    2  A    between atoms: C_8  and  S_2 
REMARK    3  A    between atoms: N_7  and  C_4 
REMARK    4  A    between atoms: C_11  and  N_7 
ROOT
ATOM      1  C   UNL d   1      33.004  20.006 -22.395  0.00  0.00     0.187 A 
ATOM      2  N   UNL d   1      32.976  19.222 -22.241  0.00  0.00    -0.208 NA
ATOM      3  C   UNL d   1      33.100  18.823 -22.952  0.00  0.00     0.196 A 
ATOM      4  C   UNL d   1      33.140  20.196 -23.168  0.00  0.00     0.118 A 
ATOM      5  S   UNL d   1      33.209  19.400 -23.565  0.00  0.00    -0.035 SA
ATOM      6 CL   UNL d   1      33.216  20.866 -23.593  0.00  0.00    -0.073 Cl
ENDROOT
BRANCH   1   7
ATOM      7  S   UNL d   1      32.914  20.660 -21.877  0.00  0.00     0.228 S 
ATOM      8  O   UNL d   1      33.241  20.121 -21.222  0.00  0.00    -0.216 OA
ATOM      9  O   UNL d   1      32.626  21.072 -22.540  0.00  0.00    -0.216 OA
BRANCH   7  10
ATOM     10  C   UNL d   1      32.813  21.289 -21.437  0.00  0.00     0.089 A 
ATOM     11  C   UNL d   1      33.226  21.973 -21.464  0.00  0.00     0.011 A 
ATOM     12  C   UNL d   1      33.032  22.606 -20.931  0.00  0.00     0.001 A 
ATOM     13  C   UNL d   1      32.465  22.629 -20.371  0.00  0.00     0.000 A 
ATOM     14  C   UNL d   1      31.963  21.899 -20.283  0.00  0.00     0.001 A 
ATOM     15  C   UNL d   1      32.266  23.312 -19.807  0.00  0.00     0.000 C 
ATOM     16  C   UNL d   1      32.157  21.266 -20.816  0.00  0.00     0.011 A 
ENDBRANCH   7  10
ENDBRANCH   1   7
BRANCH   3  17
ATOM     17  N   UNL d   1      33.143  17.936 -23.199  0.00  0.00    -0.221 NA
BRANCH  17  18
ATOM     18  C   UNL d   1      32.432  17.475 -23.448  0.00  0.00     0.084 A 
ATOM     19  C   UNL d   1      32.564  16.692 -23.393  0.00  0.00     0.018 A 
ATOM     20  C   UNL d   1      33.215  16.305 -23.157  0.00  0.00     0.002 C 
ATOM     21  C   UNL d   1      31.923  16.271 -23.618  0.00  0.00     0.002 A 
ATOM     22  C   UNL d   1      31.167  16.690 -23.892  0.00  0.00     0.000 A 
ATOM     23  C   UNL d   1      31.088  17.457 -23.927  0.00  0.00     0.002 A 
ATOM     24  C   UNL d   1      31.837  17.846 -23.664  0.00  0.00     0.019 A 
ENDBRANCH  17  18
ENDBRANCH   3  17
TORSDOF 4
ENDMDL
