MODEL 1
REMARK VINA RESULT:       1.9      0.000      0.000
REMARK  3 active torsions:
REMARK  status: ('A' for Active; 'I' for Inactive)
REMARK    1  A    between atoms: C_3  and  C_1 
REMARK    2  A    between atoms: N_4  and  C_3 
REMARK    3  A    between atoms: C_8  and  C_3 
ROOT
ATOM      1  C   UNL d   1      58.558  -1.099  29.641  0.00  0.00     0.069 C 
ENDROOT
BRANCH   1   2
ATOM      2  C   UNL d   1      58.000  -0.776  30.162  0.00  0.00     0.057 A 
ATOM      3  C   UNL d   1      57.855  -1.142  30.888  0.00  0.00     0.214 A 
ATOM      4  C   UNL d   1      57.301  -0.814  31.394  0.00  0.00     0.120 A 
ATOM      5  O   UNL d   1      58.261  -1.832  31.108  0.00  0.00    -0.285 OA
ATOM      6  N   UNL d   1      57.144  -1.168  32.123  0.00  0.00    -0.241 NA
ATOM      7  C   UNL d   1      56.894  -0.123  31.175  0.00  0.00     0.021 A 
ATOM      8  C   UNL d   1      56.583  -0.827  32.625  0.00  0.00     0.099 A 
ATOM      9  C   UNL d   1      56.193  -0.164  32.415  0.00  0.00     0.021 A 
ATOM     10  C   UNL d   1      56.337   0.204  31.687  0.00  0.00     0.003 A 
ATOM     11  C   UNL d   1      57.048   0.229  30.452  0.00  0.00     0.002 A 
ATOM     12  C   UNL d   1      57.610  -0.114  29.951  0.00  0.00     0.005 A 
ENDBRANCH   1   2
BRANCH   1  13
ATOM     13  N   UNL d   1      59.199  -0.653  29.394  0.00  0.00    -0.301 N 
ATOM     14  C   UNL d   1      59.901  -0.686  29.820  0.00  0.00     0.100 A 
ATOM     15  C   UNL d   1      60.554  -0.235  29.572  0.00  0.00     0.100 A 
ATOM     16  N   UNL d   1      60.499   0.236  28.913  0.00  0.00    -0.299 N 
ATOM     17  C   UNL d   1      59.796   0.271  28.484  0.00  0.00     0.100 A 
ATOM     18  C   UNL d   1      61.133   0.679  28.665  0.00  0.00     0.100 C 
ATOM     19  C   UNL d   1      59.155  -0.172  28.727  0.00  0.00     0.100 A 
ENDBRANCH   1  13
BRANCH   1  20
ATOM     20  C   UNL d   1      58.486  -1.861  29.362  0.00  0.00     0.035 A 
ATOM     21  C   UNL d   1      58.921  -2.467  29.689  0.00  0.00     0.100 A 
ATOM     22  N   UNL d   1      58.852  -3.241  29.410  0.00  0.00    -0.242 NA
ATOM     23  C   UNL d   1      58.331  -3.401  28.788  0.00  0.00     0.099 A 
ATOM     24  C   UNL d   1      57.891  -2.795  28.457  0.00  0.00     0.021 A 
ATOM     25  C   UNL d   1      57.964  -2.021  28.740  0.00  0.00     0.005 A 
ENDBRANCH   1  20
TORSDOF 3
ENDMDL
MODEL 2
REMARK VINA RESULT:       3.7      1.755      3.109
REMARK  3 active torsions:
REMARK  status: ('A' for Active; 'I' for Inactive)
REMARK    1  A    between atoms: C_3  and  C_1 
REMARK    2  A    between atoms: N_4  and  C_3 
REMARK    3  A    between atoms: C_8  and  C_3 
ROOT
ATOM      1  C   UNL d   1      57.824   0.133  31.718  0.00  0.00     0.069 C 
ENDROOT
BRANCH   1   2
ATOM      2  C   UNL d   1      57.110   0.032  32.125  0.00  0.00     0.057 A 
ATOM      3  C   UNL d   1      56.830  -0.729  32.283  0.00  0.00     0.214 A 
ATOM      4  C   UNL d   1      56.122  -0.816  32.686  0.00  0.00     0.120 A 
ATOM      5  O   UNL d   1      57.254  -1.400  32.040  0.00  0.00    -0.285 OA
ATOM      6  N   UNL d   1      55.829  -1.569  32.852  0.00  0.00    -0.241 NA
ATOM      7  C   UNL d   1      55.697  -0.145  32.930  0.00  0.00     0.021 A 
ATOM      8  C   UNL d   1      55.114  -1.644  33.260  0.00  0.00     0.099 A 
ATOM      9  C   UNL d   1      54.706  -1.000  33.494  0.00  0.00     0.021 A 
ATOM     10  C   UNL d   1      54.985  -0.236  33.336  0.00  0.00     0.003 A 
ATOM     11  C   UNL d   1      55.986   0.604  32.767  0.00  0.00     0.002 A 
ATOM     12  C   UNL d   1      56.702   0.675  32.359  0.00  0.00     0.005 A 
ENDBRANCH   1   2
BRANCH   1  13
ATOM     13  N   UNL d   1      57.851   0.053  30.903  0.00  0.00    -0.301 N 
ATOM     14  C   UNL d   1      58.096  -0.659  30.576  0.00  0.00     0.100 A 
ATOM     15  C   UNL d   1      58.125  -0.743  29.749  0.00  0.00     0.100 A 
ATOM     16  N   UNL d   1      57.912  -0.126  29.267  0.00  0.00    -0.299 N 
ATOM     17  C   UNL d   1      57.665   0.590  29.594  0.00  0.00     0.100 A 
ATOM     18  C   UNL d   1      57.937  -0.201  28.459  0.00  0.00     0.100 C 
ATOM     19  C   UNL d   1      57.637   0.673  30.405  0.00  0.00     0.100 A 
ENDBRANCH   1  13
BRANCH   1  20
ATOM     20  C   UNL d   1      58.515   0.313  32.113  0.00  0.00     0.035 A 
ATOM     21  C   UNL d   1      59.220   0.378  31.710  0.00  0.00     0.100 A 
ATOM     22  N   UNL d   1      59.921   0.560  32.104  0.00  0.00    -0.242 NA
ATOM     23  C   UNL d   1      59.905   0.678  32.923  0.00  0.00     0.099 A 
ATOM     24  C   UNL d   1      59.199   0.614  33.332  0.00  0.00     0.021 A 
ATOM     25  C   UNL d   1      58.499   0.431  32.931  0.00  0.00     0.005 A 
ENDBRANCH   1  20
TORSDOF 3
ENDMDL
