MODEL 1
REMARK VINA RESULT:      16.8      0.000      0.000
REMARK  5 active torsions:
REMARK  status: ('A' for Active; 'I' for Inactive)
REMARK    1  A    between atoms: C_23  and  N_10 
REMARK    2  A    between atoms: C_14  and  N_13 
REMARK    3  A    between atoms: N_15  and  C_28 
REMARK    4  A    between atoms: C_27  and  C_23 
REMARK    5  A    between atoms: C_28  and  C_27 
ROOT
ATOM      1  C   UNL d   1     -42.777-122.305 -48.763  0.00  0.00     0.173 A 
ATOM      2  C   UNL d   1     -42.279-122.803 -49.156  0.00  0.00     0.191 A 
ATOM      3  C   UNL d   1     -42.766-122.331 -50.411  0.00  0.00     0.722 A 
ATOM      4  N   UNL d   1     -43.282-121.815 -50.018  0.00  0.00    -0.131 N 
ATOM      5  N   UNL d   1     -42.265-122.825 -49.981  0.00  0.00    -0.042 NA
ATOM      6  N   UNL d   1     -41.776-123.300 -48.740  0.00  0.00    -0.240 N 
ATOM      7  N   UNL d   1     -42.327-122.741 -47.506  0.00  0.00    -0.223 N 
ATOM      8  C   UNL d   1     -41.797-123.271 -47.910  0.00  0.00     0.343 A 
ATOM      9  C   UNL d   1     -42.821-122.254 -47.942  0.00  0.00     0.288 A 
ATOM     10  N   UNL d   1     -42.752-122.353 -51.236  0.00  0.00    -0.139 N 
ATOM     11  C   UNL d   1     -43.772-121.339 -51.284  0.00  0.00     0.116 A 
ATOM     12  C   UNL d   1     -43.256-121.855 -51.678  0.00  0.00     0.100 A 
ATOM     13  O   UNL d   1     -41.264-123.797 -47.491  0.00  0.00    -0.245 OA
ATOM     14  O   UNL d   1     -43.336-121.739 -47.548  0.00  0.00    -0.265 OA
ATOM     15  C   UNL d   1     -41.260-123.816 -49.133  0.00  0.00     0.105 C 
ATOM     16  C   UNL d   1     -42.341-122.720 -46.681  0.00  0.00     0.107 C 
ATOM     17  C   UNL d   1     -43.224-121.895 -52.503  0.00  0.00     0.021 C 
ENDROOT
BRANCH  10  18
ATOM     18  C   UNL d   1     -42.239-122.866 -51.636  0.00  0.00     0.100 C 
BRANCH  18  19
ATOM     19  C   UNL d   1     -41.492-122.605 -51.891  0.00  0.00     0.039 C 
BRANCH  19  20
ATOM     20  C   UNL d   1     -41.148-122.933 -52.556  0.00  0.00     0.082 C 
BRANCH  20  21
ATOM     21  N   UNL d   1     -41.410-122.718 -53.308  0.00  0.00    -0.300 N 
ATOM     22  C   UNL d   1     -41.123-122.028 -53.659  0.00  0.00     0.100 A 
ATOM     23  C   UNL d   1     -41.390-121.818 -54.414  0.00  0.00     0.100 A 
ATOM     24  N   UNL d   1     -41.933-122.288 -54.812  0.00  0.00    -0.301 N 
ATOM     25  C   UNL d   1     -42.217-122.978 -54.457  0.00  0.00     0.100 A 
ATOM     26  C   UNL d   1     -41.957-123.193 -53.709  0.00  0.00     0.100 A 
BRANCH  24  27
ATOM     27  C   UNL d   1     -42.194-122.072 -55.565  0.00  0.00     0.065 A 
ATOM     28  C   UNL d   1     -42.974-122.190 -55.777  0.00  0.00     0.029 A 
ATOM     29  C   UNL d   1     -43.235-121.978 -56.519  0.00  0.00     0.059 A 
ATOM     30 CL   UNL d   1     -44.032-122.097 -56.736  0.00  0.00    -0.082 Cl
ATOM     31  C   UNL d   1     -42.707-121.641 -57.062  0.00  0.00     0.011 A 
ATOM     32  C   UNL d   1     -41.918-121.521 -56.852  0.00  0.00     0.002 A 
ATOM     33  C   UNL d   1     -41.657-121.737 -56.100  0.00  0.00     0.018 A 
ENDBRANCH  24  27
ENDBRANCH  20  21
ENDBRANCH  19  20
ENDBRANCH  18  19
ENDBRANCH  10  18
TORSDOF 5
ENDMDL
