MODEL 1
REMARK VINA RESULT:     109.1      0.000      0.000
REMARK  5 active torsions:
REMARK  status: ('A' for Active; 'I' for Inactive)
REMARK    1  A    between atoms: N_8  and  S_1 
REMARK    2  A    between atoms: C_11  and  S_1 
REMARK    3  A    between atoms: S_2  and  C_10 
REMARK    4  A    between atoms: N_9  and  S_2 
REMARK    5  A    between atoms: N_20  and  C_5 
ROOT
ATOM      1  C   UNL d   1     -49.332  27.976  34.903  0.00  0.00     0.021 A 
ATOM      2  C   UNL d   1     -50.172  27.007  34.551  0.00  0.00     0.021 A 
ATOM      3  C   UNL d   1     -50.054  27.604  35.106  0.00  0.00     0.111 A 
ATOM      4  C   UNL d   1     -49.536  27.020  34.026  0.00  0.00     0.002 A 
ATOM      5  C   UNL d   1     -49.028  27.626  34.260  0.00  0.00     0.002 A 
ATOM      6  C   UNL d   1     -50.758  25.909  33.842  0.00  0.00     0.104 A 
ATOM      7  C   UNL d   1     -48.227  28.882  34.962  0.00  0.00     0.104 A 
ATOM      8  C   UNL d   1     -50.773  26.458  34.457  0.00  0.00     0.015 A 
ATOM      9  C   UNL d   1     -48.942  28.611  35.270  0.00  0.00     0.015 A 
ATOM     10  C   UNL d   1     -48.312  27.897  33.952  0.00  0.00     0.001 A 
ATOM     11  C   UNL d   1     -49.506  26.476  33.402  0.00  0.00     0.001 A 
ATOM     12  C   UNL d   1     -47.934  28.527  34.323  0.00  0.00     0.013 A 
ATOM     13  C   UNL d   1     -50.104  25.943  33.324  0.00  0.00     0.013 A 
ENDROOT
BRANCH   6  14
ATOM     14  S   UNL d   1     -51.373  25.342  33.740  0.00  0.00     0.271 S 
ATOM     15  O   UNL d   1     -50.829  24.718  33.924  0.00  0.00    -0.200 OA
ATOM     16  O   UNL d   1     -51.887  25.989  33.561  0.00  0.00    -0.200 OA
BRANCH  14  17
ATOM     17  N   UNL d   1     -51.986  24.808  33.635  0.00  0.00    -0.229 N 
ATOM     18  C   UNL d   1     -52.751  25.081  33.558  0.00  0.00     0.092 A 
ATOM     19  C   UNL d   1     -53.352  24.538  33.454  0.00  0.00     0.020 A 
ATOM     20  C   UNL d   1     -53.205  23.733  33.427  0.00  0.00     0.003 A 
ATOM     21  C   UNL d   1     -52.424  23.452  33.506  0.00  0.00     0.020 A 
ATOM     22  C   UNL d   1     -53.827  23.188  33.321  0.00  0.00     0.000 C 
ATOM     23  C   UNL d   1     -51.809  23.999  33.612  0.00  0.00     0.092 A 
ENDBRANCH  14  17
ENDBRANCH   6  14
BRANCH   3  24
ATOM     24  N   UNL d   1     -50.540  27.806  35.742  0.00  0.00    -0.096 NA
ATOM     25  O   UNL d   1     -50.878  27.182  36.185  0.00  0.00    -0.061 OA
ENDBRANCH   3  24
BRANCH   7  26
ATOM     26  S   UNL d   1     -47.811  29.517  35.306  0.00  0.00     0.271 S 
ATOM     27  O   UNL d   1     -47.278  29.517  34.654  0.00  0.00    -0.200 OA
ATOM     28  O   UNL d   1     -48.347  29.499  35.940  0.00  0.00    -0.200 OA
BRANCH  26  29
ATOM     29  N   UNL d   1     -47.383  30.156  35.643  0.00  0.00    -0.229 N 
ATOM     30  C   UNL d   1     -47.058  30.049  36.391  0.00  0.00     0.092 A 
ATOM     31  C   UNL d   1     -46.640  30.650  36.739  0.00  0.00     0.020 A 
ATOM     32  C   UNL d   1     -46.531  31.374  36.360  0.00  0.00     0.003 A 
ATOM     33  C   UNL d   1     -46.862  31.485  35.597  0.00  0.00     0.020 A 
ATOM     34  C   UNL d   1     -46.096  31.984  36.734  0.00  0.00     0.000 C 
ATOM     35  C   UNL d   1     -47.287  30.871  35.244  0.00  0.00     0.092 A 
ENDBRANCH  26  29
ENDBRANCH   7  26
TORSDOF 5
ENDMDL
