MODEL 1
REMARK VINA RESULT:      28.0      0.000      0.000
REMARK  6 active torsions:
REMARK  status: ('A' for Active; 'I' for Inactive)
REMARK    1  A    between atoms: C_2  and  S_1 
REMARK    2  A    between atoms: N_5  and  S_1 
REMARK    3  A    between atoms: C_9  and  N_5 
REMARK    4  A    between atoms: C_11  and  C_9 
REMARK       I    between atoms: N_17  and  C_11 
REMARK    5  A    between atoms: C_16  and  C_21 
REMARK    6  A    between atoms: C_21  and  N_17 
ROOT
ATOM      1  C   UNL d   1      14.584  12.038  -1.428  0.00  0.00     0.299 C 
ATOM      2  N   UNL d   1      14.341  12.319  -0.696  0.00  0.00    -0.203 NA
ATOM      3  O   UNL d   1      15.406  11.926  -1.583  0.00  0.00    -0.263 OA
ENDROOT
BRANCH   1   4
ATOM      4  C   UNL d   1      14.029  11.866  -2.010  0.00  0.00     0.174 C 
BRANCH   4   5
ATOM      5  N   UNL d   1      13.538  12.473  -2.309  0.00  0.00    -0.151 NA
BRANCH   5   6
ATOM      6  S   UNL d   1      13.423  12.547  -3.129  0.00  0.00     0.291 S 
ATOM      7  O   UNL d   1      13.093  11.779  -3.156  0.00  0.00    -0.198 OA
ATOM      8  O   UNL d   1      13.746  13.301  -3.111  0.00  0.00    -0.198 OA
BRANCH   6   9
ATOM      9  C   UNL d   1      13.304  12.610  -3.947  0.00  0.00     0.135 A 
ATOM     10  S   UNL d   1      13.056  12.007  -4.418  0.00  0.00    -0.067 SA
ATOM     11  C   UNL d   1      13.007  12.299  -5.205  0.00  0.00     0.065 A 
ATOM     12 BR   UNL d   1      12.771  11.861  -5.882  0.00  0.00    -0.042 Br
ATOM     13  C   UNL d   1      13.226  13.077  -5.196  0.00  0.00     0.015 A 
ATOM     14  C   UNL d   1      13.413  13.280  -4.416  0.00  0.00     0.021 A 
ENDBRANCH   6   9
ENDBRANCH   5   6
ENDBRANCH   4   5
ENDBRANCH   1   4
BRANCH   2  15
ATOM     15  C   UNL d   1      14.905  12.493  -0.105  0.00  0.00     0.129 C 
BRANCH  15  16
ATOM     16  C   UNL d   1      15.263  13.247  -0.089  0.00  0.00     0.144 A 
ATOM     17  O   UNL d   1      14.819  13.925  -0.129  0.00  0.00    -0.301 OA
ATOM     18  C   UNL d   1      15.185  14.654  -0.112  0.00  0.00     0.123 A 
ATOM     19  C   UNL d   1      14.734  15.344  -0.153  0.00  0.00     0.027 A 
ATOM     20  C   UNL d   1      16.004  14.709  -0.055  0.00  0.00     0.123 A 
ATOM     21  C   UNL d   1      15.099  16.085  -0.137  0.00  0.00     0.002 A 
ATOM     22  C   UNL d   1      15.919  16.137  -0.079  0.00  0.00     0.002 A 
ATOM     23  C   UNL d   1      16.372  15.440  -0.038  0.00  0.00     0.027 A 
ATOM     24  O   UNL d   1      16.456  14.027  -0.014  0.00  0.00    -0.301 OA
ATOM     25  C   UNL d   1      16.083  13.298  -0.031  0.00  0.00     0.149 A 
ENDBRANCH  15  16
ENDBRANCH   2  15
TORSDOF 6
ENDMDL
