MODEL 1
REMARK VINA RESULT:      74.6      0.000      0.000
REMARK  7 active torsions:
REMARK  status: ('A' for Active; 'I' for Inactive)
REMARK    1  A    between atoms: C_8  and  C_1 
REMARK    2  A    between atoms: N_7  and  C_2 
REMARK    3  A    between atoms: C_10  and  C_4 
REMARK       I    between atoms: C_6  and  N_7 
REMARK       I    between atoms: N_9  and  C_6 
REMARK    4  A    between atoms: O_14  and  C_8 
REMARK    5  A    between atoms: C_13  and  N_9 
REMARK    6  A    between atoms: O_20  and  C_15 
REMARK    7  A    between atoms: C_23  and  O_20 
ROOT
ATOM      1  C   UNL d   1     -47.360  30.314  35.898  0.00  0.00     0.110 A 
ATOM      2  C   UNL d   1     -47.401  29.792  35.204  0.00  0.00     0.098 A 
ATOM      3  S   UNL d   1     -47.489  31.062  35.669  0.00  0.00    -0.080 SA
ATOM      4  C   UNL d   1     -47.618  31.076  34.833  0.00  0.00     0.031 A 
ATOM      5  C   UNL d   1     -47.560  30.268  34.553  0.00  0.00     0.026 A 
ENDROOT
BRANCH   2   6
ATOM      6  N   UNL d   1     -47.305  28.977  35.163  0.00  0.00    -0.190 NA
ATOM      7  C   UNL d   1     -47.919  28.499  34.852  0.00  0.00     0.369 C 
ATOM      8  N   UNL d   1     -48.604  28.821  34.591  0.00  0.00    -0.191 NA
ATOM      9  O   UNL d   1     -47.804  27.664  34.817  0.00  0.00    -0.242 OA
BRANCH   8  10
ATOM     10  C   UNL d   1     -49.193  28.345  34.290  0.00  0.00     0.086 A 
ATOM     11  C   UNL d   1     -49.594  28.573  33.620  0.00  0.00     0.021 A 
ATOM     12  C   UNL d   1     -50.192  28.099  33.306  0.00  0.00     0.026 A 
ATOM     13  C   UNL d   1     -50.384  27.393  33.674  0.00  0.00     0.100 A 
ATOM     14  C   UNL d   1     -49.984  27.165  34.343  0.00  0.00     0.026 A 
ATOM     15  C   UNL d   1     -49.386  27.641  34.654  0.00  0.00     0.021 A 
BRANCH  13  16
ATOM     16  O   UNL d   1     -50.976  26.925  33.362  0.00  0.00    -0.305 OA
BRANCH  16  17
ATOM     17  C   UNL d   1     -51.183  26.224  33.738  0.00  0.00     0.123 C 
ATOM     18  C   UNL d   1     -51.575  25.626  33.306  0.00  0.00     0.029 C 
ENDBRANCH  16  17
ENDBRANCH  13  16
ENDBRANCH   8  10
ENDBRANCH   2   6
BRANCH   1  19
ATOM     19  C   UNL d   1     -47.211  30.081  36.687  0.00  0.00     0.303 C 
ATOM     20  O   UNL d   1     -47.603  29.442  37.000  0.00  0.00    -0.259 OA
BRANCH  19  21
ATOM     21  O   UNL d   1     -46.658  30.533  37.101  0.00  0.00    -0.295 OA
ATOM     22  C   UNL d   1     -46.448  30.380  37.889  0.00  0.00     0.185 C 
ENDBRANCH  19  21
ENDBRANCH   1  19
BRANCH   4  23
ATOM     23  C   UNL d   1     -47.772  31.758  34.378  0.00  0.00     0.006 A 
ATOM     24  C   UNL d   1     -48.551  32.006  34.219  0.00  0.00     0.001 A 
ATOM     25  C   UNL d   1     -48.699  32.679  33.770  0.00  0.00     0.000 A 
ATOM     26  C   UNL d   1     -48.058  33.125  33.465  0.00  0.00     0.000 A 
ATOM     27  C   UNL d   1     -47.252  32.871  33.627  0.00  0.00     0.000 A 
ATOM     28  C   UNL d   1     -47.131  32.204  34.073  0.00  0.00     0.001 A 
ENDBRANCH   4  23
TORSDOF 7
ENDMDL
