MODEL 1
REMARK VINA RESULT:      -0.9      0.000      0.000
REMARK  3 active torsions:
REMARK  status: ('A' for Active; 'I' for Inactive)
REMARK    1  A    between atoms: C_14  and  C_1 
REMARK    2  A    between atoms: C_3  and  C_8 
REMARK       I    between atoms: C_8  and  N_13 
REMARK    3  A    between atoms: N_13  and  C_15 
ROOT
ATOM      1  C   UNL d   1      57.634   0.055  31.957  0.00  0.00     0.025 A 
ATOM      2  C   UNL d   1      58.049   0.468  30.647  0.00  0.00     0.085 A 
ATOM      3  C   UNL d   1      57.450   0.270  31.179  0.00  0.00     0.021 A 
ATOM      4  C   UNL d   1      58.373   0.031  32.216  0.00  0.00     0.002 A 
ATOM      5  C   UNL d   1      58.975   0.221  31.713  0.00  0.00     0.002 A 
ATOM      6  C   UNL d   1      58.848   0.446  30.913  0.00  0.00     0.019 A 
ENDROOT
BRANCH   2   7
ATOM      7  N   UNL d   1      57.887   0.682  29.876  0.00  0.00    -0.206 NA
ATOM      8  C   UNL d   1      58.160   0.193  29.255  0.00  0.00     0.302 C 
ATOM      9  O   UNL d   1      57.985   0.426  28.455  0.00  0.00    -0.263 OA
BRANCH   8  10
ATOM     10  C   UNL d   1      58.570  -0.468  29.418  0.00  0.00     0.161 A 
ATOM     11  C   UNL d   1      58.127  -1.137  29.548  0.00  0.00     0.072 A 
ATOM     12  C   UNL d   1      58.538  -1.827  29.718  0.00  0.00     0.200 A 
ATOM     13  O   UNL d   1      58.119  -2.501  29.850  0.00  0.00    -0.286 OA
ATOM     14  C   UNL d   1      59.362  -1.843  29.755  0.00  0.00     0.062 A 
ATOM     15  C   UNL d   1      59.799  -1.156  29.620  0.00  0.00     0.103 A 
ATOM     16  C   UNL d   1      59.779  -2.532  29.924  0.00  0.00     0.005 A 
ATOM     17  O   UNL d   1      59.411  -0.448  29.448  0.00  0.00    -0.302 OA
ATOM     18  C   UNL d   1      60.641  -1.182  29.661  0.00  0.00     0.025 A 
ATOM     19  C   UNL d   1      61.045  -1.854  29.826  0.00  0.00     0.002 A 
ATOM     20  C   UNL d   1      60.608  -2.518  29.955  0.00  0.00     0.000 A 
ENDBRANCH   8  10
ENDBRANCH   2   7
BRANCH   1  21
ATOM     21  C   UNL d   1      56.993  -0.139  32.468  0.00  0.00     0.111 A 
ATOM     22  N   UNL d   1      56.630  -0.858  32.643  0.00  0.00    -0.239 NA
ATOM     23  C   UNL d   1      56.024  -0.717  33.188  0.00  0.00     0.088 A 
ATOM     24  C   UNL d   1      55.465  -1.194  33.576  0.00  0.00     0.020 A 
ATOM     25  C   UNL d   1      56.025   0.092  33.340  0.00  0.00     0.049 A 
ATOM     26  C   UNL d   1      54.896  -0.889  34.120  0.00  0.00     0.002 A 
ATOM     27  C   UNL d   1      54.900  -0.055  34.274  0.00  0.00     0.001 A 
ATOM     28  C   UNL d   1      55.472   0.421  33.874  0.00  0.00     0.008 A 
ATOM     29  S   UNL d   1      56.637   0.443  32.882  0.00  0.00    -0.066 SA
ENDBRANCH   1  21
TORSDOF 3
ENDMDL
MODEL 2
REMARK VINA RESULT:       1.7      1.463      2.550
REMARK  3 active torsions:
REMARK  status: ('A' for Active; 'I' for Inactive)
REMARK    1  A    between atoms: C_14  and  C_1 
REMARK    2  A    between atoms: C_3  and  C_8 
REMARK       I    between atoms: C_8  and  N_13 
REMARK    3  A    between atoms: N_13  and  C_15 
ROOT
ATOM      1  C   UNL d   1      57.678  -1.357  30.331  0.00  0.00     0.025 A 
ATOM      2  C   UNL d   1      58.591  -2.283  29.723  0.00  0.00     0.085 A 
ATOM      3  C   UNL d   1      58.183  -2.012  30.387  0.00  0.00     0.021 A 
ATOM      4  C   UNL d   1      57.569  -0.976  29.655  0.00  0.00     0.002 A 
ATOM      5  C   UNL d   1      57.958  -1.225  28.993  0.00  0.00     0.002 A 
ATOM      6  C   UNL d   1      58.482  -1.882  28.991  0.00  0.00     0.019 A 
ENDROOT
BRANCH   2   7
ATOM      7  N   UNL d   1      59.093  -2.926  29.760  0.00  0.00    -0.206 NA
ATOM      8  C   UNL d   1      59.917  -2.792  29.800  0.00  0.00     0.302 C 
ATOM      9  O   UNL d   1      60.431  -3.470  29.838  0.00  0.00    -0.263 OA
BRANCH   8  10
ATOM     10  C   UNL d   1      60.202  -2.050  29.801  0.00  0.00     0.161 A 
ATOM     11  C   UNL d   1      60.491  -1.783  30.512  0.00  0.00     0.072 A 
ATOM     12  C   UNL d   1      60.789  -1.018  30.528  0.00  0.00     0.200 A 
ATOM     13  O   UNL d   1      61.081  -0.733  31.221  0.00  0.00    -0.286 OA
ATOM     14  C   UNL d   1      60.795  -0.542  29.854  0.00  0.00     0.062 A 
ATOM     15  C   UNL d   1      60.498  -0.827  29.139  0.00  0.00     0.103 A 
ATOM     16  C   UNL d   1      61.092   0.225  29.864  0.00  0.00     0.005 A 
ATOM     17  O   UNL d   1      60.193  -1.592  29.095  0.00  0.00    -0.302 OA
ATOM     18  C   UNL d   1      60.509  -0.332  28.456  0.00  0.00     0.025 A 
ATOM     19  C   UNL d   1      60.799   0.415  28.468  0.00  0.00     0.002 A 
ATOM     20  C   UNL d   1      61.086   0.682  29.171  0.00  0.00     0.000 A 
ENDBRANCH   8  10
ENDBRANCH   2   7
BRANCH   1  21
ATOM     21  C   UNL d   1      57.280  -1.112  31.031  0.00  0.00     0.111 A 
ATOM     22  N   UNL d   1      56.848  -1.533  31.593  0.00  0.00    -0.239 NA
ATOM     23  C   UNL d   1      56.582  -1.002  32.168  0.00  0.00     0.088 A 
ATOM     24  C   UNL d   1      56.131  -1.070  32.862  0.00  0.00     0.020 A 
ATOM     25  C   UNL d   1      56.856  -0.257  31.948  0.00  0.00     0.049 A 
ATOM     26  C   UNL d   1      55.939  -0.412  33.356  0.00  0.00     0.002 A 
ATOM     27  C   UNL d   1      56.224   0.353  33.126  0.00  0.00     0.001 A 
ATOM     28  C   UNL d   1      56.681   0.412  32.418  0.00  0.00     0.008 A 
ATOM     29  S   UNL d   1      57.292  -0.340  31.234  0.00  0.00    -0.066 SA
ENDBRANCH   1  21
TORSDOF 3
ENDMDL
