MODEL 1
REMARK VINA RESULT:       0.4      0.000      0.000
REMARK  4 active torsions:
REMARK  status: ('A' for Active; 'I' for Inactive)
REMARK    1  A    between atoms: C_7  and  C_2 
REMARK    2  A    between atoms: C_9  and  C_4 
REMARK    3  A    between atoms: C_15  and  C_7 
REMARK    4  A    between atoms: N_8  and  C_9 
ROOT
ATOM      1  C   UNL d   1      31.324  16.760 -24.202  0.00  0.00     0.108 A 
ATOM      2  C   UNL d   1      32.538  17.039 -23.707  0.00  0.00     0.139 A 
ATOM      3  O   UNL d   1      31.763  17.331 -23.787  0.00  0.00    -0.304 OA
ATOM      4  C   UNL d   1      30.538  16.738 -24.443  0.00  0.00     0.079 A 
ATOM      5  C   UNL d   1      31.825  16.125 -24.374  0.00  0.00     0.064 A 
ATOM      6  C   UNL d   1      32.571  16.298 -24.069  0.00  0.00     0.220 A 
ATOM      7  C   UNL d   1      31.536  15.472 -24.786  0.00  0.00     0.009 A 
ATOM      8  C   UNL d   1      30.255  16.088 -24.851  0.00  0.00     0.199 A 
ATOM      9  O   UNL d   1      33.241  15.812 -24.117  0.00  0.00    -0.284 OA
ATOM     10  C   UNL d   1      30.747  15.453 -25.026  0.00  0.00     0.042 A 
ATOM     11  O   UNL d   1      29.466  16.070 -25.091  0.00  0.00    -0.286 OA
ENDROOT
BRANCH   2  12
ATOM     12  C   UNL d   1      33.162  17.428 -23.329  0.00  0.00     0.028 C 
BRANCH  12  13
ATOM     13  C   UNL d   1      33.134  18.246 -23.214  0.00  0.00     0.002 A 
ATOM     14  C   UNL d   1      33.226  18.753 -23.858  0.00  0.00     0.000 A 
ATOM     15  C   UNL d   1      33.200  19.568 -23.750  0.00  0.00     0.000 A 
ATOM     16  C   UNL d   1      33.080  19.880 -22.990  0.00  0.00     0.000 A 
ATOM     17  C   UNL d   1      32.987  19.374 -22.345  0.00  0.00     0.000 A 
ATOM     18  C   UNL d   1      33.052  20.697 -22.878  0.00  0.00     0.000 C 
ATOM     19  C   UNL d   1      33.015  18.555 -22.461  0.00  0.00     0.000 A 
ENDBRANCH  12  13
ENDBRANCH   2  12
BRANCH   4  20
ATOM     20  C   UNL d   1      30.042  17.367 -24.272  0.00  0.00     0.086 C 
BRANCH  20  21
ATOM     21  N   UNL d   1      29.306  17.313 -23.887  0.00  0.00    -0.300 N 
ATOM     22  C   UNL d   1      28.732  17.874 -24.057  0.00  0.00     0.100 A 
ATOM     23  C   UNL d   1      28.001  17.830 -23.681  0.00  0.00     0.100 A 
ATOM     24  N   UNL d   1      27.864  17.228 -23.146  0.00  0.00    -0.299 N 
ATOM     25  C   UNL d   1      28.447  16.676 -22.987  0.00  0.00     0.100 A 
ATOM     26  C   UNL d   1      27.141  17.181 -22.772  0.00  0.00     0.100 C 
ATOM     27  C   UNL d   1      29.166  16.726 -23.362  0.00  0.00     0.100 A 
ENDBRANCH  20  21
ENDBRANCH   4  20
TORSDOF 4
ENDMDL
MODEL 2
REMARK VINA RESULT:       1.3      1.658      4.251
REMARK  4 active torsions:
REMARK  status: ('A' for Active; 'I' for Inactive)
REMARK    1  A    between atoms: C_7  and  C_2 
REMARK    2  A    between atoms: C_9  and  C_4 
REMARK    3  A    between atoms: C_15  and  C_7 
REMARK    4  A    between atoms: N_8  and  C_9 
ROOT
ATOM      1  C   UNL d   1      32.001  17.471 -24.081  0.00  0.00     0.108 A 
ATOM      2  C   UNL d   1      31.388  16.303 -23.846  0.00  0.00     0.139 A 
ATOM      3  O   UNL d   1      31.403  17.108 -23.634  0.00  0.00    -0.304 OA
ATOM      4  C   UNL d   1      32.271  18.248 -24.111  0.00  0.00     0.079 A 
ATOM      5  C   UNL d   1      32.350  16.896 -24.561  0.00  0.00     0.064 A 
ATOM      6  C   UNL d   1      31.972  16.178 -24.415  0.00  0.00     0.220 A 
ATOM      7  C   UNL d   1      32.967  17.100 -25.069  0.00  0.00     0.009 A 
ATOM      8  C   UNL d   1      32.883  18.446 -24.616  0.00  0.00     0.199 A 
ATOM      9  O   UNL d   1      32.147  15.453 -24.778  0.00  0.00    -0.284 OA
ATOM     10  C   UNL d   1      33.235  17.880 -25.097  0.00  0.00     0.042 A 
ATOM     11  O   UNL d   1      33.151  19.227 -24.644  0.00  0.00    -0.286 OA
ENDROOT
BRANCH   2  12
ATOM     12  C   UNL d   1      30.876  15.733 -23.536  0.00  0.00     0.028 C 
BRANCH  12  13
ATOM     13  C   UNL d   1      30.065  15.773 -23.690  0.00  0.00     0.002 A 
ATOM     14  C   UNL d   1      29.556  16.087 -23.122  0.00  0.00     0.000 A 
ATOM     15  C   UNL d   1      28.747  16.130 -23.270  0.00  0.00     0.000 A 
ATOM     16  C   UNL d   1      28.445  15.856 -23.994  0.00  0.00     0.000 A 
ATOM     17  C   UNL d   1      28.954  15.542 -24.562  0.00  0.00     0.000 A 
ATOM     18  C   UNL d   1      27.635  15.897 -24.145  0.00  0.00     0.000 C 
ATOM     19  C   UNL d   1      29.765  15.502 -24.407  0.00  0.00     0.000 A 
ENDBRANCH  12  13
ENDBRANCH   2  12
BRANCH   4  20
ATOM     20  C   UNL d   1      31.926  18.817 -23.635  0.00  0.00     0.086 C 
BRANCH  20  21
ATOM     21  N   UNL d   1      32.265  19.147 -22.950  0.00  0.00    -0.300 N 
ATOM     22  C   UNL d   1      32.036  19.901 -22.723  0.00  0.00     0.100 A 
ATOM     23  C   UNL d   1      32.365  20.236 -22.047  0.00  0.00     0.100 A 
ATOM     24  N   UNL d   1      32.913  19.809 -21.616  0.00  0.00    -0.299 N 
ATOM     25  C   UNL d   1      33.130  19.057 -21.856  0.00  0.00     0.100 A 
ATOM     26  C   UNL d   1      33.241  20.137 -20.946  0.00  0.00     0.100 C 
ATOM     27  C   UNL d   1      32.801  18.733 -22.525  0.00  0.00     0.100 A 
ENDBRANCH  20  21
ENDBRANCH   4  20
TORSDOF 4
ENDMDL
MODEL 3
REMARK VINA RESULT:       1.7      3.116      5.623
REMARK  4 active torsions:
REMARK  status: ('A' for Active; 'I' for Inactive)
REMARK    1  A    between atoms: C_7  and  C_2 
REMARK    2  A    between atoms: C_9  and  C_4 
REMARK    3  A    between atoms: C_15  and  C_7 
REMARK    4  A    between atoms: N_8  and  C_9 
ROOT
ATOM      1  C   UNL d   1      32.859  21.086 -21.842  0.00  0.00     0.108 A 
ATOM      2  C   UNL d   1      33.012  19.805 -22.202  0.00  0.00     0.139 A 
ATOM      3  O   UNL d   1      33.198  20.588 -22.413  0.00  0.00    -0.304 OA
ATOM      4  C   UNL d   1      32.855  21.905 -21.757  0.00  0.00     0.079 A 
ATOM      5  C   UNL d   1      32.468  20.613 -21.286  0.00  0.00     0.064 A 
ATOM      6  C   UNL d   1      32.564  19.826 -21.510  0.00  0.00     0.220 A 
ATOM      7  C   UNL d   1      32.077  20.962 -20.650  0.00  0.00     0.009 A 
ATOM      8  C   UNL d   1      32.465  22.246 -21.123  0.00  0.00     0.199 A 
ATOM      9  O   UNL d   1      32.262  19.166 -21.108  0.00  0.00    -0.284 OA
ATOM     10  C   UNL d   1      32.075  21.783 -20.567  0.00  0.00     0.042 A 
ATOM     11  O   UNL d   1      32.463  23.067 -21.042  0.00  0.00    -0.286 OA
ENDROOT
BRANCH   2  12
ATOM     12  C   UNL d   1      33.240  19.128 -22.618  0.00  0.00     0.028 C 
BRANCH  12  13
ATOM     13  C   UNL d   1      32.752  18.817 -23.209  0.00  0.00     0.002 A 
ATOM     14  C   UNL d   1      32.406  18.076 -23.105  0.00  0.00     0.000 A 
ATOM     15  C   UNL d   1      31.919  17.761 -23.689  0.00  0.00     0.000 A 
ATOM     16  C   UNL d   1      31.777  18.193 -24.384  0.00  0.00     0.000 A 
ATOM     17  C   UNL d   1      32.123  18.934 -24.489  0.00  0.00     0.000 A 
ATOM     18  C   UNL d   1      31.289  17.880 -24.972  0.00  0.00     0.000 C 
ATOM     19  C   UNL d   1      32.611  19.245 -23.898  0.00  0.00     0.000 A 
ENDBRANCH  12  13
ENDBRANCH   2  12
BRANCH   4  20
ATOM     20  C   UNL d   1      33.240  22.372 -22.306  0.00  0.00     0.086 C 
BRANCH  20  21
ATOM     21  N   UNL d   1      32.895  22.707 -22.986  0.00  0.00    -0.300 N 
ATOM     22  C   UNL d   1      33.044  22.359 -23.714  0.00  0.00     0.100 A 
ATOM     23  C   UNL d   1      32.707  22.682 -24.392  0.00  0.00     0.100 A 
ATOM     24  N   UNL d   1      32.232  23.344 -24.325  0.00  0.00    -0.299 N 
ATOM     25  C   UNL d   1      32.093  23.679 -23.591  0.00  0.00     0.100 A 
ATOM     26  C   UNL d   1      31.897  23.667 -24.994  0.00  0.00     0.100 C 
ATOM     27  C   UNL d   1      32.429  23.355 -22.926  0.00  0.00     0.100 A 
ENDBRANCH  20  21
ENDBRANCH   4  20
TORSDOF 4
ENDMDL
MODEL 4
REMARK VINA RESULT:       2.7      2.698      5.004
REMARK  4 active torsions:
REMARK  status: ('A' for Active; 'I' for Inactive)
REMARK    1  A    between atoms: C_7  and  C_2 
REMARK    2  A    between atoms: C_9  and  C_4 
REMARK    3  A    between atoms: C_15  and  C_7 
REMARK    4  A    between atoms: N_8  and  C_9 
ROOT
ATOM      1  C   UNL d   1      33.222  21.268 -23.479  0.00  0.00     0.108 A 
ATOM      2  C   UNL d   1      33.230  22.424 -22.800  0.00  0.00     0.139 A 
ATOM      3  O   UNL d   1      33.238  21.596 -22.716  0.00  0.00    -0.304 OA
ATOM      4  C   UNL d   1      33.221  20.490 -23.745  0.00  0.00     0.079 A 
ATOM      5  C   UNL d   1      33.205  21.889 -24.025  0.00  0.00     0.064 A 
ATOM      6  C   UNL d   1      33.210  22.599 -23.606  0.00  0.00     0.220 A 
ATOM      7  C   UNL d   1      33.187  21.727 -24.834  0.00  0.00     0.009 A 
ATOM      8  C   UNL d   1      33.204  20.334 -24.548  0.00  0.00     0.199 A 
ATOM      9  O   UNL d   1      33.197  23.359 -23.936  0.00  0.00    -0.284 OA
ATOM     10  C   UNL d   1      33.187  20.945 -25.097  0.00  0.00     0.042 A 
ATOM     11  O   UNL d   1      33.203  19.551 -24.810  0.00  0.00    -0.286 OA
ENDROOT
BRANCH   2  12
ATOM     12  C   UNL d   1      33.241  22.970 -22.180  0.00  0.00     0.028 C 
BRANCH  12  13
ATOM     13  C   UNL d   1      32.852  22.803 -21.469  0.00  0.00     0.002 A 
ATOM     14  C   UNL d   1      33.236  22.361 -20.888  0.00  0.00     0.000 A 
ATOM     15  C   UNL d   1      32.854  22.190 -20.179  0.00  0.00     0.000 A 
ATOM     16  C   UNL d   1      32.081  22.465 -20.050  0.00  0.00     0.000 A 
ATOM     17  C   UNL d   1      31.697  22.907 -20.631  0.00  0.00     0.000 A 
ATOM     18  C   UNL d   1      31.695  22.296 -19.341  0.00  0.00     0.000 C 
ATOM     19  C   UNL d   1      32.086  23.075 -21.341  0.00  0.00     0.000 A 
ENDBRANCH  12  13
ENDBRANCH   2  12
BRANCH   4  20
ATOM     20  C   UNL d   1      33.238  19.876 -23.204  0.00  0.00     0.086 C 
BRANCH  20  21
ATOM     21  N   UNL d   1      32.866  19.137 -23.297  0.00  0.00    -0.300 N 
ATOM     22  C   UNL d   1      32.110  19.038 -22.995  0.00  0.00     0.100 A 
ATOM     23  C   UNL d   1      31.733  18.311 -23.082  0.00  0.00     0.100 A 
ATOM     24  N   UNL d   1      32.120  17.704 -23.468  0.00  0.00    -0.299 N 
ATOM     25  C   UNL d   1      32.874  17.819 -23.765  0.00  0.00     0.100 A 
ATOM     26  C   UNL d   1      31.750  16.983 -23.557  0.00  0.00     0.100 C 
ATOM     27  C   UNL d   1      33.241  18.539 -23.675  0.00  0.00     0.100 A 
ENDBRANCH  20  21
ENDBRANCH   4  20
TORSDOF 4
ENDMDL
MODEL 5
REMARK VINA RESULT:       2.8      2.836      5.370
REMARK  4 active torsions:
REMARK  status: ('A' for Active; 'I' for Inactive)
REMARK    1  A    between atoms: C_7  and  C_2 
REMARK    2  A    between atoms: C_9  and  C_4 
REMARK    3  A    between atoms: C_15  and  C_7 
REMARK    4  A    between atoms: N_8  and  C_9 
ROOT
ATOM      1  C   UNL d   1      33.235  20.832 -23.079  0.00  0.00     0.108 A 
ATOM      2  C   UNL d   1      33.237  19.646 -23.702  0.00  0.00     0.139 A 
ATOM      3  O   UNL d   1      33.238  20.011 -22.954  0.00  0.00    -0.304 OA
ATOM      4  C   UNL d   1      33.235  21.469 -22.558  0.00  0.00     0.079 A 
ATOM      5  C   UNL d   1      33.231  20.969 -23.894  0.00  0.00     0.064 A 
ATOM      6  C   UNL d   1      33.232  20.238 -24.276  0.00  0.00     0.220 A 
ATOM      7  C   UNL d   1      33.227  21.741 -24.184  0.00  0.00     0.009 A 
ATOM      8  C   UNL d   1      33.231  22.233 -22.849  0.00  0.00     0.199 A 
ATOM      9  O   UNL d   1      33.229  20.117 -25.096  0.00  0.00    -0.284 OA
ATOM     10  C   UNL d   1      33.227  22.377 -23.659  0.00  0.00     0.042 A 
ATOM     11  O   UNL d   1      33.231  22.869 -22.323  0.00  0.00    -0.286 OA
ENDROOT
BRANCH   2  12
ATOM     12  C   UNL d   1      33.239  18.830 -23.838  0.00  0.00     0.028 C 
BRANCH  12  13
ATOM     13  C   UNL d   1      32.532  18.401 -23.815  0.00  0.00     0.002 A 
ATOM     14  C   UNL d   1      31.983  18.486 -24.425  0.00  0.00     0.000 A 
ATOM     15  C   UNL d   1      31.278  18.063 -24.409  0.00  0.00     0.000 A 
ATOM     16  C   UNL d   1      31.120  17.549 -23.775  0.00  0.00     0.000 A 
ATOM     17  C   UNL d   1      31.669  17.464 -23.165  0.00  0.00     0.000 A 
ATOM     18  C   UNL d   1      30.414  17.122 -23.755  0.00  0.00     0.000 C 
ATOM     19  C   UNL d   1      32.375  17.892 -23.188  0.00  0.00     0.000 A 
ENDBRANCH  12  13
ENDBRANCH   2  12
BRANCH   4  20
ATOM     20  C   UNL d   1      33.239  21.333 -21.751  0.00  0.00     0.086 C 
BRANCH  20  21
ATOM     21  N   UNL d   1      32.784  21.746 -21.188  0.00  0.00    -0.300 N 
ATOM     22  C   UNL d   1      33.173  22.143 -20.584  0.00  0.00     0.100 A 
ATOM     23  C   UNL d   1      32.732  22.553 -20.023  0.00  0.00     0.100 A 
ATOM     24  N   UNL d   1      31.917  22.557 -20.080  0.00  0.00    -0.299 N 
ATOM     25  C   UNL d   1      31.545  22.156 -20.688  0.00  0.00     0.100 A 
ATOM     26  C   UNL d   1      31.478  22.962 -19.525  0.00  0.00     0.100 C 
ATOM     27  C   UNL d   1      31.985  21.752 -21.239  0.00  0.00     0.100 A 
ENDBRANCH  20  21
ENDBRANCH   4  20
TORSDOF 4
ENDMDL
MODEL 6
REMARK VINA RESULT:       3.4      1.706      3.077
REMARK  4 active torsions:
REMARK  status: ('A' for Active; 'I' for Inactive)
REMARK    1  A    between atoms: C_7  and  C_2 
REMARK    2  A    between atoms: C_9  and  C_4 
REMARK    3  A    between atoms: C_15  and  C_7 
REMARK    4  A    between atoms: N_8  and  C_9 
ROOT
ATOM      1  C   UNL d   1      32.642  18.726 -23.401  0.00  0.00     0.108 A 
ATOM      2  C   UNL d   1      33.035  19.603 -22.468  0.00  0.00     0.139 A 
ATOM      3  O   UNL d   1      32.792  18.817 -22.589  0.00  0.00    -0.304 OA
ATOM      4  C   UNL d   1      32.390  18.081 -23.845  0.00  0.00     0.079 A 
ATOM      5  C   UNL d   1      32.792  19.449 -23.773  0.00  0.00     0.064 A 
ATOM      6  C   UNL d   1      33.033  19.987 -23.197  0.00  0.00     0.220 A 
ATOM      7  C   UNL d   1      32.688  19.522 -24.588  0.00  0.00     0.009 A 
ATOM      8  C   UNL d   1      32.289  18.159 -24.654  0.00  0.00     0.199 A 
ATOM      9  O   UNL d   1      33.239  20.780 -23.328  0.00  0.00    -0.284 OA
ATOM     10  C   UNL d   1      32.436  18.874 -25.031  0.00  0.00     0.042 A 
ATOM     11  O   UNL d   1      32.037  17.509 -25.096  0.00  0.00    -0.286 OA
ENDROOT
BRANCH   2  12
ATOM     12  C   UNL d   1      33.241  19.936 -21.739  0.00  0.00     0.028 C 
BRANCH  12  13
ATOM     13  C   UNL d   1      32.822  20.585 -21.444  0.00  0.00     0.002 A 
ATOM     14  C   UNL d   1      33.187  21.324 -21.407  0.00  0.00     0.000 A 
ATOM     15  C   UNL d   1      32.776  21.974 -21.114  0.00  0.00     0.000 A 
ATOM     16  C   UNL d   1      31.992  21.884 -20.856  0.00  0.00     0.000 A 
ATOM     17  C   UNL d   1      31.626  21.146 -20.893  0.00  0.00     0.000 A 
ATOM     18  C   UNL d   1      31.577  22.534 -20.562  0.00  0.00     0.000 C 
ATOM     19  C   UNL d   1      32.045  20.496 -21.188  0.00  0.00     0.000 A 
ENDBRANCH  12  13
ENDBRANCH   2  12
BRANCH   4  20
ATOM     20  C   UNL d   1      32.242  17.366 -23.477  0.00  0.00     0.086 C 
BRANCH  20  21
ATOM     21  N   UNL d   1      31.496  17.002 -23.406  0.00  0.00    -0.300 N 
ATOM     22  C   UNL d   1      31.465  16.205 -23.215  0.00  0.00     0.100 A 
ATOM     23  C   UNL d   1      30.732  15.836 -23.142  0.00  0.00     0.100 A 
ATOM     24  N   UNL d   1      30.052  16.273 -23.262  0.00  0.00    -0.299 N 
ATOM     25  C   UNL d   1      30.101  17.068 -23.451  0.00  0.00     0.100 A 
ATOM     26  C   UNL d   1      29.325  15.912 -23.190  0.00  0.00     0.100 C 
ATOM     27  C   UNL d   1      30.827  17.425 -23.522  0.00  0.00     0.100 A 
ENDBRANCH  20  21
ENDBRANCH   4  20
TORSDOF 4
ENDMDL
