MODEL 1
REMARK VINA RESULT:      -8.7      0.000      0.000
REMARK  5 active torsions:
REMARK  status: ('A' for Active; 'I' for Inactive)
REMARK    1  A    between atoms: C_9  and  C_1 
REMARK    2  A    between atoms: C_6  and  C_4 
REMARK    3  A    between atoms: C_5  and  C_6 
REMARK    4  A    between atoms: C_8  and  C_5 
REMARK    5  A    between atoms: C_11  and  C_8 
ROOT
ATOM      1  C   UNL d   1      51.658  34.310  52.910  0.00  0.00     0.100 A 
ATOM      2  O   UNL d   1      51.940  33.510  52.945  0.00  0.00    -0.307 OA
ATOM      3  C   UNL d   1      52.211  34.780  53.190  0.00  0.00     0.027 A 
ATOM      4  C   UNL d   1      52.707  33.559  53.271  0.00  0.00     0.100 A 
ATOM      5  C   UNL d   1      52.859  34.343  53.416  0.00  0.00     0.027 A 
ENDROOT
BRANCH   4   6
ATOM      6  C   UNL d   1      53.265  32.978  53.445  0.00  0.00     0.028 C 
BRANCH   6   7
ATOM      7  C   UNL d   1      53.066  32.196  53.383  0.00  0.00     0.044 C 
BRANCH   7   8
ATOM      8  C   UNL d   1      53.631  31.615  53.531  0.00  0.00     0.196 C 
ATOM      9  O   UNL d   1      54.431  31.847  53.643  0.00  0.00    -0.287 OA
BRANCH   8  10
ATOM     10  C   UNL d   1      53.409  30.831  53.567  0.00  0.00     0.039 A 
ATOM     11  C   UNL d   1      53.040  30.457  52.920  0.00  0.00     0.003 A 
ATOM     12  C   UNL d   1      52.817  29.667  52.958  0.00  0.00     0.000 A 
ATOM     13  C   UNL d   1      52.962  29.235  53.652  0.00  0.00     0.000 A 
ATOM     14  C   UNL d   1      53.328  29.606  54.295  0.00  0.00     0.000 A 
ATOM     15  C   UNL d   1      53.544  30.388  54.245  0.00  0.00     0.003 A 
ENDBRANCH   8  10
ENDBRANCH   7   8
ENDBRANCH   6   7
ENDBRANCH   4   6
BRANCH   1  16
ATOM     16  C   UNL d   1      50.896  34.393  52.600  0.00  0.00     0.023 A 
ATOM     17  C   UNL d   1      50.273  34.656  53.094  0.00  0.00     0.002 A 
ATOM     18  C   UNL d   1      49.510  34.737  52.778  0.00  0.00     0.000 A 
ATOM     19  C   UNL d   1      49.370  34.563  52.000  0.00  0.00     0.000 A 
ATOM     20  C   UNL d   1      49.993  34.298  51.501  0.00  0.00     0.000 A 
ATOM     21  C   UNL d   1      50.756  34.217  51.817  0.00  0.00     0.002 A 
ENDBRANCH   1  16
TORSDOF 5
ENDMDL
MODEL 2
REMARK VINA RESULT:      -8.7      0.595      4.586
REMARK  5 active torsions:
REMARK  status: ('A' for Active; 'I' for Inactive)
REMARK    1  A    between atoms: C_9  and  C_1 
REMARK    2  A    between atoms: C_6  and  C_4 
REMARK    3  A    between atoms: C_5  and  C_6 
REMARK    4  A    between atoms: C_8  and  C_5 
REMARK    5  A    between atoms: C_11  and  C_8 
ROOT
ATOM      1  C   UNL d   1      53.592  31.625  53.640  0.00  0.00     0.100 A 
ATOM      2  O   UNL d   1      52.920  32.142  53.599  0.00  0.00    -0.307 OA
ATOM      3  C   UNL d   1      54.237  32.057  53.662  0.00  0.00     0.027 A 
ATOM      4  C   UNL d   1      53.236  32.915  53.598  0.00  0.00     0.100 A 
ATOM      5  C   UNL d   1      54.043  32.847  53.637  0.00  0.00     0.027 A 
ENDROOT
BRANCH   4   6
ATOM      6  C   UNL d   1      52.871  33.654  53.566  0.00  0.00     0.028 C 
BRANCH   6   7
ATOM      7  C   UNL d   1      52.304  33.800  53.008  0.00  0.00     0.044 C 
BRANCH   7   8
ATOM      8  C   UNL d   1      51.810  34.456  53.086  0.00  0.00     0.196 C 
ATOM      9  O   UNL d   1      52.074  35.109  53.545  0.00  0.00    -0.287 OA
BRANCH   8  10
ATOM     10  C   UNL d   1      51.081  34.461  52.721  0.00  0.00     0.039 A 
ATOM     11  C   UNL d   1      51.003  34.295  51.908  0.00  0.00     0.003 A 
ATOM     12  C   UNL d   1      50.268  34.301  51.542  0.00  0.00     0.000 A 
ATOM     13  C   UNL d   1      49.591  34.476  51.990  0.00  0.00     0.000 A 
ATOM     14  C   UNL d   1      49.667  34.642  52.798  0.00  0.00     0.000 A 
ATOM     15  C   UNL d   1      50.400  34.632  53.148  0.00  0.00     0.003 A 
ENDBRANCH   8  10
ENDBRANCH   7   8
ENDBRANCH   6   7
ENDBRANCH   4   6
BRANCH   1  16
ATOM     16  C   UNL d   1      53.405  30.819  53.648  0.00  0.00     0.023 A 
ATOM     17  C   UNL d   1      53.071  30.464  52.967  0.00  0.00     0.002 A 
ATOM     18  C   UNL d   1      52.884  29.656  52.980  0.00  0.00     0.000 A 
ATOM     19  C   UNL d   1      53.025  29.215  53.643  0.00  0.00     0.000 A 
ATOM     20  C   UNL d   1      53.360  29.567  54.329  0.00  0.00     0.000 A 
ATOM     21  C   UNL d   1      53.546  30.376  54.316  0.00  0.00     0.002 A 
ENDBRANCH   1  16
TORSDOF 5
ENDMDL
MODEL 3
REMARK VINA RESULT:      -8.0      1.370      4.806
REMARK  5 active torsions:
REMARK  status: ('A' for Active; 'I' for Inactive)
REMARK    1  A    between atoms: C_9  and  C_1 
REMARK    2  A    between atoms: C_6  and  C_4 
REMARK    3  A    between atoms: C_5  and  C_6 
REMARK    4  A    between atoms: C_8  and  C_5 
REMARK    5  A    between atoms: C_11  and  C_8 
ROOT
ATOM      1  C   UNL d   1      53.570  32.663  53.839  0.00  0.00     0.100 A 
ATOM      2  O   UNL d   1      53.056  33.235  53.477  0.00  0.00    -0.307 OA
ATOM      3  C   UNL d   1      53.381  31.958  53.574  0.00  0.00     0.027 A 
ATOM      4  C   UNL d   1      52.552  32.794  52.978  0.00  0.00     0.100 A 
ATOM      5  C   UNL d   1      52.763  32.014  53.048  0.00  0.00     0.027 A 
ENDROOT
BRANCH   4   6
ATOM      6  C   UNL d   1      51.937  33.027  52.481  0.00  0.00     0.028 C 
BRANCH   6   7
ATOM      7  C   UNL d   1      51.442  33.626  52.704  0.00  0.00     0.044 C 
BRANCH   7   8
ATOM      8  C   UNL d   1      51.038  34.061  52.132  0.00  0.00     0.196 C 
ATOM      9  O   UNL d   1      51.385  34.150  51.371  0.00  0.00    -0.287 OA
BRANCH   8  10
ATOM     10  C   UNL d   1      50.316  34.395  52.309  0.00  0.00     0.039 A 
ATOM     11  C   UNL d   1      50.169  34.736  53.055  0.00  0.00     0.003 A 
ATOM     12  C   UNL d   1      49.441  35.072  53.232  0.00  0.00     0.000 A 
ATOM     13  C   UNL d   1      48.841  35.072  52.657  0.00  0.00     0.000 A 
ATOM     14  C   UNL d   1      48.986  34.734  51.915  0.00  0.00     0.000 A 
ATOM     15  C   UNL d   1      49.711  34.404  51.753  0.00  0.00     0.003 A 
ENDBRANCH   8  10
ENDBRANCH   7   8
ENDBRANCH   6   7
ENDBRANCH   4   6
BRANCH   1  16
ATOM     16  C   UNL d   1      54.124  32.983  54.363  0.00  0.00     0.023 A 
ATOM     17  C   UNL d   1      54.819  33.343  54.063  0.00  0.00     0.002 A 
ATOM     18  C   UNL d   1      55.371  33.663  54.594  0.00  0.00     0.000 A 
ATOM     19  C   UNL d   1      55.240  33.627  55.391  0.00  0.00     0.000 A 
ATOM     20  C   UNL d   1      54.544  33.267  55.696  0.00  0.00     0.000 A 
ATOM     21  C   UNL d   1      53.991  32.947  55.165  0.00  0.00     0.002 A 
ENDBRANCH   1  16
TORSDOF 5
ENDMDL
MODEL 4
REMARK VINA RESULT:      -7.8      1.714      2.504
REMARK  5 active torsions:
REMARK  status: ('A' for Active; 'I' for Inactive)
REMARK    1  A    between atoms: C_9  and  C_1 
REMARK    2  A    between atoms: C_6  and  C_4 
REMARK    3  A    between atoms: C_5  and  C_6 
REMARK    4  A    between atoms: C_8  and  C_5 
REMARK    5  A    between atoms: C_11  and  C_8 
ROOT
ATOM      1  C   UNL d   1      50.427  34.372  52.366  0.00  0.00     0.100 A 
ATOM      2  O   UNL d   1      50.645  33.844  52.995  0.00  0.00    -0.307 OA
ATOM      3  C   UNL d   1      51.000  34.383  51.841  0.00  0.00     0.027 A 
ATOM      4  C   UNL d   1      51.398  33.550  52.786  0.00  0.00     0.100 A 
ATOM      5  C   UNL d   1      51.603  33.889  52.077  0.00  0.00     0.027 A 
ENDROOT
BRANCH   4   6
ATOM      6  C   UNL d   1      51.902  33.020  53.166  0.00  0.00     0.028 C 
BRANCH   6   7
ATOM      7  C   UNL d   1      52.577  33.289  53.520  0.00  0.00     0.044 C 
BRANCH   7   8
ATOM      8  C   UNL d   1      53.118  32.753  53.836  0.00  0.00     0.196 C 
ATOM      9  O   UNL d   1      52.976  31.930  53.738  0.00  0.00    -0.287 OA
BRANCH   8  10
ATOM     10  C   UNL d   1      53.775  33.024  54.235  0.00  0.00     0.039 A 
ATOM     11  C   UNL d   1      53.726  33.279  55.026  0.00  0.00     0.003 A 
ATOM     12  C   UNL d   1      54.389  33.552  55.427  0.00  0.00     0.000 A 
ATOM     13  C   UNL d   1      55.121  33.574  55.035  0.00  0.00     0.000 A 
ATOM     14  C   UNL d   1      55.171  33.321  54.248  0.00  0.00     0.000 A 
ATOM     15  C   UNL d   1      54.508  33.053  53.864  0.00  0.00     0.003 A 
ENDBRANCH   8  10
ENDBRANCH   7   8
ENDBRANCH   6   7
ENDBRANCH   4   6
BRANCH   1  16
ATOM     16  C   UNL d   1      49.688  34.731  52.460  0.00  0.00     0.023 A 
ATOM     17  C   UNL d   1      49.125  34.692  51.841  0.00  0.00     0.002 A 
ATOM     18  C   UNL d   1      48.385  35.054  51.941  0.00  0.00     0.000 A 
ATOM     19  C   UNL d   1      48.209  35.441  52.629  0.00  0.00     0.000 A 
ATOM     20  C   UNL d   1      48.772  35.483  53.253  0.00  0.00     0.000 A 
ATOM     21  C   UNL d   1      49.512  35.121  53.153  0.00  0.00     0.002 A 
ENDBRANCH   1  16
TORSDOF 5
ENDMDL
MODEL 5
REMARK VINA RESULT:      -7.7      1.618      5.250
REMARK  5 active torsions:
REMARK  status: ('A' for Active; 'I' for Inactive)
REMARK    1  A    between atoms: C_9  and  C_1 
REMARK    2  A    between atoms: C_6  and  C_4 
REMARK    3  A    between atoms: C_5  and  C_6 
REMARK    4  A    between atoms: C_8  and  C_5 
REMARK    5  A    between atoms: C_11  and  C_8 
ROOT
ATOM      1  C   UNL d   1      52.587  33.952  53.420  0.00  0.00     0.100 A 
ATOM      2  O   UNL d   1      51.807  33.629  53.331  0.00  0.00    -0.307 OA
ATOM      3  C   UNL d   1      52.635  34.604  53.001  0.00  0.00     0.027 A 
ATOM      4  C   UNL d   1      51.407  34.155  52.820  0.00  0.00     0.100 A 
ATOM      5  C   UNL d   1      51.927  34.747  52.626  0.00  0.00     0.027 A 
ENDROOT
BRANCH   4   6
ATOM      6  C   UNL d   1      50.638  34.148  52.523  0.00  0.00     0.028 C 
BRANCH   6   7
ATOM      7  C   UNL d   1      50.099  34.691  52.787  0.00  0.00     0.044 C 
BRANCH   7   8
ATOM      8  C   UNL d   1      49.364  34.752  52.419  0.00  0.00     0.196 C 
ATOM      9  O   UNL d   1      49.196  34.254  51.763  0.00  0.00    -0.287 OA
BRANCH   8  10
ATOM     10  C   UNL d   1      48.815  35.289  52.694  0.00  0.00     0.039 A 
ATOM     11  C   UNL d   1      48.793  35.512  53.496  0.00  0.00     0.003 A 
ATOM     12  C   UNL d   1      48.240  36.053  53.771  0.00  0.00     0.000 A 
ATOM     13  C   UNL d   1      47.693  36.383  53.240  0.00  0.00     0.000 A 
ATOM     14  C   UNL d   1      47.714  36.162  52.442  0.00  0.00     0.000 A 
ATOM     15  C   UNL d   1      48.266  35.626  52.183  0.00  0.00     0.003 A 
ENDBRANCH   8  10
ENDBRANCH   7   8
ENDBRANCH   6   7
ENDBRANCH   4   6
BRANCH   1  16
ATOM     16  C   UNL d   1      53.086  33.512  53.912  0.00  0.00     0.023 A 
ATOM     17  C   UNL d   1      53.356  33.843  54.633  0.00  0.00     0.002 A 
ATOM     18  C   UNL d   1      53.856  33.397  55.122  0.00  0.00     0.000 A 
ATOM     19  C   UNL d   1      54.082  32.651  54.905  0.00  0.00     0.000 A 
ATOM     20  C   UNL d   1      53.813  32.315  54.182  0.00  0.00     0.000 A 
ATOM     21  C   UNL d   1      53.313  32.761  53.693  0.00  0.00     0.002 A 
ENDBRANCH   1  16
TORSDOF 5
ENDMDL
MODEL 6
REMARK VINA RESULT:      -7.7      1.844      2.631
REMARK  5 active torsions:
REMARK  status: ('A' for Active; 'I' for Inactive)
REMARK    1  A    between atoms: C_9  and  C_1 
REMARK    2  A    between atoms: C_6  and  C_4 
REMARK    3  A    between atoms: C_5  and  C_6 
REMARK    4  A    between atoms: C_8  and  C_5 
REMARK    5  A    between atoms: C_11  and  C_8 
ROOT
ATOM      1  C   UNL d   1      53.764  33.473  53.774  0.00  0.00     0.100 A 
ATOM      2  O   UNL d   1      53.214  32.832  53.677  0.00  0.00    -0.307 OA
ATOM      3  C   UNL d   1      54.472  33.223  53.576  0.00  0.00     0.027 A 
ATOM      4  C   UNL d   1      53.670  32.188  53.405  0.00  0.00     0.100 A 
ATOM      5  C   UNL d   1      54.439  32.442  53.348  0.00  0.00     0.027 A 
ENDROOT
BRANCH   4   6
ATOM      6  C   UNL d   1      53.461  31.415  53.210  0.00  0.00     0.028 C 
BRANCH   6   7
ATOM      7  C   UNL d   1      53.536  30.826  53.759  0.00  0.00     0.044 C 
BRANCH   7   8
ATOM      8  C   UNL d   1      53.204  30.085  53.616  0.00  0.00     0.196 C 
ATOM      9  O   UNL d   1      52.778  29.964  52.901  0.00  0.00    -0.287 OA
BRANCH   8  10
ATOM     10  C   UNL d   1      53.292  29.487  54.162  0.00  0.00     0.039 A 
ATOM     11  C   UNL d   1      53.718  28.794  53.980  0.00  0.00     0.003 A 
ATOM     12  C   UNL d   1      53.806  28.193  54.532  0.00  0.00     0.000 A 
ATOM     13  C   UNL d   1      53.464  28.276  55.284  0.00  0.00     0.000 A 
ATOM     14  C   UNL d   1      53.041  28.963  55.466  0.00  0.00     0.000 A 
ATOM     15  C   UNL d   1      52.961  29.552  54.911  0.00  0.00     0.003 A 
ENDBRANCH   8  10
ENDBRANCH   7   8
ENDBRANCH   6   7
ENDBRANCH   4   6
BRANCH   1  16
ATOM     16  C   UNL d   1      53.425  34.178  54.043  0.00  0.00     0.023 A 
ATOM     17  C   UNL d   1      52.971  34.647  53.519  0.00  0.00     0.002 A 
ATOM     18  C   UNL d   1      52.634  35.353  53.795  0.00  0.00     0.000 A 
ATOM     19  C   UNL d   1      52.743  35.586  54.562  0.00  0.00     0.000 A 
ATOM     20  C   UNL d   1      53.198  35.117  55.092  0.00  0.00     0.000 A 
ATOM     21  C   UNL d   1      53.536  34.411  54.816  0.00  0.00     0.002 A 
ENDBRANCH   1  16
TORSDOF 5
ENDMDL
MODEL 7
REMARK VINA RESULT:      -7.2      2.277      3.731
REMARK  5 active torsions:
REMARK  status: ('A' for Active; 'I' for Inactive)
REMARK    1  A    between atoms: C_9  and  C_1 
REMARK    2  A    between atoms: C_6  and  C_4 
REMARK    3  A    between atoms: C_5  and  C_6 
REMARK    4  A    between atoms: C_8  and  C_5 
REMARK    5  A    between atoms: C_11  and  C_8 
ROOT
ATOM      1  C   UNL d   1      48.656  35.216  52.196  0.00  0.00     0.100 A 
ATOM      2  O   UNL d   1      49.301  34.938  52.675  0.00  0.00    -0.307 OA
ATOM      3  C   UNL d   1      48.731  34.918  51.483  0.00  0.00     0.027 A 
ATOM      4  C   UNL d   1      49.756  34.452  52.171  0.00  0.00     0.100 A 
ATOM      5  C   UNL d   1      49.395  34.449  51.444  0.00  0.00     0.027 A 
ENDROOT
BRANCH   4   6
ATOM      6  C   UNL d   1      50.448  34.023  52.304  0.00  0.00     0.028 C 
BRANCH   6   7
ATOM      7  C   UNL d   1      51.042  34.346  52.748  0.00  0.00     0.044 C 
BRANCH   7   8
ATOM      8  C   UNL d   1      51.759  33.946  52.827  0.00  0.00     0.196 C 
ATOM      9  O   UNL d   1      51.927  33.309  52.304  0.00  0.00    -0.287 OA
BRANCH   8  10
ATOM     10  C   UNL d   1      52.289  34.171  53.404  0.00  0.00     0.039 A 
ATOM     11  C   UNL d   1      52.589  34.947  53.436  0.00  0.00     0.003 A 
ATOM     12  C   UNL d   1      53.122  35.173  54.018  0.00  0.00     0.000 A 
ATOM     13  C   UNL d   1      53.368  34.616  54.584  0.00  0.00     0.000 A 
ATOM     14  C   UNL d   1      53.071  33.844  54.553  0.00  0.00     0.000 A 
ATOM     15  C   UNL d   1      52.543  33.634  53.972  0.00  0.00     0.003 A 
ENDBRANCH   8  10
ENDBRANCH   7   8
ENDBRANCH   6   7
ENDBRANCH   4   6
BRANCH   1  16
ATOM     16  C   UNL d   1      48.127  35.715  52.590  0.00  0.00     0.023 A 
ATOM     17  C   UNL d   1      47.436  35.979  52.198  0.00  0.00     0.002 A 
ATOM     18  C   UNL d   1      46.908  36.480  52.598  0.00  0.00     0.000 A 
ATOM     19  C   UNL d   1      47.060  36.709  53.358  0.00  0.00     0.000 A 
ATOM     20  C   UNL d   1      47.753  36.446  53.756  0.00  0.00     0.000 A 
ATOM     21  C   UNL d   1      48.280  35.945  53.356  0.00  0.00     0.002 A 
ENDBRANCH   1  16
TORSDOF 5
ENDMDL
