MODEL 1
REMARK VINA RESULT:      30.7      0.000      0.000
REMARK  3 active torsions:
REMARK  status: ('A' for Active; 'I' for Inactive)
REMARK    1  A    between atoms: C_6  and  N_1 
REMARK    2  A    between atoms: C_11  and  C_6 
REMARK    3  A    between atoms: C_9  and  C_11 
ROOT
ATOM      1  N   UNL d   1      58.571  49.695  50.619  0.00  0.00    -0.240 N 
ATOM      2  C   UNL d   1      57.821  49.686  50.951  0.00  0.00     0.267 A 
ATOM      3  C   UNL d   1      58.480  49.696  49.801  0.00  0.00     0.267 A 
ATOM      4  C   UNL d   1      57.267  49.682  50.344  0.00  0.00     0.061 A 
ATOM      5  C   UNL d   1      57.677  49.688  49.628  0.00  0.00     0.061 A 
ATOM      6  O   UNL d   1      57.671  49.683  51.790  0.00  0.00    -0.267 OA
ATOM      7  O   UNL d   1      59.118  49.704  49.264  0.00  0.00    -0.267 OA
ATOM      8  C   UNL d   1      57.270  49.685  48.939  0.00  0.00     0.005 A 
ATOM      9  C   UNL d   1      56.457  49.673  50.359  0.00  0.00     0.005 A 
ATOM     10  C   UNL d   1      56.035  49.671  49.638  0.00  0.00     0.000 A 
ATOM     11  C   UNL d   1      56.445  49.677  48.922  0.00  0.00     0.000 A 
ENDROOT
BRANCH   1  12
ATOM     12  C   UNL d   1      59.287  49.701  51.029  0.00  0.00     0.086 C 
BRANCH  12  13
ATOM     13  C   UNL d   1      59.967  49.366  50.694  0.00  0.00     0.019 C 
BRANCH  13  14
ATOM     14  C   UNL d   1      60.633  49.251  51.167  0.00  0.00     0.002 A 
ATOM     15  C   UNL d   1      61.221  48.748  50.936  0.00  0.00     0.000 A 
ATOM     16  C   UNL d   1      61.896  48.633  51.418  0.00  0.00     0.000 A 
ATOM     17  C   UNL d   1      61.963  49.039  52.140  0.00  0.00     0.000 A 
ATOM     18  C   UNL d   1      61.371  49.540  52.366  0.00  0.00     0.000 A 
ATOM     19  C   UNL d   1      60.696  49.658  51.889  0.00  0.00     0.000 A 
ENDBRANCH  13  14
ENDBRANCH  12  13
ENDBRANCH   1  12
TORSDOF 3
ENDMDL
