MODEL 1
REMARK VINA RESULT:      -8.5      0.000      0.000
REMARK  6 active torsions:
REMARK  status: ('A' for Active; 'I' for Inactive)
REMARK    1  A    between atoms: C_2  and  N_1 
REMARK       I    between atoms: C_3  and  N_9 
REMARK    2  A    between atoms: C_5  and  C_3 
REMARK    3  A    between atoms: C_6  and  C_5 
REMARK    4  A    between atoms: C_7  and  C_6 
REMARK    5  A    between atoms: O_14  and  C_7 
REMARK    6  A    between atoms: N_9  and  C_11 
ROOT
ATOM      1  C   UNL d   1      52.625  31.903  53.047  0.00  0.00     0.258 C 
ATOM      2  N   UNL d   1      52.177  32.413  53.516  0.00  0.00    -0.321 N 
ATOM      3  O   UNL d   1      53.175  32.209  52.527  0.00  0.00    -0.267 OA
ATOM      4  H   UNL d   1      51.628  32.108  54.035  0.00  0.00     0.169 HD
ENDROOT
BRANCH   2   5
ATOM      5  C   UNL d   1      52.295  33.223  53.451  0.00  0.00     0.061 A 
ATOM      6  C   UNL d   1      52.739  33.620  54.038  0.00  0.00     0.041 A 
ATOM      7  C   UNL d   1      52.863  34.436  53.982  0.00  0.00     0.128 A 
ATOM      8  C   UNL d   1      52.545  34.853  53.343  0.00  0.00     0.024 A 
ATOM      9  C   UNL d   1      52.107  34.463  52.763  0.00  0.00     0.003 A 
ATOM     10  C   UNL d   1      51.985  33.659  52.819  0.00  0.00     0.017 A 
BRANCH   7  11
ATOM     11  N   UNL d   1      53.299  34.830  54.557  0.00  0.00    -0.114 N 
ATOM     12  O   UNL d   1      53.972  34.483  54.884  0.00  0.00    -0.532 OA
ATOM     13  O   UNL d   1      53.057  35.580  54.807  0.00  0.00    -0.532 OA
ENDBRANCH   7  11
ENDBRANCH   2   5
BRANCH   1  14
ATOM     14  C   UNL d   1      52.518  31.092  53.102  0.00  0.00     0.066 C 
BRANCH  14  15
ATOM     15  C   UNL d   1      53.148  30.619  53.319  0.00  0.00     0.073 C 
BRANCH  15  16
ATOM     16  C   UNL d   1      53.021  29.862  53.626  0.00  0.00     0.296 C 
ATOM     17  O   UNL d   1      52.521  29.337  53.233  0.00  0.00    -0.259 OA
BRANCH  16  18
ATOM     18  O   UNL d   1      53.395  29.641  54.324  0.00  0.00    -0.296 OA
ATOM     19  C   UNL d   1      53.409  28.847  54.556  0.00  0.00     0.185 C 
ENDBRANCH  16  18
ENDBRANCH  15  16
ENDBRANCH  14  15
ENDBRANCH   1  14
TORSDOF 6
ENDMDL
MODEL 2
REMARK VINA RESULT:      -7.7      2.274      3.778
REMARK  6 active torsions:
REMARK  status: ('A' for Active; 'I' for Inactive)
REMARK    1  A    between atoms: C_2  and  N_1 
REMARK       I    between atoms: C_3  and  N_9 
REMARK    2  A    between atoms: C_5  and  C_3 
REMARK    3  A    between atoms: C_6  and  C_5 
REMARK    4  A    between atoms: C_7  and  C_6 
REMARK    5  A    between atoms: O_14  and  C_7 
REMARK    6  A    between atoms: N_9  and  C_11 
ROOT
ATOM      1  C   UNL d   1      51.901  33.788  53.280  0.00  0.00     0.258 C 
ATOM      2  N   UNL d   1      52.166  33.151  53.732  0.00  0.00    -0.321 N 
ATOM      3  O   UNL d   1      52.441  34.274  52.908  0.00  0.00    -0.267 OA
ATOM      4  H   UNL d   1      51.626  32.666  54.103  0.00  0.00     0.169 HD
ENDROOT
BRANCH   2   5
ATOM      5  C   UNL d   1      52.973  33.018  53.800  0.00  0.00     0.061 A 
ATOM      6  C   UNL d   1      53.381  33.309  54.470  0.00  0.00     0.041 A 
ATOM      7  C   UNL d   1      54.194  33.180  54.549  0.00  0.00     0.128 A 
ATOM      8  C   UNL d   1      54.598  32.762  53.961  0.00  0.00     0.024 A 
ATOM      9  C   UNL d   1      54.198  32.475  53.300  0.00  0.00     0.003 A 
ATOM     10  C   UNL d   1      53.397  32.602  53.223  0.00  0.00     0.017 A 
BRANCH   7  11
ATOM     11  N   UNL d   1      54.597  33.464  55.206  0.00  0.00    -0.114 N 
ATOM     12  O   UNL d   1      55.019  34.172  55.166  0.00  0.00    -0.532 OA
ATOM     13  O   UNL d   1      54.577  33.034  55.913  0.00  0.00    -0.532 OA
ENDBRANCH   7  11
ENDBRANCH   2   5
BRANCH   1  14
ATOM     14  C   UNL d   1      51.097  33.932  53.204  0.00  0.00     0.066 C 
BRANCH  14  15
ATOM     15  C   UNL d   1      50.826  34.355  52.559  0.00  0.00     0.073 C 
BRANCH  15  16
ATOM     16  C   UNL d   1      50.018  34.498  52.458  0.00  0.00     0.296 C 
ATOM     17  O   UNL d   1      49.582  34.840  53.068  0.00  0.00    -0.259 OA
BRANCH  16  18
ATOM     18  O   UNL d   1      49.657  34.296  51.748  0.00  0.00    -0.296 OA
ATOM     19  C   UNL d   1      48.968  34.684  51.505  0.00  0.00     0.185 C 
ENDBRANCH  16  18
ENDBRANCH  15  16
ENDBRANCH  14  15
ENDBRANCH   1  14
TORSDOF 6
ENDMDL
MODEL 3
REMARK VINA RESULT:      -7.3      1.982      4.338
REMARK  6 active torsions:
REMARK  status: ('A' for Active; 'I' for Inactive)
REMARK    1  A    between atoms: C_2  and  N_1 
REMARK       I    between atoms: C_3  and  N_9 
REMARK    2  A    between atoms: C_5  and  C_3 
REMARK    3  A    between atoms: C_6  and  C_5 
REMARK    4  A    between atoms: C_7  and  C_6 
REMARK    5  A    between atoms: O_14  and  C_7 
REMARK    6  A    between atoms: N_9  and  C_11 
ROOT
ATOM      1  C   UNL d   1      51.851  33.499  53.104  0.00  0.00     0.258 C 
ATOM      2  N   UNL d   1      52.362  33.038  52.650  0.00  0.00    -0.321 N 
ATOM      3  O   UNL d   1      51.888  33.462  53.918  0.00  0.00    -0.267 OA
ATOM      4  H   UNL d   1      52.325  33.075  51.836  0.00  0.00     0.169 HD
ENDROOT
BRANCH   2   5
ATOM      5  C   UNL d   1      52.902  32.548  53.028  0.00  0.00     0.061 A 
ATOM      6  C   UNL d   1      52.778  31.720  53.019  0.00  0.00     0.041 A 
ATOM      7  C   UNL d   1      53.315  31.218  53.397  0.00  0.00     0.128 A 
ATOM      8  C   UNL d   1      53.973  31.540  53.781  0.00  0.00     0.024 A 
ATOM      9  C   UNL d   1      54.096  32.355  53.790  0.00  0.00     0.003 A 
ATOM     10  C   UNL d   1      53.566  32.850  53.418  0.00  0.00     0.017 A 
BRANCH   7  11
ATOM     11  N   UNL d   1      53.197  30.404  53.391  0.00  0.00    -0.114 N 
ATOM     12  O   UNL d   1      52.928  30.025  52.710  0.00  0.00    -0.532 OA
ATOM     13  O   UNL d   1      53.352  29.967  54.075  0.00  0.00    -0.532 OA
ENDBRANCH   7  11
ENDBRANCH   2   5
BRANCH   1  14
ATOM     14  C   UNL d   1      51.308  33.992  52.738  0.00  0.00     0.066 C 
BRANCH  14  15
ATOM     15  C   UNL d   1      50.579  34.113  53.088  0.00  0.00     0.073 C 
BRANCH  15  16
ATOM     16  C   UNL d   1      49.987  34.534  52.693  0.00  0.00     0.296 C 
ATOM     17  O   UNL d   1      49.861  34.410  51.888  0.00  0.00    -0.259 OA
BRANCH  16  18
ATOM     18  O   UNL d   1      49.528  35.074  53.110  0.00  0.00    -0.296 OA
ATOM     19  C   UNL d   1      48.816  35.349  52.793  0.00  0.00     0.185 C 
ENDBRANCH  16  18
ENDBRANCH  15  16
ENDBRANCH  14  15
ENDBRANCH   1  14
TORSDOF 6
ENDMDL
MODEL 4
REMARK VINA RESULT:      -7.2      1.459      4.511
REMARK  6 active torsions:
REMARK  status: ('A' for Active; 'I' for Inactive)
REMARK    1  A    between atoms: C_2  and  N_1 
REMARK       I    between atoms: C_3  and  N_9 
REMARK    2  A    between atoms: C_5  and  C_3 
REMARK    3  A    between atoms: C_6  and  C_5 
REMARK    4  A    between atoms: C_7  and  C_6 
REMARK    5  A    between atoms: O_14  and  C_7 
REMARK    6  A    between atoms: N_9  and  C_11 
ROOT
ATOM      1  C   UNL d   1      53.385  32.450  53.794  0.00  0.00     0.258 C 
ATOM      2  N   UNL d   1      53.862  31.784  53.700  0.00  0.00    -0.321 N 
ATOM      3  O   UNL d   1      52.574  32.380  53.732  0.00  0.00    -0.267 OA
ATOM      4  H   UNL d   1      54.672  31.854  53.762  0.00  0.00     0.169 HD
ENDROOT
BRANCH   2   5
ATOM      5  C   UNL d   1      53.510  31.059  53.544  0.00  0.00     0.061 A 
ATOM      6  C   UNL d   1      53.566  30.447  54.113  0.00  0.00     0.041 A 
ATOM      7  C   UNL d   1      53.216  29.713  53.966  0.00  0.00     0.128 A 
ATOM      8  C   UNL d   1      52.811  29.590  53.256  0.00  0.00     0.024 A 
ATOM      9  C   UNL d   1      52.755  30.191  52.695  0.00  0.00     0.003 A 
ATOM     10  C   UNL d   1      53.101  30.915  52.840  0.00  0.00     0.017 A 
BRANCH   7  11
ATOM     11  N   UNL d   1      53.269  29.109  54.522  0.00  0.00    -0.114 N 
ATOM     12  O   UNL d   1      52.929  29.196  55.269  0.00  0.00    -0.532 OA
ATOM     13  O   UNL d   1      53.668  28.411  54.327  0.00  0.00    -0.532 OA
ENDBRANCH   7  11
ENDBRANCH   2   5
BRANCH   1  14
ATOM     14  C   UNL d   1      53.724  33.180  53.950  0.00  0.00     0.066 C 
BRANCH  14  15
ATOM     15  C   UNL d   1      53.284  33.752  54.333  0.00  0.00     0.073 C 
BRANCH  15  16
ATOM     16  C   UNL d   1      53.629  34.469  54.560  0.00  0.00     0.296 C 
ATOM     17  O   UNL d   1      54.241  34.474  55.112  0.00  0.00    -0.259 OA
BRANCH  16  18
ATOM     18  O   UNL d   1      53.356  35.170  54.230  0.00  0.00    -0.296 OA
ATOM     19  C   UNL d   1      53.028  35.758  54.711  0.00  0.00     0.185 C 
ENDBRANCH  16  18
ENDBRANCH  15  16
ENDBRANCH  14  15
ENDBRANCH   1  14
TORSDOF 6
ENDMDL
MODEL 5
REMARK VINA RESULT:      -6.0      2.514      3.485
REMARK  6 active torsions:
REMARK  status: ('A' for Active; 'I' for Inactive)
REMARK    1  A    between atoms: C_2  and  N_1 
REMARK       I    between atoms: C_3  and  N_9 
REMARK    2  A    between atoms: C_5  and  C_3 
REMARK    3  A    between atoms: C_6  and  C_5 
REMARK    4  A    between atoms: C_7  and  C_6 
REMARK    5  A    between atoms: O_14  and  C_7 
REMARK    6  A    between atoms: N_9  and  C_11 
ROOT
ATOM      1  C   UNL d   1      52.404  34.053  53.865  0.00  0.00     0.258 C 
ATOM      2  N   UNL d   1      51.671  33.694  53.747  0.00  0.00    -0.321 N 
ATOM      3  O   UNL d   1      52.653  34.643  53.359  0.00  0.00    -0.267 OA
ATOM      4  H   UNL d   1      51.423  33.104  54.252  0.00  0.00     0.169 HD
ENDROOT
BRANCH   2   5
ATOM      5  C   UNL d   1      51.203  33.938  53.118  0.00  0.00     0.061 A 
ATOM      6  C   UNL d   1      50.497  34.360  53.273  0.00  0.00     0.041 A 
ATOM      7  C   UNL d   1      50.018  34.610  52.648  0.00  0.00     0.128 A 
ATOM      8  C   UNL d   1      50.243  34.440  51.870  0.00  0.00     0.024 A 
ATOM      9  C   UNL d   1      50.938  34.024  51.716  0.00  0.00     0.003 A 
ATOM     10  C   UNL d   1      51.409  33.778  52.333  0.00  0.00     0.017 A 
BRANCH   7  11
ATOM     11  N   UNL d   1      49.325  35.025  52.796  0.00  0.00    -0.114 N 
ATOM     12  O   UNL d   1      48.678  34.956  52.289  0.00  0.00    -0.532 OA
ATOM     13  O   UNL d   1      49.279  35.515  53.461  0.00  0.00    -0.532 OA
ENDBRANCH   7  11
ENDBRANCH   2   5
BRANCH   1  14
ATOM     14  C   UNL d   1      52.881  33.818  54.490  0.00  0.00     0.066 C 
BRANCH  14  15
ATOM     15  C   UNL d   1      53.683  33.725  54.366  0.00  0.00     0.073 C 
BRANCH  15  16
ATOM     16  C   UNL d   1      54.176  33.465  54.978  0.00  0.00     0.296 C 
ATOM     17  O   UNL d   1      54.102  32.697  55.267  0.00  0.00    -0.259 OA
BRANCH  16  18
ATOM     18  O   UNL d   1      54.737  33.978  55.291  0.00  0.00    -0.296 OA
ATOM     19  C   UNL d   1      55.543  33.805  55.226  0.00  0.00     0.185 C 
ENDBRANCH  16  18
ENDBRANCH  15  16
ENDBRANCH  14  15
ENDBRANCH   1  14
TORSDOF 6
ENDMDL
