MODEL 1
REMARK VINA RESULT:      37.1      0.000      0.000
REMARK  6 active torsions:
REMARK  status: ('A' for Active; 'I' for Inactive)
REMARK    1  A    between atoms: C_16  and  C_2 
REMARK    2  A    between atoms: C_11  and  C_7 
REMARK    3  A    between atoms: S_17  and  C_9 
REMARK    4  A    between atoms: O_20  and  C_11 
REMARK    5  A    between atoms: C_13  and  C_19 
REMARK    6  A    between atoms: C_19  and  S_17 
ROOT
ATOM      1  N   UNL d   1      13.347  13.077  -3.497  0.00  0.00    -0.191 N 
ATOM      2  C   UNL d   1      13.433  12.362  -3.105  0.00  0.00     0.187 A 
ATOM      3  N   UNL d   1      13.089  11.780  -3.570  0.00  0.00    -0.127 NA
ATOM      4  C   UNL d   1      12.953  12.952  -4.204  0.00  0.00     0.187 A 
ATOM      5  N   UNL d   1      13.587  13.855  -3.293  0.00  0.00    -0.156 NA
ATOM      6  N   UNL d   1      12.789  12.136  -4.252  0.00  0.00    -0.127 NA
ATOM      7  C   UNL d   1      13.426  14.485  -3.801  0.00  0.00     0.131 A 
ATOM      8  C   UNL d   1      12.792  13.582  -4.712  0.00  0.00     0.043 A 
ATOM      9  C   UNL d   1      13.028  14.347  -4.511  0.00  0.00     0.031 A 
ENDROOT
BRANCH   7  10
ATOM     10  S   UNL d   1      13.662  15.250  -3.600  0.00  0.00    -0.064 SA
BRANCH  10  11
ATOM     11  C   UNL d   1      14.463  15.434  -3.558  0.00  0.00     0.062 C 
BRANCH  11  12
ATOM     12  C   UNL d   1      14.731  15.952  -2.985  0.00  0.00     0.107 A 
ATOM     13  O   UNL d   1      14.705  15.827  -2.173  0.00  0.00    -0.301 OA
ATOM     14  C   UNL d   1      15.027  16.479  -1.798  0.00  0.00     0.163 A 
ATOM     15  C   UNL d   1      15.260  17.023  -2.379  0.00  0.00     0.032 A 
ATOM     16  C   UNL d   1      15.075  16.693  -3.112  0.00  0.00     0.027 A 
BRANCH  14  17
ATOM     17  C   UNL d   1      15.112  16.589  -0.988  0.00  0.00     0.319 C 
ATOM     18  O   UNL d   1      15.214  17.345  -0.664  0.00  0.00    -0.257 OA
BRANCH  17  19
ATOM     19  O   UNL d   1      15.096  15.937  -0.482  0.00  0.00    -0.294 OA
ATOM     20  C   UNL d   1      15.790  15.650  -0.137  0.00  0.00     0.185 C 
ENDBRANCH  17  19
ENDBRANCH  14  17
ENDBRANCH  11  12
ENDBRANCH  10  11
ENDBRANCH   7  10
BRANCH   2  21
ATOM     21  C   UNL d   1      13.795  12.241  -2.380  0.00  0.00     0.038 A 
ATOM     22  C   UNL d   1      14.585  12.464  -2.279  0.00  0.00     0.003 A 
ATOM     23  C   UNL d   1      14.956  12.344  -1.547  0.00  0.00     0.000 A 
ATOM     24  C   UNL d   1      14.534  12.003  -0.926  0.00  0.00     0.000 A 
ATOM     25  C   UNL d   1      13.743  11.780  -1.028  0.00  0.00     0.000 A 
ATOM     26  C   UNL d   1      13.380  11.903  -1.761  0.00  0.00     0.003 A 
ENDBRANCH   2  21
TORSDOF 6
ENDMDL
MODEL 2
REMARK VINA RESULT:      37.1      2.141      4.374
REMARK  6 active torsions:
REMARK  status: ('A' for Active; 'I' for Inactive)
REMARK    1  A    between atoms: C_16  and  C_2 
REMARK    2  A    between atoms: C_11  and  C_7 
REMARK    3  A    between atoms: S_17  and  C_9 
REMARK    4  A    between atoms: O_20  and  C_11 
REMARK    5  A    between atoms: C_13  and  C_19 
REMARK    6  A    between atoms: C_19  and  S_17 
ROOT
ATOM      1  N   UNL d   1      14.941  13.277  -0.769  0.00  0.00    -0.191 N 
ATOM      2  C   UNL d   1      15.364  13.938  -0.532  0.00  0.00     0.187 A 
ATOM      3  N   UNL d   1      15.989  13.681  -0.067  0.00  0.00    -0.127 NA
ATOM      4  C   UNL d   1      15.292  12.606  -0.458  0.00  0.00     0.187 A 
ATOM      5  N   UNL d   1      14.255  13.198  -1.246  0.00  0.00    -0.156 NA
ATOM      6  N   UNL d   1      15.952  12.857  -0.016  0.00  0.00    -0.127 NA
ATOM      7  C   UNL d   1      13.941  12.450  -1.399  0.00  0.00     0.131 A 
ATOM      8  C   UNL d   1      14.978  11.858  -0.610  0.00  0.00     0.043 A 
ATOM      9  C   UNL d   1      14.303  11.780  -1.080  0.00  0.00     0.031 A 
ENDROOT
BRANCH   7  10
ATOM     10  S   UNL d   1      13.266  12.372  -1.868  0.00  0.00    -0.064 SA
BRANCH  10  11
ATOM     11  C   UNL d   1      13.274  11.867  -2.518  0.00  0.00     0.062 C 
BRANCH  11  12
ATOM     12  C   UNL d   1      13.182  12.173  -3.271  0.00  0.00     0.107 A 
ATOM     13  O   UNL d   1      13.417  12.920  -3.519  0.00  0.00    -0.301 OA
ATOM     14  C   UNL d   1      13.223  13.006  -4.309  0.00  0.00     0.163 A 
ATOM     15  C   UNL d   1      12.861  12.304  -4.564  0.00  0.00     0.032 A 
ATOM     16  C   UNL d   1      12.838  11.792  -3.918  0.00  0.00     0.027 A 
BRANCH  14  17
ATOM     17  C   UNL d   1      13.358  13.665  -4.780  0.00  0.00     0.319 C 
ATOM     18  O   UNL d   1      13.472  13.594  -5.599  0.00  0.00    -0.257 OA
BRANCH  17  19
ATOM     19  O   UNL d   1      13.380  14.416  -4.438  0.00  0.00    -0.294 OA
ATOM     20  C   UNL d   1      13.021  15.063  -4.808  0.00  0.00     0.185 C 
ENDBRANCH  17  19
ENDBRANCH  14  17
ENDBRANCH  11  12
ENDBRANCH  10  11
ENDBRANCH   7  10
BRANCH   2  21
ATOM     21  C   UNL d   1      15.200  14.718  -0.721  0.00  0.00     0.038 A 
ATOM     22  C   UNL d   1      15.604  15.325  -0.329  0.00  0.00     0.003 A 
ATOM     23  C   UNL d   1      15.442  16.115  -0.517  0.00  0.00     0.000 A 
ATOM     24  C   UNL d   1      14.878  16.291  -1.092  0.00  0.00     0.000 A 
ATOM     25  C   UNL d   1      14.473  15.685  -1.484  0.00  0.00     0.000 A 
ATOM     26  C   UNL d   1      14.641  14.898  -1.292  0.00  0.00     0.003 A 
ENDBRANCH   2  21
TORSDOF 6
ENDMDL
MODEL 3
REMARK VINA RESULT:      37.6      1.634      3.490
REMARK  6 active torsions:
REMARK  status: ('A' for Active; 'I' for Inactive)
REMARK    1  A    between atoms: C_16  and  C_2 
REMARK    2  A    between atoms: C_11  and  C_7 
REMARK    3  A    between atoms: S_17  and  C_9 
REMARK    4  A    between atoms: O_20  and  C_11 
REMARK    5  A    between atoms: C_13  and  C_19 
REMARK    6  A    between atoms: C_19  and  S_17 
ROOT
ATOM      1  N   UNL d   1      13.403  13.501  -4.055  0.00  0.00    -0.191 N 
ATOM      2  C   UNL d   1      13.484  14.299  -4.221  0.00  0.00     0.187 A 
ATOM      3  N   UNL d   1      13.141  14.439  -4.953  0.00  0.00    -0.127 NA
ATOM      4  C   UNL d   1      13.012  13.135  -4.675  0.00  0.00     0.187 A 
ATOM      5  N   UNL d   1      13.644  13.043  -3.394  0.00  0.00    -0.156 NA
ATOM      6  N   UNL d   1      12.846  13.723  -5.241  0.00  0.00    -0.127 NA
ATOM      7  C   UNL d   1      13.487  12.233  -3.372  0.00  0.00     0.131 A 
ATOM      8  C   UNL d   1      12.856  12.325  -4.653  0.00  0.00     0.043 A 
ATOM      9  C   UNL d   1      13.093  11.875  -4.002  0.00  0.00     0.031 A 
ENDROOT
BRANCH   7  10
ATOM     10  S   UNL d   1      13.725  11.783  -2.722  0.00  0.00    -0.064 SA
BRANCH  10  11
ATOM     11  C   UNL d   1      13.314  11.841  -2.011  0.00  0.00     0.062 C 
BRANCH  11  12
ATOM     12  C   UNL d   1      13.720  12.003  -1.320  0.00  0.00     0.107 A 
ATOM     13  O   UNL d   1      14.498  12.260  -1.268  0.00  0.00    -0.301 OA
ATOM     14  C   UNL d   1      14.690  12.355  -0.478  0.00  0.00     0.163 A 
ATOM     15  C   UNL d   1      14.024  12.156  -0.025  0.00  0.00     0.032 A 
ATOM     16  C   UNL d   1      13.426  11.939  -0.550  0.00  0.00     0.027 A 
BRANCH  14  17
ATOM     17  C   UNL d   1      15.411  12.604  -0.173  0.00  0.00     0.319 C 
ATOM     18  O   UNL d   1      16.023  12.066  -0.019  0.00  0.00    -0.257 OA
BRANCH  17  19
ATOM     19  O   UNL d   1      15.535  13.404  -0.014  0.00  0.00    -0.294 OA
ATOM     20  C   UNL d   1      16.147  13.821  -0.384  0.00  0.00     0.185 C 
ENDBRANCH  17  19
ENDBRANCH  14  17
ENDBRANCH  11  12
ENDBRANCH  10  11
ENDBRANCH   7  10
BRANCH   2  21
ATOM     21  C   UNL d   1      13.842  14.864  -3.747  0.00  0.00     0.038 A 
ATOM     22  C   UNL d   1      14.156  15.546  -4.095  0.00  0.00     0.003 A 
ATOM     23  C   UNL d   1      14.518  16.121  -3.620  0.00  0.00     0.000 A 
ATOM     24  C   UNL d   1      14.564  16.007  -2.804  0.00  0.00     0.000 A 
ATOM     25  C   UNL d   1      14.250  15.325  -2.457  0.00  0.00     0.000 A 
ATOM     26  C   UNL d   1      13.889  14.756  -2.937  0.00  0.00     0.003 A 
ENDBRANCH   2  21
TORSDOF 6
ENDMDL
MODEL 4
REMARK VINA RESULT:      40.0      2.156      3.990
REMARK  6 active torsions:
REMARK  status: ('A' for Active; 'I' for Inactive)
REMARK    1  A    between atoms: C_16  and  C_2 
REMARK    2  A    between atoms: C_11  and  C_7 
REMARK    3  A    between atoms: S_17  and  C_9 
REMARK    4  A    between atoms: O_20  and  C_11 
REMARK    5  A    between atoms: C_13  and  C_19 
REMARK    6  A    between atoms: C_19  and  S_17 
ROOT
ATOM      1  N   UNL d   1      14.935  15.204  -1.233  0.00  0.00    -0.191 N 
ATOM      2  C   UNL d   1      15.102  14.783  -0.550  0.00  0.00     0.187 A 
ATOM      3  N   UNL d   1      15.445  15.300  -0.014  0.00  0.00    -0.127 NA
ATOM      4  C   UNL d   1      15.169  15.983  -1.133  0.00  0.00     0.187 A 
ATOM      5  N   UNL d   1      14.586  14.970  -1.959  0.00  0.00    -0.156 NA
ATOM      6  N   UNL d   1      15.490  16.046  -0.367  0.00  0.00    -0.127 NA
ATOM      7  C   UNL d   1      14.481  15.521  -2.565  0.00  0.00     0.131 A 
ATOM      8  C   UNL d   1      15.064  16.534  -1.738  0.00  0.00     0.043 A 
ATOM      9  C   UNL d   1      14.721  16.303  -2.453  0.00  0.00     0.031 A 
ENDROOT
BRANCH   7  10
ATOM     10  S   UNL d   1      14.138  15.290  -3.280  0.00  0.00    -0.064 SA
BRANCH  10  11
ATOM     11  C   UNL d   1      13.415  14.897  -3.279  0.00  0.00     0.062 C 
BRANCH  11  12
ATOM     12  C   UNL d   1      13.286  14.286  -3.807  0.00  0.00     0.107 A 
ATOM     13  O   UNL d   1      13.389  13.486  -3.652  0.00  0.00    -0.301 OA
ATOM     14  C   UNL d   1      13.200  13.063  -4.326  0.00  0.00     0.163 A 
ATOM     15  C   UNL d   1      12.975  13.602  -4.916  0.00  0.00     0.032 A 
ATOM     16  C   UNL d   1      13.030  14.358  -4.590  0.00  0.00     0.027 A 
BRANCH  14  17
ATOM     17  C   UNL d   1      13.225  12.246  -4.418  0.00  0.00     0.319 C 
ATOM     18  O   UNL d   1      12.900  11.878  -5.087  0.00  0.00    -0.257 OA
BRANCH  17  19
ATOM     19  O   UNL d   1      13.579  11.779  -3.838  0.00  0.00    -0.294 OA
ATOM     20  C   UNL d   1      13.345  11.835  -3.046  0.00  0.00     0.185 C 
ENDBRANCH  17  19
ENDBRANCH  14  17
ENDBRANCH  11  12
ENDBRANCH  10  11
ENDBRANCH   7  10
BRANCH   2  21
ATOM     21  C   UNL d   1      14.957  13.987  -0.418  0.00  0.00     0.038 A 
ATOM     22  C   UNL d   1      14.202  13.746  -0.179  0.00  0.00     0.003 A 
ATOM     23  C   UNL d   1      14.050  12.943  -0.044  0.00  0.00     0.000 A 
ATOM     24  C   UNL d   1      14.653  12.389  -0.149  0.00  0.00     0.000 A 
ATOM     25  C   UNL d   1      15.408  12.630  -0.388  0.00  0.00     0.000 A 
ATOM     26  C   UNL d   1      15.552  13.434  -0.521  0.00  0.00     0.003 A 
ENDBRANCH   2  21
TORSDOF 6
ENDMDL
