MODEL 1
REMARK VINA RESULT:      -3.3      0.000      0.000
REMARK  5 active torsions:
REMARK  status: ('A' for Active; 'I' for Inactive)
REMARK    1  A    between atoms: C_20  and  C_3 
REMARK    2  A    between atoms: C_6  and  C_8 
REMARK       I    between atoms: C_8  and  N_17 
REMARK    3  A    between atoms: N_17  and  C_21 
REMARK    4  A    between atoms: O_22  and  C_18 
REMARK    5  A    between atoms: C_21  and  C_20 
ROOT
ATOM      1  N   UNL d   1      32.863  19.018 -24.389  0.00  0.00    -0.208 NA
ATOM      2  C   UNL d   1      33.049  19.674 -23.923  0.00  0.00     0.279 A 
ATOM      3  C   UNL d   1      33.056  19.605 -23.093  0.00  0.00     0.059 A 
ATOM      4  C   UNL d   1      32.682  18.289 -24.026  0.00  0.00     0.087 A 
ATOM      5  C   UNL d   1      32.877  18.881 -22.738  0.00  0.00     0.006 A 
ATOM      6  C   UNL d   1      32.691  18.229 -23.203  0.00  0.00     0.018 A 
ATOM      7  C   UNL d   1      32.497  17.638 -24.500  0.00  0.00     0.043 A 
ATOM      8  O   UNL d   1      33.227  20.394 -24.278  0.00  0.00    -0.265 OA
ATOM      9  C   UNL d   1      32.511  17.501 -22.849  0.00  0.00     0.004 A 
ATOM     10  C   UNL d   1      32.319  16.917 -24.145  0.00  0.00     0.096 A 
ATOM     11  C   UNL d   1      32.326  16.849 -23.315  0.00  0.00     0.024 A 
ENDROOT
BRANCH   3  12
ATOM     12  C   UNL d   1      33.241  20.258 -22.635  0.00  0.00     0.026 C 
BRANCH  12  13
ATOM     13  C   UNL d   1      32.793  20.451 -21.976  0.00  0.00     0.102 C 
BRANCH  13  14
ATOM     14  N   UNL d   1      32.955  21.127 -21.532  0.00  0.00    -0.206 NA
ATOM     15  C   UNL d   1      32.381  21.446 -21.033  0.00  0.00     0.285 C 
ATOM     16  O   UNL d   1      31.643  21.094 -20.972  0.00  0.00    -0.265 OA
BRANCH  15  17
ATOM     17  C   UNL d   1      32.553  22.124 -20.592  0.00  0.00     0.087 A 
ATOM     18  S   UNL d   1      32.489  22.895 -20.854  0.00  0.00    -0.082 SA
ATOM     19  C   UNL d   1      32.708  23.397 -20.256  0.00  0.00     0.036 A 
ATOM     20  C   UNL d   1      32.915  22.933 -19.601  0.00  0.00     0.008 A 
ATOM     21  C   UNL d   1      32.818  22.142 -19.811  0.00  0.00     0.012 A 
ENDBRANCH  15  17
ENDBRANCH  13  14
ENDBRANCH  12  13
ENDBRANCH   3  12
BRANCH  10  22
ATOM     22  O   UNL d   1      32.133  16.264 -24.611  0.00  0.00    -0.328 OA
ATOM     23  C   UNL d   1      31.608  15.696 -24.331  0.00  0.00     0.181 C 
ENDBRANCH  10  22
TORSDOF 5
ENDMDL
MODEL 2
REMARK VINA RESULT:      -2.7      1.886      5.281
REMARK  5 active torsions:
REMARK  status: ('A' for Active; 'I' for Inactive)
REMARK    1  A    between atoms: C_20  and  C_3 
REMARK    2  A    between atoms: C_6  and  C_8 
REMARK       I    between atoms: C_8  and  N_17 
REMARK    3  A    between atoms: N_17  and  C_21 
REMARK    4  A    between atoms: O_22  and  C_18 
REMARK    5  A    between atoms: C_21  and  C_20 
ROOT
ATOM      1  N   UNL d   1      33.235  21.451 -22.870  0.00  0.00    -0.208 NA
ATOM      2  C   UNL d   1      33.238  20.782 -23.355  0.00  0.00     0.279 A 
ATOM      3  C   UNL d   1      33.238  20.022 -23.014  0.00  0.00     0.059 A 
ATOM      4  C   UNL d   1      33.232  21.362 -22.041  0.00  0.00     0.087 A 
ATOM      5  C   UNL d   1      33.236  19.939 -22.192  0.00  0.00     0.006 A 
ATOM      6  C   UNL d   1      33.233  20.606 -21.711  0.00  0.00     0.018 A 
ATOM      7  C   UNL d   1      33.230  22.037 -21.563  0.00  0.00     0.043 A 
ATOM      8  O   UNL d   1      33.240  20.867 -24.173  0.00  0.00    -0.265 OA
ATOM      9  C   UNL d   1      33.230  20.525 -20.885  0.00  0.00     0.004 A 
ATOM     10  C   UNL d   1      33.227  21.952 -20.745  0.00  0.00     0.096 A 
ATOM     11  C   UNL d   1      33.228  21.192 -20.404  0.00  0.00     0.024 A 
ENDROOT
BRANCH   3  12
ATOM     12  C   UNL d   1      33.241  19.362 -23.498  0.00  0.00     0.026 C 
BRANCH  12  13
ATOM     13  C   UNL d   1      32.647  18.800 -23.447  0.00  0.00     0.102 C 
BRANCH  13  14
ATOM     14  N   UNL d   1      32.793  18.007 -23.623  0.00  0.00    -0.206 NA
ATOM     15  C   UNL d   1      32.172  17.504 -23.830  0.00  0.00     0.285 C 
ATOM     16  O   UNL d   1      31.403  17.788 -23.863  0.00  0.00    -0.265 OA
BRANCH  15  17
ATOM     17  C   UNL d   1      32.327  16.712 -24.006  0.00  0.00     0.087 A 
ATOM     18  S   UNL d   1      32.126  16.325 -24.696  0.00  0.00    -0.082 SA
ATOM     19  C   UNL d   1      32.376  15.555 -24.651  0.00  0.00     0.036 A 
ATOM     20  C   UNL d   1      32.744  15.453 -23.915  0.00  0.00     0.008 A 
ATOM     21  C   UNL d   1      32.713  16.172 -23.515  0.00  0.00     0.012 A 
ENDBRANCH  15  17
ENDBRANCH  13  14
ENDBRANCH  12  13
ENDBRANCH   3  12
BRANCH  10  22
ATOM     22  O   UNL d   1      33.224  22.620 -20.263  0.00  0.00    -0.328 OA
ATOM     23  C   UNL d   1      32.691  22.674 -19.640  0.00  0.00     0.181 C 
ENDBRANCH  10  22
TORSDOF 5
ENDMDL
MODEL 3
REMARK VINA RESULT:      -2.4      1.843      5.526
REMARK  5 active torsions:
REMARK  status: ('A' for Active; 'I' for Inactive)
REMARK    1  A    between atoms: C_20  and  C_3 
REMARK    2  A    between atoms: C_6  and  C_8 
REMARK       I    between atoms: C_8  and  N_17 
REMARK    3  A    between atoms: N_17  and  C_21 
REMARK    4  A    between atoms: O_22  and  C_18 
REMARK    5  A    between atoms: C_21  and  C_20 
ROOT
ATOM      1  N   UNL d   1      32.510  22.749 -21.484  0.00  0.00    -0.208 NA
ATOM      2  C   UNL d   1      32.688  22.165 -22.041  0.00  0.00     0.279 A 
ATOM      3  C   UNL d   1      33.054  21.457 -21.798  0.00  0.00     0.059 A 
ATOM      4  C   UNL d   1      32.696  22.626 -20.681  0.00  0.00     0.087 A 
ATOM      5  C   UNL d   1      33.237  21.340 -21.001  0.00  0.00     0.006 A 
ATOM      6  C   UNL d   1      33.058  21.923 -20.448  0.00  0.00     0.018 A 
ATOM      7  C   UNL d   1      32.514  23.215 -20.130  0.00  0.00     0.043 A 
ATOM      8  O   UNL d   1      32.506  22.283 -22.834  0.00  0.00    -0.265 OA
ATOM      9  C   UNL d   1      33.241  21.807 -19.647  0.00  0.00     0.004 A 
ATOM     10  C   UNL d   1      32.697  23.097 -19.337  0.00  0.00     0.096 A 
ATOM     11  C   UNL d   1      33.062  22.389 -19.094  0.00  0.00     0.024 A 
ENDROOT
BRANCH   3  12
ATOM     12  C   UNL d   1      33.229  20.882 -22.353  0.00  0.00     0.026 C 
BRANCH  12  13
ATOM     13  C   UNL d   1      33.105  20.088 -22.190  0.00  0.00     0.102 C 
BRANCH  13  14
ATOM     14  N   UNL d   1      32.833  19.570 -22.772  0.00  0.00    -0.206 NA
ATOM     15  C   UNL d   1      32.900  18.754 -22.668  0.00  0.00     0.285 C 
ATOM     16  O   UNL d   1      33.238  18.450 -21.986  0.00  0.00    -0.265 OA
BRANCH  15  17
ATOM     17  C   UNL d   1      32.624  18.243 -23.257  0.00  0.00     0.087 A 
ATOM     18  S   UNL d   1      32.749  17.436 -23.288  0.00  0.00    -0.082 SA
ATOM     19  C   UNL d   1      32.389  17.138 -23.950  0.00  0.00     0.036 A 
ATOM     20  C   UNL d   1      32.028  17.771 -24.347  0.00  0.00     0.008 A 
ATOM     21  C   UNL d   1      32.175  18.457 -23.915  0.00  0.00     0.012 A 
ENDBRANCH  15  17
ENDBRANCH  13  14
ENDBRANCH  12  13
ENDBRANCH   3  12
BRANCH  10  22
ATOM     22  O   UNL d   1      32.518  23.680 -18.783  0.00  0.00    -0.328 OA
ATOM     23  C   UNL d   1      32.486  23.490 -17.983  0.00  0.00     0.181 C 
ENDBRANCH  10  22
TORSDOF 5
ENDMDL
MODEL 4
REMARK VINA RESULT:      -2.1      1.249      1.770
REMARK  5 active torsions:
REMARK  status: ('A' for Active; 'I' for Inactive)
REMARK    1  A    between atoms: C_20  and  C_3 
REMARK    2  A    between atoms: C_6  and  C_8 
REMARK       I    between atoms: C_8  and  N_17 
REMARK    3  A    between atoms: N_17  and  C_21 
REMARK    4  A    between atoms: O_22  and  C_18 
REMARK    5  A    between atoms: C_21  and  C_20 
ROOT
ATOM      1  N   UNL d   1      31.669  17.917 -24.750  0.00  0.00    -0.208 NA
ATOM      2  C   UNL d   1      32.231  18.450 -24.461  0.00  0.00     0.279 A 
ATOM      3  C   UNL d   1      32.644  18.278 -23.759  0.00  0.00     0.059 A 
ATOM      4  C   UNL d   1      31.518  17.210 -24.336  0.00  0.00     0.087 A 
ATOM      5  C   UNL d   1      32.491  17.575 -23.353  0.00  0.00     0.006 A 
ATOM      6  C   UNL d   1      31.931  17.046 -23.641  0.00  0.00     0.018 A 
ATOM      7  C   UNL d   1      30.954  16.682 -24.632  0.00  0.00     0.043 A 
ATOM      8  O   UNL d   1      32.382  19.149 -24.868  0.00  0.00    -0.265 OA
ATOM      9  C   UNL d   1      31.775  16.340 -23.235  0.00  0.00     0.004 A 
ATOM     10  C   UNL d   1      30.802  15.983 -24.226  0.00  0.00     0.096 A 
ATOM     11  C   UNL d   1      31.216  15.811 -23.523  0.00  0.00     0.024 A 
ENDROOT
BRANCH   3  12
ATOM     12  C   UNL d   1      33.200  18.808 -23.477  0.00  0.00     0.026 C 
BRANCH  12  13
ATOM     13  C   UNL d   1      33.205  19.033 -22.689  0.00  0.00     0.102 C 
BRANCH  13  14
ATOM     14  N   UNL d   1      33.197  19.830 -22.472  0.00  0.00    -0.206 NA
ATOM     15  C   UNL d   1      33.214  20.046 -21.676  0.00  0.00     0.285 C 
ATOM     16  O   UNL d   1      33.240  19.471 -21.092  0.00  0.00    -0.265 OA
BRANCH  15  17
ATOM     17  C   UNL d   1      33.206  20.846 -21.469  0.00  0.00     0.087 A 
ATOM     18  S   UNL d   1      33.201  21.144 -20.708  0.00  0.00    -0.082 SA
ATOM     19  C   UNL d   1      33.193  21.954 -20.741  0.00  0.00     0.036 A 
ATOM     20  C   UNL d   1      33.193  22.173 -21.541  0.00  0.00     0.008 A 
ATOM     21  C   UNL d   1      33.200  21.483 -21.992  0.00  0.00     0.012 A 
ENDBRANCH  15  17
ENDBRANCH  13  14
ENDBRANCH  12  13
ENDBRANCH   3  12
BRANCH  10  22
ATOM     22  O   UNL d   1      30.242  15.453 -24.515  0.00  0.00    -0.328 OA
ATOM     23  C   UNL d   1      29.527  15.733 -24.811  0.00  0.00     0.181 C 
ENDBRANCH  10  22
TORSDOF 5
ENDMDL
MODEL 5
REMARK VINA RESULT:      -1.3      1.949      3.276
REMARK  5 active torsions:
REMARK  status: ('A' for Active; 'I' for Inactive)
REMARK    1  A    between atoms: C_20  and  C_3 
REMARK    2  A    between atoms: C_6  and  C_8 
REMARK       I    between atoms: C_8  and  N_17 
REMARK    3  A    between atoms: N_17  and  C_21 
REMARK    4  A    between atoms: O_22  and  C_18 
REMARK    5  A    between atoms: C_21  and  C_20 
ROOT
ATOM      1  N   UNL d   1      33.014  21.859 -22.388  0.00  0.00    -0.208 NA
ATOM      2  C   UNL d   1      33.056  22.392 -21.758  0.00  0.00     0.279 A 
ATOM      3  C   UNL d   1      33.078  22.108 -20.975  0.00  0.00     0.059 A 
ATOM      4  C   UNL d   1      32.994  21.040 -22.238  0.00  0.00     0.087 A 
ATOM      5  C   UNL d   1      33.058  21.294 -20.831  0.00  0.00     0.006 A 
ATOM      6  C   UNL d   1      33.016  20.766 -21.460  0.00  0.00     0.018 A 
ATOM      7  C   UNL d   1      32.952  20.514 -22.875  0.00  0.00     0.043 A 
ATOM      8  O   UNL d   1      33.076  23.201 -21.903  0.00  0.00    -0.265 OA
ATOM      9  C   UNL d   1      32.996  19.949 -21.318  0.00  0.00     0.004 A 
ATOM     10  C   UNL d   1      32.932  19.705 -22.729  0.00  0.00     0.096 A 
ATOM     11  C   UNL d   1      32.954  19.420 -21.947  0.00  0.00     0.024 A 
ENDROOT
BRANCH   3  12
ATOM     12  C   UNL d   1      33.120  22.639 -20.353  0.00  0.00     0.026 C 
BRANCH  12  13
ATOM     13  C   UNL d   1      33.239  22.379 -19.585  0.00  0.00     0.102 C 
BRANCH  13  14
ATOM     14  N   UNL d   1      33.001  22.834 -18.939  0.00  0.00    -0.206 NA
ATOM     15  C   UNL d   1      32.992  22.508 -18.181  0.00  0.00     0.285 C 
ATOM     16  O   UNL d   1      33.220  21.729 -18.061  0.00  0.00    -0.265 OA
BRANCH  15  17
ATOM     17  C   UNL d   1      32.752  22.971 -17.539  0.00  0.00     0.087 A 
ATOM     18  S   UNL d   1      33.240  23.278 -16.960  0.00  0.00    -0.082 SA
ATOM     19  C   UNL d   1      32.792  23.698 -16.432  0.00  0.00     0.036 A 
ATOM     20  C   UNL d   1      32.003  23.657 -16.682  0.00  0.00     0.008 A 
ATOM     21  C   UNL d   1      31.980  23.205 -17.371  0.00  0.00     0.012 A 
ENDBRANCH  15  17
ENDBRANCH  13  14
ENDBRANCH  12  13
ENDBRANCH   3  12
BRANCH  10  22
ATOM     22  O   UNL d   1      32.890  19.175 -23.359  0.00  0.00    -0.328 OA
ATOM     23  C   UNL d   1      32.636  18.403 -23.230  0.00  0.00     0.181 C 
ENDBRANCH  10  22
TORSDOF 5
ENDMDL
MODEL 6
REMARK VINA RESULT:      -0.9      2.720      4.379
REMARK  5 active torsions:
REMARK  status: ('A' for Active; 'I' for Inactive)
REMARK    1  A    between atoms: C_20  and  C_3 
REMARK    2  A    between atoms: C_6  and  C_8 
REMARK       I    between atoms: C_8  and  N_17 
REMARK    3  A    between atoms: N_17  and  C_21 
REMARK    4  A    between atoms: O_22  and  C_18 
REMARK    5  A    between atoms: C_21  and  C_20 
ROOT
ATOM      1  N   UNL d   1      29.904  15.467 -24.335  0.00  0.00    -0.208 NA
ATOM      2  C   UNL d   1      30.580  15.878 -24.571  0.00  0.00     0.279 A 
ATOM      3  C   UNL d   1      30.624  16.703 -24.463  0.00  0.00     0.059 A 
ATOM      4  C   UNL d   1      29.268  15.879 -23.989  0.00  0.00     0.087 A 
ATOM      5  C   UNL d   1      29.991  17.107 -24.119  0.00  0.00     0.006 A 
ATOM      6  C   UNL d   1      29.318  16.696 -23.885  0.00  0.00     0.018 A 
ATOM      7  C   UNL d   1      28.595  15.460 -23.755  0.00  0.00     0.043 A 
ATOM      8  O   UNL d   1      31.210  15.474 -24.913  0.00  0.00    -0.265 OA
ATOM      9  C   UNL d   1      28.681  17.100 -23.539  0.00  0.00     0.004 A 
ATOM     10  C   UNL d   1      27.965  15.864 -23.413  0.00  0.00     0.096 A 
ATOM     11  C   UNL d   1      28.009  16.689 -23.305  0.00  0.00     0.024 A 
ENDROOT
BRANCH   3  12
ATOM     12  C   UNL d   1      31.296  17.106 -24.699  0.00  0.00     0.026 C 
BRANCH  12  13
ATOM     13  C   UNL d   1      31.892  17.279 -24.164  0.00  0.00     0.102 C 
BRANCH  13  14
ATOM     14  N   UNL d   1      32.088  18.060 -23.979  0.00  0.00    -0.206 NA
ATOM     15  C   UNL d   1      32.756  18.226 -23.524  0.00  0.00     0.285 C 
ATOM     16  O   UNL d   1      33.232  17.617 -23.250  0.00  0.00    -0.265 OA
BRANCH  15  17
ATOM     17  C   UNL d   1      32.944  19.010 -23.344  0.00  0.00     0.087 A 
ATOM     18  S   UNL d   1      33.038  19.321 -22.595  0.00  0.00    -0.082 SA
ATOM     19  C   UNL d   1      33.220  20.109 -22.656  0.00  0.00     0.036 A 
ATOM     20  C   UNL d   1      33.241  20.301 -23.462  0.00  0.00     0.008 A 
ATOM     21  C   UNL d   1      33.069  19.617 -23.889  0.00  0.00     0.012 A 
ENDBRANCH  15  17
ENDBRANCH  13  14
ENDBRANCH  12  13
ENDBRANCH   3  12
BRANCH  10  22
ATOM     22  O   UNL d   1      27.292  15.453 -23.178  0.00  0.00    -0.328 OA
ATOM     23  C   UNL d   1      26.578  15.577 -23.568  0.00  0.00     0.181 C 
ENDBRANCH  10  22
TORSDOF 5
ENDMDL
