MODEL 1
REMARK VINA RESULT:      -4.9      0.000      0.000
REMARK  2 active torsions:
REMARK  status: ('A' for Active; 'I' for Inactive)
REMARK    1  A    between atoms: CA_2  and  C_1 
REMARK    2  A    between atoms: C_3  and  CA_2 
ROOT
ATOM      1  C   UNL d   1      56.982   0.077  31.934  0.00  0.00     0.025 A 
ATOM      2  C   UNL d   1      56.588   0.680  32.332  0.00  0.00     0.002 A 
ATOM      3  C   UNL d   1      56.763  -0.714  32.057  0.00  0.00     0.002 A 
ATOM      4  C   UNL d   1      55.977   0.498  32.852  0.00  0.00     0.000 A 
ATOM      5  C   UNL d   1      56.152  -0.896  32.577  0.00  0.00     0.000 A 
ATOM      6  C   UNL d   1      55.758  -0.293  32.976  0.00  0.00     0.000 A 
ATOM      7  C   UNL d   1      55.145  -0.474  33.498  0.00  0.00     0.000 C 
ENDROOT
BRANCH   1   8
ATOM      8  CA  UNL d   1      57.595   0.267  31.412  0.00  0.00     0.167 C 
ATOM      9  N   UNL d   1      58.288   0.620  31.702  0.00  0.00    -0.142 N 
BRANCH   8  10
ATOM     10  C   UNL d   1      57.523   0.107  30.606  0.00  0.00     0.231 C 
ATOM     11  O   UNL d   1      57.748  -0.632  30.309  0.00  0.00    -0.643 OA
ATOM     12  OXT UNL d   1      57.229   0.682  30.095  0.00  0.00    -0.643 OA
ENDBRANCH   8  10
ENDBRANCH   1   8
TORSDOF 2
ENDMDL
MODEL 2
REMARK VINA RESULT:      -4.6      2.515      3.253
REMARK  2 active torsions:
REMARK  status: ('A' for Active; 'I' for Inactive)
REMARK    1  A    between atoms: CA_2  and  C_1 
REMARK    2  A    between atoms: C_3  and  CA_2 
ROOT
ATOM      1  C   UNL d   1      55.713   0.026  33.247  0.00  0.00     0.025 A 
ATOM      2  C   UNL d   1      55.688  -0.793  33.177  0.00  0.00     0.002 A 
ATOM      3  C   UNL d   1      56.176   0.475  32.725  0.00  0.00     0.002 A 
ATOM      4  C   UNL d   1      56.124  -1.168  32.587  0.00  0.00     0.000 A 
ATOM      5  C   UNL d   1      56.612   0.101  32.136  0.00  0.00     0.000 A 
ATOM      6  C   UNL d   1      56.588  -0.720  32.065  0.00  0.00     0.000 A 
ATOM      7  C   UNL d   1      57.025  -1.097  31.474  0.00  0.00     0.000 C 
ENDROOT
BRANCH   1   8
ATOM      8  CA  UNL d   1      55.273   0.397  33.842  0.00  0.00     0.167 C 
ATOM      9  N   UNL d   1      54.507   0.672  33.676  0.00  0.00    -0.142 N 
BRANCH   8  10
ATOM     10  C   UNL d   1      55.588   0.494  34.598  0.00  0.00     0.231 C 
ATOM     11  O   UNL d   1      55.103   0.411  35.262  0.00  0.00    -0.643 OA
ATOM     12  OXT UNL d   1      56.386   0.674  34.692  0.00  0.00    -0.643 OA
ENDBRANCH   8  10
ENDBRANCH   1   8
TORSDOF 2
ENDMDL
MODEL 3
REMARK VINA RESULT:      -3.7      8.935      9.574
REMARK  2 active torsions:
REMARK  status: ('A' for Active; 'I' for Inactive)
REMARK    1  A    between atoms: CA_2  and  C_1 
REMARK    2  A    between atoms: C_3  and  CA_2 
ROOT
ATOM      1  C   UNL d   1      59.871  -8.032  35.875  0.00  0.00     0.025 A 
ATOM      2  C   UNL d   1      59.352  -7.398  35.799  0.00  0.00     0.002 A 
ATOM      3  C   UNL d   1      60.658  -7.900  36.103  0.00  0.00     0.002 A 
ATOM      4  C   UNL d   1      59.614  -6.632  35.950  0.00  0.00     0.000 A 
ATOM      5  C   UNL d   1      60.920  -7.135  36.255  0.00  0.00     0.000 A 
ATOM      6  C   UNL d   1      60.401  -6.500  36.179  0.00  0.00     0.000 A 
ATOM      7  C   UNL d   1      60.662  -5.731  36.330  0.00  0.00     0.000 C 
ENDROOT
BRANCH   1   8
ATOM      8  CA  UNL d   1      59.601  -8.799  35.721  0.00  0.00     0.167 C 
ATOM      9  N   UNL d   1      59.231  -9.234  36.324  0.00  0.00    -0.142 N 
BRANCH   8  10
ATOM     10  C   UNL d   1      59.698  -9.135  34.974  0.00  0.00     0.231 C 
ATOM     11  O   UNL d   1      60.367  -9.592  34.810  0.00  0.00    -0.643 OA
ATOM     12  OXT UNL d   1      59.128  -9.016  34.391  0.00  0.00    -0.643 OA
ENDBRANCH   8  10
ENDBRANCH   1   8
TORSDOF 2
ENDMDL
MODEL 4
REMARK VINA RESULT:      -3.4      1.290      1.779
REMARK  2 active torsions:
REMARK  status: ('A' for Active; 'I' for Inactive)
REMARK    1  A    between atoms: CA_2  and  C_1 
REMARK    2  A    between atoms: C_3  and  CA_2 
ROOT
ATOM      1  C   UNL d   1      57.806   0.091  30.673  0.00  0.00     0.025 A 
ATOM      2  C   UNL d   1      57.482   0.675  31.154  0.00  0.00     0.002 A 
ATOM      3  C   UNL d   1      57.623  -0.707  30.809  0.00  0.00     0.002 A 
ATOM      4  C   UNL d   1      56.976   0.467  31.769  0.00  0.00     0.000 A 
ATOM      5  C   UNL d   1      57.118  -0.916  31.423  0.00  0.00     0.000 A 
ATOM      6  C   UNL d   1      56.794  -0.331  31.905  0.00  0.00     0.000 A 
ATOM      7  C   UNL d   1      56.286  -0.539  32.523  0.00  0.00     0.000 C 
ENDROOT
BRANCH   1   8
ATOM      8  CA  UNL d   1      58.313   0.307  30.056  0.00  0.00     0.167 C 
ATOM      9  N   UNL d   1      58.006   0.680  29.381  0.00  0.00    -0.142 N 
BRANCH   8  10
ATOM     10  C   UNL d   1      59.123   0.155  30.107  0.00  0.00     0.231 C 
ATOM     11  O   UNL d   1      59.616   0.677  30.520  0.00  0.00    -0.643 OA
ATOM     12  OXT UNL d   1      59.441  -0.514  29.749  0.00  0.00    -0.643 OA
ENDBRANCH   8  10
ENDBRANCH   1   8
TORSDOF 2
ENDMDL
MODEL 5
REMARK VINA RESULT:      -3.2      9.234      9.942
REMARK  2 active torsions:
REMARK  status: ('A' for Active; 'I' for Inactive)
REMARK    1  A    between atoms: CA_2  and  C_1 
REMARK    2  A    between atoms: C_3  and  CA_2 
ROOT
ATOM      1  C   UNL d   1      60.047  -8.702  34.974  0.00  0.00     0.025 A 
ATOM      2  C   UNL d   1      60.712  -8.701  34.490  0.00  0.00     0.002 A 
ATOM      3  C   UNL d   1      59.350  -9.074  34.721  0.00  0.00     0.002 A 
ATOM      4  C   UNL d   1      60.685  -9.069  33.754  0.00  0.00     0.000 A 
ATOM      5  C   UNL d   1      59.322  -9.443  33.986  0.00  0.00     0.000 A 
ATOM      6  C   UNL d   1      59.988  -9.442  33.501  0.00  0.00     0.000 A 
ATOM      7  C   UNL d   1      59.962  -9.811  32.763  0.00  0.00     0.000 C 
ENDROOT
BRANCH   1   8
ATOM      8  CA  UNL d   1      60.081  -8.330  35.712  0.00  0.00     0.167 C 
ATOM      9  N   UNL d   1      60.513  -8.678  36.330  0.00  0.00    -0.142 N 
BRANCH   8  10
ATOM     10  C   UNL d   1      59.689  -7.615  35.839  0.00  0.00     0.231 C 
ATOM     11  O   UNL d   1      60.029  -6.906  35.581  0.00  0.00    -0.643 OA
ATOM     12  OXT UNL d   1      58.960  -7.606  36.222  0.00  0.00    -0.643 OA
ENDBRANCH   8  10
ENDBRANCH   1   8
TORSDOF 2
ENDMDL
MODEL 6
REMARK VINA RESULT:      -2.4      1.479      2.737
REMARK  2 active torsions:
REMARK  status: ('A' for Active; 'I' for Inactive)
REMARK    1  A    between atoms: CA_2  and  C_1 
REMARK    2  A    between atoms: C_3  and  CA_2 
ROOT
ATOM      1  C   UNL d   1      57.368   0.333  31.767  0.00  0.00     0.025 A 
ATOM      2  C   UNL d   1      56.893   0.566  31.137  0.00  0.00     0.002 A 
ATOM      3  C   UNL d   1      58.182   0.215  31.652  0.00  0.00     0.002 A 
ATOM      4  C   UNL d   1      57.225   0.682  30.393  0.00  0.00     0.000 A 
ATOM      5  C   UNL d   1      58.514   0.330  30.908  0.00  0.00     0.000 A 
ATOM      6  C   UNL d   1      58.038   0.564  30.278  0.00  0.00     0.000 A 
ATOM      7  C   UNL d   1      58.370   0.681  29.530  0.00  0.00     0.000 C 
ENDROOT
BRANCH   1   8
ATOM      8  CA  UNL d   1      57.029   0.218  32.513  0.00  0.00     0.167 C 
ATOM      9  N   UNL d   1      57.343   0.610  33.174  0.00  0.00    -0.142 N 
BRANCH   8  10
ATOM     10  C   UNL d   1      56.380  -0.284  32.604  0.00  0.00     0.231 C 
ATOM     11  O   UNL d   1      56.493  -1.103  32.641  0.00  0.00    -0.643 OA
ATOM     12  OXT UNL d   1      55.621   0.029  32.659  0.00  0.00    -0.643 OA
ENDBRANCH   8  10
ENDBRANCH   1   8
TORSDOF 2
ENDMDL
