MODEL 1
REMARK VINA RESULT:      50.7      0.000      0.000
REMARK  4 active torsions:
REMARK  status: ('A' for Active; 'I' for Inactive)
REMARK    1  A    between atoms: C_11  and  C_4 
REMARK    2  A    between atoms: N_10  and  C_5 
REMARK    3  A    between atoms: C_13  and  N_10 
REMARK    4  A    between atoms: C_14  and  C_13 
ROOT
ATOM      1  N   UNL d   1      13.981  13.907  -2.121  0.00  0.00    -0.195 N 
ATOM      2  C   UNL d   1      13.947  13.215  -2.570  0.00  0.00     0.167 A 
ATOM      3  N   UNL d   1      13.644  14.508  -2.562  0.00  0.00    -0.163 NA
ATOM      4  C   UNL d   1      13.589  13.391  -3.287  0.00  0.00     0.055 A 
ATOM      5  C   UNL d   1      14.315  13.894  -1.369  0.00  0.00     0.167 A 
ATOM      6  C   UNL d   1      13.401  14.189  -3.285  0.00  0.00     0.104 A 
ATOM      7  N   UNL d   1      14.247  12.512  -2.267  0.00  0.00    -0.227 NA
ATOM      8  C   UNL d   1      14.618  13.186  -1.060  0.00  0.00     0.058 A 
ATOM      9  C   UNL d   1      14.584  12.495  -1.509  0.00  0.00     0.086 A 
ATOM     10  C   UNL d   1      13.034  14.600  -3.898  0.00  0.00     0.023 C 
ATOM     11  C   UNL d   1      14.886  11.779  -1.210  0.00  0.00     0.021 C 
ENDROOT
BRANCH   5  12
ATOM     12  N   UNL d   1      14.349  14.585  -0.920  0.00  0.00    -0.224 NA
BRANCH  12  13
ATOM     13  C   UNL d   1      15.044  14.789  -0.531  0.00  0.00     0.120 C 
BRANCH  13  14
ATOM     14  C   UNL d   1      15.323  15.565  -0.563  0.00  0.00     0.101 A 
ATOM     15  N   UNL d   1      16.079  15.743  -0.271  0.00  0.00    -0.242 NA
ATOM     16  C   UNL d   1      16.359  16.522  -0.304  0.00  0.00     0.099 A 
ATOM     17  C   UNL d   1      15.883  17.119  -0.628  0.00  0.00     0.021 A 
ATOM     18  C   UNL d   1      15.134  16.938  -0.916  0.00  0.00     0.003 A 
ATOM     19  C   UNL d   1      14.853  16.159  -0.884  0.00  0.00     0.021 A 
ENDBRANCH  13  14
ENDBRANCH  12  13
ENDBRANCH   5  12
BRANCH   4  20
ATOM     20  C   UNL d   1      13.407  12.930  -3.948  0.00  0.00     0.004 A 
ATOM     21  C   UNL d   1      12.951  12.243  -3.858  0.00  0.00     0.000 A 
ATOM     22  C   UNL d   1      12.769  11.782  -4.519  0.00  0.00     0.000 A 
ATOM     23  C   UNL d   1      13.039  12.002  -5.266  0.00  0.00     0.000 A 
ATOM     24  C   UNL d   1      13.497  12.691  -5.353  0.00  0.00     0.000 A 
ATOM     25  C   UNL d   1      13.678  13.150  -4.695  0.00  0.00     0.000 A 
ENDBRANCH   4  20
TORSDOF 4
ENDMDL
MODEL 2
REMARK VINA RESULT:      52.6      1.596      4.041
REMARK  4 active torsions:
REMARK  status: ('A' for Active; 'I' for Inactive)
REMARK    1  A    between atoms: C_11  and  C_4 
REMARK    2  A    between atoms: N_10  and  C_5 
REMARK    3  A    between atoms: C_13  and  N_10 
REMARK    4  A    between atoms: C_14  and  C_13 
ROOT
ATOM      1  N   UNL d   1      13.808  13.850  -3.089  0.00  0.00    -0.195 N 
ATOM      2  C   UNL d   1      13.834  13.136  -2.678  0.00  0.00     0.167 A 
ATOM      3  N   UNL d   1      14.140  14.426  -2.611  0.00  0.00    -0.163 NA
ATOM      4  C   UNL d   1      14.181  13.271  -1.947  0.00  0.00     0.055 A 
ATOM      5  C   UNL d   1      13.485  13.879  -3.845  0.00  0.00     0.167 A 
ATOM      6  C   UNL d   1      14.371  14.067  -1.903  0.00  0.00     0.104 A 
ATOM      7  N   UNL d   1      13.536  12.451  -3.024  0.00  0.00    -0.227 NA
ATOM      8  C   UNL d   1      13.184  13.191  -4.197  0.00  0.00     0.058 A 
ATOM      9  C   UNL d   1      13.210  12.476  -3.786  0.00  0.00     0.086 A 
ATOM     10  C   UNL d   1      14.730  14.443  -1.263  0.00  0.00     0.023 C 
ATOM     11  C   UNL d   1      12.911  11.779  -4.128  0.00  0.00     0.021 C 
ENDROOT
BRANCH   5  12
ATOM     12  N   UNL d   1      13.460  14.594  -4.257  0.00  0.00    -0.224 NA
BRANCH  12  13
ATOM     13  C   UNL d   1      13.413  14.596  -5.078  0.00  0.00     0.120 C 
BRANCH  13  14
ATOM     14  C   UNL d   1      13.507  15.300  -5.496  0.00  0.00     0.101 A 
ATOM     15  N   UNL d   1      12.920  15.885  -5.457  0.00  0.00    -0.242 NA
ATOM     16  C   UNL d   1      13.014  16.593  -5.877  0.00  0.00     0.099 A 
ATOM     17  C   UNL d   1      13.696  16.713  -6.334  0.00  0.00     0.021 A 
ATOM     18  C   UNL d   1      14.277  16.131  -6.370  0.00  0.00     0.003 A 
ATOM     19  C   UNL d   1      14.182  15.423  -5.950  0.00  0.00     0.021 A 
ENDBRANCH  13  14
ENDBRANCH  12  13
ENDBRANCH   5  12
BRANCH   4  20
ATOM     20  C   UNL d   1      14.351  12.774  -1.310  0.00  0.00     0.004 A 
ATOM     21  C   UNL d   1      15.139  12.578  -1.139  0.00  0.00     0.000 A 
ATOM     22  C   UNL d   1      15.310  12.081  -0.502  0.00  0.00     0.000 A 
ATOM     23  C   UNL d   1      14.700  11.779  -0.036  0.00  0.00     0.000 A 
ATOM     24  C   UNL d   1      13.911  11.977  -0.209  0.00  0.00     0.000 A 
ATOM     25  C   UNL d   1      13.742  12.472  -0.844  0.00  0.00     0.000 A 
ENDBRANCH   4  20
TORSDOF 4
ENDMDL
