MODEL 1
REMARK VINA RESULT:       9.6      0.000      0.000
REMARK  2 active torsions:
REMARK  status: ('A' for Active; 'I' for Inactive)
REMARK    1  A    between atoms: C_2  and  N_1 
REMARK    2  A    between atoms: O_12  and  C_10 
ROOT
ATOM      1  C   UNL d   1     -52.021  25.205  33.315  0.00  0.00     0.072 A 
ATOM      2  C   UNL d   1     -51.199  25.189  33.310  0.00  0.00     0.042 A 
ATOM      3  C   UNL d   1     -50.788  25.902  33.313  0.00  0.00     0.096 A 
ATOM      4  C   UNL d   1     -52.423  25.928  33.323  0.00  0.00     0.018 A 
ATOM      5  C   UNL d   1     -52.025  26.626  33.326  0.00  0.00     0.004 A 
ATOM      6  C   UNL d   1     -51.183  26.624  33.321  0.00  0.00     0.024 A 
ENDROOT
BRANCH   1   7
ATOM      7  N   UNL d   1     -52.435  24.491  33.312  0.00  0.00    -0.242 N 
ATOM      8  C   UNL d   1     -52.116  23.743  33.313  0.00  0.00     0.267 A 
ATOM      9  C   UNL d   1     -52.730  23.191  33.309  0.00  0.00     0.066 A 
ATOM     10  O   UNL d   1     -51.310  23.563  33.317  0.00  0.00    -0.267 OA
ATOM     11  C   UNL d   1     -53.445  23.615  33.306  0.00  0.00     0.066 A 
ATOM     12  C   UNL d   1     -53.269  24.425  33.308  0.00  0.00     0.267 A 
ATOM     13  O   UNL d   1     -53.813  25.038  33.306  0.00  0.00    -0.267 OA
ENDBRANCH   1   7
BRANCH   3  14
ATOM     14  O   UNL d   1     -49.953  25.892  33.308  0.00  0.00    -0.328 OA
ATOM     15  C   UNL d   1     -49.554  26.598  33.341  0.00  0.00     0.181 C 
ENDBRANCH   3  14
TORSDOF 2
ENDMDL
