MODEL 1
REMARK VINA RESULT:      15.7      0.000      0.000
REMARK  2 active torsions:
REMARK  status: ('A' for Active; 'I' for Inactive)
REMARK    1  A    between atoms: C_6  and  C_1 
REMARK    2  A    between atoms: O_12  and  C_9 
ROOT
ATOM      1  C   UNL d   1     -55.176-102.159 -38.293  0.00  0.00     0.123 A 
ATOM      2  C   UNL d   1     -55.092-101.346 -38.181  0.00  0.00     0.305 A 
ATOM      3  O   UNL d   1     -54.968-101.050 -37.439  0.00  0.00    -0.271 OA
ATOM      4  C   UNL d   1     -55.134-102.655 -37.659  0.00  0.00     0.012 A 
ATOM      5  C   UNL d   1     -54.922-101.557 -36.767  0.00  0.00     0.125 A 
ATOM      6  C   UNL d   1     -55.006-102.370 -36.879  0.00  0.00     0.025 A 
ATOM      7  O   UNL d   1     -55.133-100.845 -38.813  0.00  0.00    -0.259 OA
ATOM      8  C   UNL d   1     -54.796-101.265 -36.003  0.00  0.00     0.117 A 
ATOM      9  C   UNL d   1     -54.962-102.870 -36.223  0.00  0.00     0.002 A 
ATOM     10  C   UNL d   1     -54.836-102.583 -35.457  0.00  0.00     0.002 A 
ATOM     11  C   UNL d   1     -54.751-101.770 -35.345  0.00  0.00     0.026 A 
ENDROOT
BRANCH   1  12
ATOM     12  C   UNL d   1     -55.302-102.480 -39.037  0.00  0.00     0.302 C 
ATOM     13  O   UNL d   1     -54.712-102.423 -39.643  0.00  0.00    -0.263 OA
ATOM     14  N   UNL d   1     -56.024-102.860 -39.177  0.00  0.00    -0.102 N 
ENDBRANCH   1  12
BRANCH   8  15
ATOM     15  O   UNL d   1     -54.712-100.461 -35.893  0.00  0.00    -0.326 OA
ATOM     16  C   UNL d   1     -55.135-100.082 -35.316  0.00  0.00     0.181 C 
ENDBRANCH   8  15
TORSDOF 2
ENDMDL
