MODEL 1
REMARK VINA RESULT:      -6.5      0.000      0.000
REMARK  5 active torsions:
REMARK  status: ('A' for Active; 'I' for Inactive)
REMARK    1  A    between atoms: C_8  and  N_1 
REMARK       I    between atoms: N_2  and  C_6 
REMARK    2  A    between atoms: S_11  and  C_3 
REMARK    3  A    between atoms: C_6  and  C_8 
REMARK    4  A    between atoms: C_9  and  C_15 
REMARK       I    between atoms: N_10  and  C_9 
REMARK    5  A    between atoms: C_15  and  S_11 
ROOT
ATOM      1  N   UNL d   1     -46.625  12.616  22.746  0.00  0.00    -0.300 N 
ATOM      2  C   UNL d   1     -47.857  12.903  22.329  0.00  0.00     0.049 A 
ATOM      3  C   UNL d   1     -47.070  13.156  22.311  0.00  0.00     0.087 A 
ATOM      4  C   UNL d   1     -47.894  12.212  22.773  0.00  0.00     0.024 A 
ATOM      5  C   UNL d   1     -47.131  12.035  23.031  0.00  0.00     0.065 A 
ATOM      6  C   UNL d   1     -48.522  11.722  22.975  0.00  0.00     0.002 A 
ATOM      7  C   UNL d   1     -46.995  11.364  23.493  0.00  0.00     0.018 A 
ATOM      8  C   UNL d   1     -48.392  11.049  23.438  0.00  0.00     0.000 A 
ATOM      9  C   UNL d   1     -47.623  10.876  23.695  0.00  0.00     0.002 A 
ENDROOT
BRANCH   1  10
ATOM     10  C   UNL d   1     -45.813  12.653  22.873  0.00  0.00     0.142 C 
BRANCH  10  11
ATOM     11  C   UNL d   1     -45.325  13.010  22.318  0.00  0.00     0.283 C 
ATOM     12  N   UNL d   1     -44.579  12.698  22.162  0.00  0.00    -0.267 N 
ATOM     13  C   UNL d   1     -44.088  13.055  21.606  0.00  0.00     0.108 A 
ATOM     14  C   UNL d   1     -44.318  12.028  22.560  0.00  0.00     0.108 A 
ATOM     15  C   UNL d   1     -43.343  12.743  21.450  0.00  0.00     0.118 A 
ATOM     16  C   UNL d   1     -42.846  13.107  20.884  0.00  0.00     0.028 C 
ATOM     17  O   UNL d   1     -43.077  12.070  21.848  0.00  0.00    -0.304 OA
ATOM     18  C   UNL d   1     -43.564  11.713  22.403  0.00  0.00     0.118 A 
ATOM     19  C   UNL d   1     -43.303  11.042  22.802  0.00  0.00     0.028 C 
ATOM     20  O   UNL d   1     -45.583  13.680  21.919  0.00  0.00    -0.265 OA
ENDBRANCH  10  11
ENDBRANCH   1  10
BRANCH   2  21
ATOM     21  S   UNL d   1     -48.492  13.282  21.963  0.00  0.00    -0.080 SA
BRANCH  21  22
ATOM     22  C   UNL d   1     -48.752  14.015  22.231  0.00  0.00     0.097 C 
BRANCH  22  23
ATOM     23  C   UNL d   1     -49.508  14.285  22.014  0.00  0.00     0.272 C 
ATOM     24  N   UNL d   1     -49.907  14.815  22.495  0.00  0.00    -0.267 N 
ATOM     25  C   UNL d   1     -50.655  15.077  22.271  0.00  0.00     0.110 A 
ATOM     26  C   UNL d   1     -49.561  15.080  23.194  0.00  0.00     0.110 A 
ATOM     27  C   UNL d   1     -51.061  15.612  22.755  0.00  0.00     0.142 A 
ATOM     28  O   UNL d   1     -50.712  15.882  23.464  0.00  0.00    -0.300 OA
ATOM     29  C   UNL d   1     -49.968  15.616  23.677  0.00  0.00     0.142 A 
ATOM     30  O   UNL d   1     -49.862  14.023  21.313  0.00  0.00    -0.266 OA
ENDBRANCH  22  23
ENDBRANCH  21  22
ENDBRANCH   2  21
TORSDOF 5
ENDMDL
MODEL 2
REMARK VINA RESULT:      -4.4      1.073      5.539
REMARK  5 active torsions:
REMARK  status: ('A' for Active; 'I' for Inactive)
REMARK    1  A    between atoms: C_8  and  N_1 
REMARK       I    between atoms: N_2  and  C_6 
REMARK    2  A    between atoms: S_11  and  C_3 
REMARK    3  A    between atoms: C_6  and  C_8 
REMARK    4  A    between atoms: C_9  and  C_15 
REMARK       I    between atoms: N_10  and  C_9 
REMARK    5  A    between atoms: C_15  and  S_11 
ROOT
ATOM      1  N   UNL d   1     -47.885  12.920  22.734  0.00  0.00    -0.300 N 
ATOM      2  C   UNL d   1     -46.762  12.322  23.129  0.00  0.00     0.049 A 
ATOM      3  C   UNL d   1     -47.067  13.011  22.790  0.00  0.00     0.087 A 
ATOM      4  C   UNL d   1     -47.389  11.811  23.281  0.00  0.00     0.024 A 
ATOM      5  C   UNL d   1     -48.083  12.182  23.035  0.00  0.00     0.065 A 
ATOM      6  C   UNL d   1     -47.416  11.058  23.609  0.00  0.00     0.002 A 
ATOM      7  C   UNL d   1     -48.810  11.798  23.118  0.00  0.00     0.018 A 
ATOM      8  C   UNL d   1     -48.142  10.669  23.695  0.00  0.00     0.000 A 
ATOM      9  C   UNL d   1     -48.836  11.046  23.446  0.00  0.00     0.002 A 
ENDROOT
BRANCH   1  10
ATOM     10  C   UNL d   1     -48.411  13.474  22.427  0.00  0.00     0.142 C 
BRANCH  10  11
ATOM     11  C   UNL d   1     -48.716  14.063  22.911  0.00  0.00     0.283 C 
ATOM     12  N   UNL d   1     -49.451  14.393  22.745  0.00  0.00    -0.267 N 
ATOM     13  C   UNL d   1     -49.759  14.984  23.229  0.00  0.00     0.108 A 
ATOM     14  C   UNL d   1     -49.886  14.135  22.097  0.00  0.00     0.108 A 
ATOM     15  C   UNL d   1     -50.495  15.314  23.064  0.00  0.00     0.118 A 
ATOM     16  C   UNL d   1     -50.806  15.915  23.556  0.00  0.00     0.028 C 
ATOM     17  O   UNL d   1     -50.934  15.058  22.413  0.00  0.00    -0.304 OA
ATOM     18  C   UNL d   1     -50.629  14.468  21.930  0.00  0.00     0.118 A 
ATOM     19  C   UNL d   1     -51.064  14.210  21.280  0.00  0.00     0.028 C 
ATOM     20  O   UNL d   1     -48.284  14.323  23.560  0.00  0.00    -0.265 OA
ENDBRANCH  10  11
ENDBRANCH   1  10
BRANCH   2  21
ATOM     21  S   UNL d   1     -45.966  12.176  23.288  0.00  0.00    -0.080 SA
BRANCH  21  22
ATOM     22  C   UNL d   1     -45.378  12.507  22.817  0.00  0.00     0.097 C 
BRANCH  22  23
ATOM     23  C   UNL d   1     -44.635  12.138  22.771  0.00  0.00     0.272 C 
ATOM     24  N   UNL d   1     -44.087  12.388  22.214  0.00  0.00    -0.267 N 
ATOM     25  C   UNL d   1     -43.353  12.016  22.177  0.00  0.00     0.110 A 
ATOM     26  C   UNL d   1     -44.273  13.004  21.700  0.00  0.00     0.110 A 
ATOM     27  C   UNL d   1     -42.798  12.266  21.615  0.00  0.00     0.142 A 
ATOM     28  O   UNL d   1     -42.985  12.891  21.093  0.00  0.00    -0.300 OA
ATOM     29  C   UNL d   1     -43.717  13.253  21.139  0.00  0.00     0.142 A 
ATOM     30  O   UNL d   1     -44.441  11.519  23.284  0.00  0.00    -0.266 OA
ENDBRANCH  22  23
ENDBRANCH  21  22
ENDBRANCH   2  21
TORSDOF 5
ENDMDL
MODEL 3
REMARK VINA RESULT:      -3.7      4.199      8.412
REMARK  5 active torsions:
REMARK  status: ('A' for Active; 'I' for Inactive)
REMARK    1  A    between atoms: C_8  and  N_1 
REMARK       I    between atoms: N_2  and  C_6 
REMARK    2  A    between atoms: S_11  and  C_3 
REMARK    3  A    between atoms: C_6  and  C_8 
REMARK    4  A    between atoms: C_9  and  C_15 
REMARK       I    between atoms: N_10  and  C_9 
REMARK    5  A    between atoms: C_15  and  S_11 
ROOT
ATOM      1  N   UNL d   1     -40.969  13.784  20.898  0.00  0.00    -0.300 N 
ATOM      2  C   UNL d   1     -40.278  14.461  19.982  0.00  0.00     0.049 A 
ATOM      3  C   UNL d   1     -40.970  14.027  20.110  0.00  0.00     0.087 A 
ATOM      4  C   UNL d   1     -39.855  14.484  20.687  0.00  0.00     0.024 A 
ATOM      5  C   UNL d   1     -40.284  14.065  21.254  0.00  0.00     0.065 A 
ATOM      6  C   UNL d   1     -39.138  14.832  20.886  0.00  0.00     0.002 A 
ATOM      7  C   UNL d   1     -39.994  13.994  22.024  0.00  0.00     0.018 A 
ATOM      8  C   UNL d   1     -38.843  14.763  21.656  0.00  0.00     0.000 A 
ATOM      9  C   UNL d   1     -39.277  14.342  22.221  0.00  0.00     0.002 A 
ENDROOT
BRANCH   1  10
ATOM     10  C   UNL d   1     -41.555  13.337  21.265  0.00  0.00     0.142 C 
BRANCH  10  11
ATOM     11  C   UNL d   1     -42.341  13.568  21.214  0.00  0.00     0.283 C 
ATOM     12  N   UNL d   1     -42.932  13.094  21.536  0.00  0.00    -0.267 N 
ATOM     13  C   UNL d   1     -43.721  13.324  21.486  0.00  0.00     0.108 A 
ATOM     14  C   UNL d   1     -42.740  12.388  21.910  0.00  0.00     0.108 A 
ATOM     15  C   UNL d   1     -44.312  12.850  21.808  0.00  0.00     0.118 A 
ATOM     16  C   UNL d   1     -45.113  13.084  21.757  0.00  0.00     0.028 C 
ATOM     17  O   UNL d   1     -44.123  12.140  22.185  0.00  0.00    -0.304 OA
ATOM     18  C   UNL d   1     -43.337  11.909  22.236  0.00  0.00     0.118 A 
ATOM     19  C   UNL d   1     -43.144  11.202  22.610  0.00  0.00     0.028 C 
ATOM     20  O   UNL d   1     -42.537  14.273  20.840  0.00  0.00    -0.265 OA
ENDBRANCH  10  11
ENDBRANCH   1  10
BRANCH   2  21
ATOM     21  S   UNL d   1     -40.054  14.808  19.269  0.00  0.00    -0.080 SA
BRANCH  21  22
ATOM     22  C   UNL d   1     -39.925  14.345  18.600  0.00  0.00     0.097 C 
BRANCH  22  23
ATOM     23  C   UNL d   1     -39.753  14.713  17.875  0.00  0.00     0.272 C 
ATOM     24  N   UNL d   1     -39.297  14.324  17.316  0.00  0.00    -0.267 N 
ATOM     25  C   UNL d   1     -39.132  14.697  16.601  0.00  0.00     0.110 A 
ATOM     26  C   UNL d   1     -39.009  13.568  17.472  0.00  0.00     0.110 A 
ATOM     27  C   UNL d   1     -38.671  14.306  16.034  0.00  0.00     0.142 A 
ATOM     28  O   UNL d   1     -38.379  13.540  16.191  0.00  0.00    -0.300 OA
ATOM     29  C   UNL d   1     -38.548  13.178  16.905  0.00  0.00     0.142 A 
ATOM     30  O   UNL d   1     -40.039  15.473  17.711  0.00  0.00    -0.266 OA
ENDBRANCH  22  23
ENDBRANCH  21  22
ENDBRANCH   2  21
TORSDOF 5
ENDMDL
