MODEL 1
REMARK VINA RESULT:     110.5      0.000      0.000
REMARK  5 active torsions:
REMARK  status: ('A' for Active; 'I' for Inactive)
REMARK       I    between atoms: C_3  and  N_1 
REMARK    1  A    between atoms: C_8  and  C_3 
REMARK    2  A    between atoms: S_4  and  N_9 
REMARK    3  A    between atoms: C_10  and  C_5 
REMARK    4  A    between atoms: C_11  and  C_6 
REMARK    5  A    between atoms: N_9  and  C_23 
ROOT
ATOM      1  N   UNL d   1     -57.641 -99.201 -43.858  0.00  0.00    -0.193 N 
ATOM      2  N   UNL d   1     -57.697 -99.139 -43.031  0.00  0.00    -0.163 NA
ATOM      3  C   UNL d   1     -56.937 -99.276 -44.291  0.00  0.00     0.303 C 
ATOM      4  C   UNL d   1     -58.414 -99.172 -44.166  0.00  0.00     0.088 A 
ATOM      5  C   UNL d   1     -58.495 -99.073 -42.829  0.00  0.00     0.103 A 
ATOM      6  C   UNL d   1     -58.935 -99.094 -43.532  0.00  0.00     0.040 A 
ATOM      7  O   UNL d   1     -56.975 -99.332 -45.119  0.00  0.00    -0.263 OA
ENDROOT
BRANCH   5   8
ATOM      8  C   UNL d   1     -58.801 -99.000 -42.067  0.00  0.00     0.019 A 
ATOM      9  C   UNL d   1     -59.618 -98.876 -41.956  0.00  0.00     0.003 A 
ATOM     10  C   UNL d   1     -59.920 -98.803 -41.195  0.00  0.00     0.020 A 
ATOM     11  C   UNL d   1     -59.419 -98.853 -40.537  0.00  0.00     0.093 A 
ATOM     12  C   UNL d   1     -58.603 -98.977 -40.650  0.00  0.00     0.020 A 
ATOM     13  C   UNL d   1     -58.297 -99.051 -41.419  0.00  0.00     0.003 A 
BRANCH  11  14
ATOM     14  N   UNL d   1     -59.716 -98.781 -39.768  0.00  0.00    -0.162 NA
BRANCH  14  15
ATOM     15  S   UNL d   1     -59.553 -99.347 -39.197  0.00  0.00     0.266 S 
ATOM     16  O   UNL d   1     -59.860 -98.756 -38.698  0.00  0.00    -0.203 OA
ATOM     17  O   UNL d   1     -59.515 -99.668 -38.432  0.00  0.00    -0.203 OA
ATOM     18  C   UNL d   1     -59.244 -99.949 -39.669  0.00  0.00     0.165 C 
ENDBRANCH  14  15
ENDBRANCH  11  14
ENDBRANCH   5   8
BRANCH   4  19
ATOM     19  C   UNL d   1     -58.612 -99.215 -44.961  0.00  0.00     0.018 A 
ATOM     20  C   UNL d   1     -58.145 -98.819 -45.515  0.00  0.00     0.004 A 
ATOM     21  C   UNL d   1     -58.339 -98.858 -46.318  0.00  0.00     0.030 A 
ATOM     22  C   UNL d   1     -58.993 -99.291 -46.554  0.00  0.00     0.140 A 
ATOM     23  C   UNL d   1     -59.452 -99.682 -46.008  0.00  0.00     0.030 A 
ATOM     24  F   UNL d   1     -59.186 -99.329 -47.366  0.00  0.00    -0.204 F 
ATOM     25  C   UNL d   1     -59.268 -99.649 -45.209  0.00  0.00     0.004 A 
ENDBRANCH   4  19
BRANCH   3  26
ATOM     26  C   UNL d   1     -56.219 -99.296 -43.905  0.00  0.00     0.158 A 
ATOM     27  O   UNL d   1     -56.088 -99.112 -43.091  0.00  0.00    -0.300 OA
ATOM     28  C   UNL d   1     -55.278 -99.206 -42.943  0.00  0.00     0.123 A 
ATOM     29  C   UNL d   1     -54.913 -99.441 -43.643  0.00  0.00     0.029 A 
ATOM     30  C   UNL d   1     -55.503 -99.492 -44.227  0.00  0.00     0.032 A 
ENDBRANCH   3  26
TORSDOF 5
ENDMDL
MODEL 2
REMARK VINA RESULT:     112.9      3.293      4.279
REMARK  5 active torsions:
REMARK  status: ('A' for Active; 'I' for Inactive)
REMARK       I    between atoms: C_3  and  N_1 
REMARK    1  A    between atoms: C_8  and  C_3 
REMARK    2  A    between atoms: S_4  and  N_9 
REMARK    3  A    between atoms: C_10  and  C_5 
REMARK    4  A    between atoms: C_11  and  C_6 
REMARK    5  A    between atoms: N_9  and  C_23 
ROOT
ATOM      1  N   UNL d   1     -56.178-100.921 -43.114  0.00  0.00    -0.193 N 
ATOM      2  N   UNL d   1     -56.199-101.058 -42.294  0.00  0.00    -0.163 NA
ATOM      3  C   UNL d   1     -56.679-100.409 -43.531  0.00  0.00     0.303 C 
ATOM      4  C   UNL d   1     -55.568-101.390 -43.432  0.00  0.00     0.088 A 
ATOM      5  C   UNL d   1     -55.608-101.605 -42.107  0.00  0.00     0.103 A 
ATOM      6  C   UNL d   1     -55.221-101.807 -42.812  0.00  0.00     0.040 A 
ATOM      7  O   UNL d   1     -56.587-100.333 -44.353  0.00  0.00    -0.263 OA
ENDROOT
BRANCH   5   8
ATOM      8  C   UNL d   1     -55.435-101.897 -41.356  0.00  0.00     0.019 A 
ATOM      9  C   UNL d   1     -54.885-101.499 -40.871  0.00  0.00     0.003 A 
ATOM     10  C   UNL d   1     -54.714-101.792 -40.123  0.00  0.00     0.020 A 
ATOM     11  C   UNL d   1     -55.082-102.481 -39.846  0.00  0.00     0.093 A 
ATOM     12  C   UNL d   1     -55.631-102.876 -40.332  0.00  0.00     0.020 A 
ATOM     13  C   UNL d   1     -55.805-102.580 -41.089  0.00  0.00     0.003 A 
BRANCH  11  14
ATOM     14  N   UNL d   1     -54.915-102.782 -39.093  0.00  0.00    -0.162 NA
BRANCH  14  15
ATOM     15  S   UNL d   1     -55.480-102.771 -38.499  0.00  0.00     0.266 S 
ATOM     16  O   UNL d   1     -55.991-102.718 -39.153  0.00  0.00    -0.203 OA
ATOM     17  O   UNL d   1     -56.244-102.740 -38.174  0.00  0.00    -0.203 OA
ATOM     18  C   UNL d   1     -54.995-102.824 -37.832  0.00  0.00     0.165 C 
ENDBRANCH  14  15
ENDBRANCH  11  14
ENDBRANCH   5   8
BRANCH   4  19
ATOM     19  C   UNL d   1     -55.357-101.423 -44.224  0.00  0.00     0.018 A 
ATOM     20  C   UNL d   1     -54.967-100.780 -44.565  0.00  0.00     0.004 A 
ATOM     21  C   UNL d   1     -54.752-100.808 -45.364  0.00  0.00     0.030 A 
ATOM     22  C   UNL d   1     -54.929-101.472 -45.807  0.00  0.00     0.140 A 
ATOM     23  C   UNL d   1     -55.315-102.106 -45.470  0.00  0.00     0.030 A 
ATOM     24  F   UNL d   1     -54.712-101.498 -46.612  0.00  0.00    -0.204 F 
ATOM     25  C   UNL d   1     -55.532-102.088 -44.679  0.00  0.00     0.004 A 
ENDBRANCH   4  19
BRANCH   3  26
ATOM     26  C   UNL d   1     -57.254 -99.985 -43.136  0.00  0.00     0.158 A 
ATOM     27  O   UNL d   1     -57.668-100.237 -42.444  0.00  0.00    -0.300 OA
ATOM     28  C   UNL d   1     -58.197 -99.633 -42.239  0.00  0.00     0.123 A 
ATOM     29  C   UNL d   1     -58.116 -99.023 -42.784  0.00  0.00     0.029 A 
ATOM     30  C   UNL d   1     -57.533 -99.252 -43.331  0.00  0.00     0.032 A 
ENDBRANCH   3  26
TORSDOF 5
ENDMDL
