MODEL 1
REMARK VINA RESULT:      48.5      0.000      0.000
REMARK  3 active torsions:
REMARK  status: ('A' for Active; 'I' for Inactive)
REMARK    1  A    between atoms: C_6  and  N_3 
REMARK    2  A    between atoms: C_5  and  C_4 
REMARK    3  A    between atoms: O_18  and  C_14 
ROOT
ATOM      1  C   UNL d   1     -55.065-100.041 -36.885  0.00  0.00     0.366 A 
ATOM      2  C   UNL d   1     -54.959 -99.962 -37.700  0.00  0.00     0.308 A 
ATOM      3  N   UNL d   1     -54.995-100.765 -37.797  0.00  0.00    -0.272 N 
ATOM      4  C   UNL d   1     -55.104-100.861 -36.966  0.00  0.00     0.115 A 
ATOM      5  O   UNL d   1     -54.857 -99.334 -38.222  0.00  0.00    -0.265 OA
ATOM      6  F   UNL d   1     -55.008 -99.220 -36.949  0.00  0.00    -0.188 F 
ATOM      7  F   UNL d   1     -55.140 -99.726 -36.130  0.00  0.00    -0.188 F 
ENDROOT
BRANCH   3   8
ATOM      8  C   UNL d   1     -54.947-101.300 -38.446  0.00  0.00     0.067 A 
ATOM      9  C   UNL d   1     -54.952-101.010 -39.208  0.00  0.00     0.020 A 
ATOM     10  C   UNL d   1     -54.905-101.523 -39.854  0.00  0.00     0.026 A 
ATOM     11  C   UNL d   1     -54.853-102.333 -39.708  0.00  0.00     0.094 A 
ATOM     12  C   UNL d   1     -54.848-102.639 -38.947  0.00  0.00     0.026 A 
ATOM     13  C   UNL d   1     -54.894-102.126 -38.301  0.00  0.00     0.020 A 
BRANCH  11  14
ATOM     14  O   UNL d   1     -54.805-102.864 -40.356  0.00  0.00    -0.328 OA
ATOM     15  C   UNL d   1     -54.712-102.571 -41.131  0.00  0.00     0.181 C 
ENDBRANCH  11  14
ENDBRANCH   3   8
BRANCH   4  16
ATOM     16  C   UNL d   1     -55.206-101.511 -36.457  0.00  0.00     0.045 A 
ATOM     17  C   UNL d   1     -55.776-101.476 -35.872  0.00  0.00     0.141 A 
ATOM     18  F   UNL d   1     -56.257-100.795 -35.779  0.00  0.00    -0.204 F 
ATOM     19  C   UNL d   1     -55.869-102.143 -35.362  0.00  0.00     0.030 A 
ATOM     20  C   UNL d   1     -55.388-102.795 -35.474  0.00  0.00     0.002 A 
ATOM     21  C   UNL d   1     -54.818-102.835 -36.055  0.00  0.00     0.000 A 
ATOM     22  C   UNL d   1     -54.716-102.181 -36.566  0.00  0.00     0.004 A 
ENDBRANCH   4  16
TORSDOF 3
ENDMDL
