MODEL 1
REMARK VINA RESULT:      -8.7      0.000      0.000
REMARK  4 active torsions:
REMARK  status: ('A' for Active; 'I' for Inactive)
REMARK    1  A    between atoms: C_6  and  C_1 
REMARK    2  A    between atoms: C_7  and  C_4 
REMARK       I    between atoms: N_9  and  C_6 
REMARK    3  A    between atoms: C_23  and  N_9 
REMARK    4  A    between atoms: C_11  and  C_23 
ROOT
ATOM      1  C   UNL d   1      51.005  33.570  53.016  0.00  0.00     0.168 A 
ATOM      2  N   UNL d   1      50.952  32.805  53.291  0.00  0.00    -0.121 NA
ATOM      3  C   UNL d   1      51.781  33.835  53.152  0.00  0.00     0.053 A 
ATOM      4  C   UNL d   1      52.192  33.224  53.510  0.00  0.00     0.127 A 
ATOM      5  O   UNL d   1      51.675  32.589  53.594  0.00  0.00    -0.211 OA
ENDROOT
BRANCH   1   6
ATOM      6  C   UNL d   1      49.858  34.475  52.323  0.00  0.00     0.299 C 
ATOM      7  N   UNL d   1      49.361  34.963  52.824  0.00  0.00    -0.203 NA
ATOM      8  O   UNL d   1      49.728  34.488  51.514  0.00  0.00    -0.263 OA
BRANCH   7   9
ATOM      9  C   UNL d   1      48.744  35.453  52.473  0.00  0.00     0.127 C 
BRANCH   9  10
ATOM     10  C   UNL d   1      48.247  35.950  52.971  0.00  0.00     0.119 A 
ATOM     11  O   UNL d   1      48.439  36.244  53.750  0.00  0.00    -0.304 OA
ATOM     12  C   UNL d   1      47.783  36.709  54.026  0.00  0.00     0.123 A 
ATOM     13  C   UNL d   1      47.168  36.706  53.408  0.00  0.00     0.029 A 
ATOM     14  C   UNL d   1      47.464  36.230  52.750  0.00  0.00     0.028 A 
ENDBRANCH   9  10
ENDBRANCH   7   9
ENDBRANCH   1   6
BRANCH   4  15
ATOM     15  C   UNL d   1      52.961  33.211  53.749  0.00  0.00     0.027 A 
ATOM     16  C   UNL d   1      53.204  33.671  54.382  0.00  0.00     0.028 A 
ATOM     17  C   UNL d   1      53.977  33.654  54.617  0.00  0.00     0.119 A 
ATOM     18  O   UNL d   1      54.369  34.044  55.216  0.00  0.00    -0.300 OA
ATOM     19  C   UNL d   1      54.525  33.187  54.238  0.00  0.00     0.119 A 
ATOM     20  C   UNL d   1      55.148  33.819  55.204  0.00  0.00     0.304 A 
ATOM     21  O   UNL d   1      55.248  33.287  54.598  0.00  0.00    -0.300 OA
ATOM     22  C   UNL d   1      54.289  32.721  53.601  0.00  0.00     0.026 A 
ATOM     23  C   UNL d   1      53.521  32.736  53.364  0.00  0.00     0.004 A 
ENDBRANCH   4  15
TORSDOF 4
ENDMDL
MODEL 2
REMARK VINA RESULT:      -8.2      1.371      2.158
REMARK  4 active torsions:
REMARK  status: ('A' for Active; 'I' for Inactive)
REMARK    1  A    between atoms: C_6  and  C_1 
REMARK    2  A    between atoms: C_7  and  C_4 
REMARK       I    between atoms: N_9  and  C_6 
REMARK    3  A    between atoms: C_23  and  N_9 
REMARK    4  A    between atoms: C_11  and  C_23 
ROOT
ATOM      1  C   UNL d   1      50.057  34.698  52.531  0.00  0.00     0.168 A 
ATOM      2  N   UNL d   1      50.268  34.360  51.821  0.00  0.00    -0.121 NA
ATOM      3  C   UNL d   1      50.663  34.538  53.077  0.00  0.00     0.053 A 
ATOM      4  C   UNL d   1      51.236  34.102  52.690  0.00  0.00     0.127 A 
ATOM      5  O   UNL d   1      50.988  33.994  51.913  0.00  0.00    -0.211 OA
ENDROOT
BRANCH   1   6
ATOM      6  C   UNL d   1      48.724  35.541  52.891  0.00  0.00     0.299 C 
ATOM      7  N   UNL d   1      48.053  35.494  52.359  0.00  0.00    -0.203 NA
ATOM      8  O   UNL d   1      48.660  36.010  53.560  0.00  0.00    -0.263 OA
BRANCH   7   9
ATOM      9  C   UNL d   1      47.333  35.936  52.533  0.00  0.00     0.127 C 
BRANCH   9  10
ATOM     10  C   UNL d   1      46.644  35.865  52.022  0.00  0.00     0.119 A 
ATOM     11  O   UNL d   1      46.576  35.377  51.323  0.00  0.00    -0.304 OA
ATOM     12  C   UNL d   1      45.798  35.486  51.000  0.00  0.00     0.123 A 
ATOM     13  C   UNL d   1      45.369  36.053  51.505  0.00  0.00     0.029 A 
ATOM     14  C   UNL d   1      45.904  36.287  52.143  0.00  0.00     0.028 A 
ENDBRANCH   9  10
ENDBRANCH   7   9
ENDBRANCH   1   6
BRANCH   4  15
ATOM     15  C   UNL d   1      51.930  33.815  52.983  0.00  0.00     0.027 A 
ATOM     16  C   UNL d   1      52.063  33.006  53.010  0.00  0.00     0.028 A 
ATOM     17  C   UNL d   1      52.760  32.725  53.305  0.00  0.00     0.119 A 
ATOM     18  O   UNL d   1      53.040  31.965  53.398  0.00  0.00    -0.300 OA
ATOM     19  C   UNL d   1      53.339  33.226  53.579  0.00  0.00     0.119 A 
ATOM     20  C   UNL d   1      53.781  32.001  53.726  0.00  0.00     0.304 A 
ATOM     21  O   UNL d   1      53.969  32.783  53.839  0.00  0.00    -0.300 OA
ATOM     22  C   UNL d   1      53.213  34.041  53.556  0.00  0.00     0.026 A 
ATOM     23  C   UNL d   1      52.521  34.324  53.263  0.00  0.00     0.004 A 
ENDBRANCH   4  15
TORSDOF 4
ENDMDL
MODEL 3
REMARK VINA RESULT:      -7.5      1.356      6.120
REMARK  4 active torsions:
REMARK  status: ('A' for Active; 'I' for Inactive)
REMARK    1  A    between atoms: C_6  and  C_1 
REMARK    2  A    between atoms: C_7  and  C_4 
REMARK       I    between atoms: N_9  and  C_6 
REMARK    3  A    between atoms: C_23  and  N_9 
REMARK    4  A    between atoms: C_11  and  C_23 
ROOT
ATOM      1  C   UNL d   1      50.833  34.225  52.855  0.00  0.00     0.168 A 
ATOM      2  N   UNL d   1      50.618  34.859  53.318  0.00  0.00    -0.121 NA
ATOM      3  C   UNL d   1      50.246  34.126  52.274  0.00  0.00     0.053 A 
ATOM      4  C   UNL d   1      49.680  34.703  52.393  0.00  0.00     0.127 A 
ATOM      5  O   UNL d   1      49.914  35.155  53.040  0.00  0.00    -0.211 OA
ENDROOT
BRANCH   1   6
ATOM      6  C   UNL d   1      52.143  33.284  52.978  0.00  0.00     0.299 C 
ATOM      7  N   UNL d   1      52.692  33.427  53.621  0.00  0.00    -0.203 NA
ATOM      8  O   UNL d   1      52.306  32.676  52.453  0.00  0.00    -0.263 OA
BRANCH   7   9
ATOM      9  C   UNL d   1      53.396  32.937  53.704  0.00  0.00     0.127 C 
BRANCH   9  10
ATOM     10  C   UNL d   1      53.991  33.126  54.297  0.00  0.00     0.119 A 
ATOM     11  O   UNL d   1      54.706  33.578  54.175  0.00  0.00    -0.304 OA
ATOM     12  C   UNL d   1      55.121  33.621  54.916  0.00  0.00     0.123 A 
ATOM     13  C   UNL d   1      54.658  33.188  55.513  0.00  0.00     0.029 A 
ATOM     14  C   UNL d   1      53.952  32.880  55.121  0.00  0.00     0.028 A 
ENDBRANCH   9  10
ENDBRANCH   7   9
ENDBRANCH   1   6
BRANCH   4  15
ATOM     15  C   UNL d   1      49.005  34.836  51.973  0.00  0.00     0.027 A 
ATOM     16  C   UNL d   1      48.376  35.232  52.319  0.00  0.00     0.028 A 
ATOM     17  C   UNL d   1      47.702  35.361  51.892  0.00  0.00     0.119 A 
ATOM     18  O   UNL d   1      47.002  35.732  52.087  0.00  0.00    -0.300 OA
ATOM     19  C   UNL d   1      47.629  35.107  51.123  0.00  0.00     0.119 A 
ATOM     20  C   UNL d   1      46.508  35.704  51.445  0.00  0.00     0.304 A 
ATOM     21  O   UNL d   1      46.895  35.317  50.845  0.00  0.00    -0.300 OA
ATOM     22  C   UNL d   1      48.257  34.707  50.769  0.00  0.00     0.026 A 
ATOM     23  C   UNL d   1      48.929  34.577  51.189  0.00  0.00     0.004 A 
ENDBRANCH   4  15
TORSDOF 4
ENDMDL
MODEL 4
REMARK VINA RESULT:      -7.5      1.773      6.051
REMARK  4 active torsions:
REMARK  status: ('A' for Active; 'I' for Inactive)
REMARK    1  A    between atoms: C_6  and  C_1 
REMARK    2  A    between atoms: C_7  and  C_4 
REMARK       I    between atoms: N_9  and  C_6 
REMARK    3  A    between atoms: C_23  and  N_9 
REMARK    4  A    between atoms: C_11  and  C_23 
ROOT
ATOM      1  C   UNL d   1      51.495  34.042  53.075  0.00  0.00     0.168 A 
ATOM      2  N   UNL d   1      51.275  34.675  53.537  0.00  0.00    -0.121 NA
ATOM      3  C   UNL d   1      50.912  33.940  52.491  0.00  0.00     0.053 A 
ATOM      4  C   UNL d   1      50.342  34.515  52.608  0.00  0.00     0.127 A 
ATOM      5  O   UNL d   1      50.571  34.968  53.256  0.00  0.00    -0.211 OA
ENDROOT
BRANCH   1   6
ATOM      6  C   UNL d   1      52.808  33.107  53.204  0.00  0.00     0.299 C 
ATOM      7  N   UNL d   1      52.704  32.256  53.249  0.00  0.00    -0.203 NA
ATOM      8  O   UNL d   1      53.570  33.408  53.228  0.00  0.00    -0.263 OA
BRANCH   7   9
ATOM      9  C   UNL d   1      53.391  31.740  53.318  0.00  0.00     0.127 C 
BRANCH   9  10
ATOM     10  C   UNL d   1      53.290  30.896  53.458  0.00  0.00     0.119 A 
ATOM     11  O   UNL d   1      53.532  30.464  54.154  0.00  0.00    -0.304 OA
ATOM     12  C   UNL d   1      53.320  29.648  54.045  0.00  0.00     0.123 A 
ATOM     13  C   UNL d   1      52.938  29.568  53.265  0.00  0.00     0.029 A 
ATOM     14  C   UNL d   1      52.922  30.352  52.903  0.00  0.00     0.028 A 
ENDBRANCH   9  10
ENDBRANCH   7   9
ENDBRANCH   1   6
BRANCH   4  15
ATOM     15  C   UNL d   1      49.668  34.645  52.185  0.00  0.00     0.027 A 
ATOM     16  C   UNL d   1      49.062  35.096  52.504  0.00  0.00     0.028 A 
ATOM     17  C   UNL d   1      48.389  35.221  52.075  0.00  0.00     0.119 A 
ATOM     18  O   UNL d   1      47.709  35.638  52.246  0.00  0.00    -0.300 OA
ATOM     19  C   UNL d   1      48.296  34.911  51.329  0.00  0.00     0.119 A 
ATOM     20  C   UNL d   1      47.206  35.582  51.612  0.00  0.00     0.304 A 
ATOM     21  O   UNL d   1      47.568  35.131  51.041  0.00  0.00    -0.300 OA
ATOM     22  C   UNL d   1      48.901  34.456  51.001  0.00  0.00     0.026 A 
ATOM     23  C   UNL d   1      49.572  34.329  51.425  0.00  0.00     0.004 A 
ENDBRANCH   4  15
TORSDOF 4
ENDMDL
MODEL 5
REMARK VINA RESULT:      -7.2      2.331      3.083
REMARK  4 active torsions:
REMARK  status: ('A' for Active; 'I' for Inactive)
REMARK    1  A    between atoms: C_6  and  C_1 
REMARK    2  A    between atoms: C_7  and  C_4 
REMARK       I    between atoms: N_9  and  C_6 
REMARK    3  A    between atoms: C_23  and  N_9 
REMARK    4  A    between atoms: C_11  and  C_23 
ROOT
ATOM      1  C   UNL d   1      52.462  32.956  52.986  0.00  0.00     0.168 A 
ATOM      2  N   UNL d   1      53.254  32.943  52.798  0.00  0.00    -0.121 NA
ATOM      3  C   UNL d   1      52.247  32.190  53.228  0.00  0.00     0.053 A 
ATOM      4  C   UNL d   1      52.915  31.720  53.184  0.00  0.00     0.127 A 
ATOM      5  O   UNL d   1      53.536  32.190  52.917  0.00  0.00    -0.211 OA
ENDROOT
BRANCH   1   6
ATOM      6  C   UNL d   1      51.430  34.200  52.925  0.00  0.00     0.299 C 
ATOM      7  N   UNL d   1      50.703  34.109  52.479  0.00  0.00    -0.203 NA
ATOM      8  O   UNL d   1      51.569  34.914  53.302  0.00  0.00    -0.263 OA
BRANCH   7   9
ATOM      9  C   UNL d   1      50.140  34.760  52.434  0.00  0.00     0.127 C 
BRANCH   9  10
ATOM     10  C   UNL d   1      49.496  34.741  51.862  0.00  0.00     0.119 A 
ATOM     11  O   UNL d   1      49.558  34.547  51.032  0.00  0.00    -0.304 OA
ATOM     12  C   UNL d   1      48.781  34.601  50.690  0.00  0.00     0.123 A 
ATOM     13  C   UNL d   1      48.223  34.834  51.318  0.00  0.00     0.029 A 
ATOM     14  C   UNL d   1      48.676  34.920  52.049  0.00  0.00     0.028 A 
ENDBRANCH   9  10
ENDBRANCH   7   9
ENDBRANCH   1   6
BRANCH   4  15
ATOM     15  C   UNL d   1      52.989  30.938  53.360  0.00  0.00     0.027 A 
ATOM     16  C   UNL d   1      53.154  30.702  54.128  0.00  0.00     0.028 A 
ATOM     17  C   UNL d   1      53.227  29.915  54.298  0.00  0.00     0.119 A 
ATOM     18  O   UNL d   1      53.386  29.526  54.997  0.00  0.00    -0.300 OA
ATOM     19  C   UNL d   1      53.139  29.346  53.723  0.00  0.00     0.119 A 
ATOM     20  C   UNL d   1      53.396  28.728  54.851  0.00  0.00     0.304 A 
ATOM     21  O   UNL d   1      53.243  28.613  54.062  0.00  0.00    -0.300 OA
ATOM     22  C   UNL d   1      52.973  29.575  52.949  0.00  0.00     0.026 A 
ATOM     23  C   UNL d   1      52.900  30.356  52.776  0.00  0.00     0.004 A 
ENDBRANCH   4  15
TORSDOF 4
ENDMDL
MODEL 6
REMARK VINA RESULT:      -7.2      1.235      1.984
REMARK  4 active torsions:
REMARK  status: ('A' for Active; 'I' for Inactive)
REMARK    1  A    between atoms: C_6  and  C_1 
REMARK    2  A    between atoms: C_7  and  C_4 
REMARK       I    between atoms: N_9  and  C_6 
REMARK    3  A    between atoms: C_23  and  N_9 
REMARK    4  A    between atoms: C_11  and  C_23 
ROOT
ATOM      1  C   UNL d   1      49.572  34.794  52.279  0.00  0.00     0.168 A 
ATOM      2  N   UNL d   1      49.891  34.431  51.623  0.00  0.00    -0.121 NA
ATOM      3  C   UNL d   1      50.097  34.678  52.913  0.00  0.00     0.053 A 
ATOM      4  C   UNL d   1      50.731  34.244  52.633  0.00  0.00     0.127 A 
ATOM      5  O   UNL d   1      50.599  34.093  51.834  0.00  0.00    -0.211 OA
ENDROOT
BRANCH   1   6
ATOM      6  C   UNL d   1      48.181  35.610  52.405  0.00  0.00     0.299 C 
ATOM      7  N   UNL d   1      47.937  35.889  53.178  0.00  0.00    -0.203 NA
ATOM      8  O   UNL d   1      47.697  35.769  51.763  0.00  0.00    -0.263 OA
BRANCH   7   9
ATOM      9  C   UNL d   1      47.199  36.326  53.266  0.00  0.00     0.127 C 
BRANCH   9  10
ATOM     10  C   UNL d   1      46.864  36.464  54.048  0.00  0.00     0.119 A 
ATOM     11  O   UNL d   1      47.300  36.602  54.771  0.00  0.00    -0.304 OA
ATOM     12  C   UNL d   1      46.738  36.708  55.400  0.00  0.00     0.123 A 
ATOM     13  C   UNL d   1      45.936  36.635  55.066  0.00  0.00     0.029 A 
ATOM     14  C   UNL d   1      46.022  36.482  54.219  0.00  0.00     0.028 A 
ENDBRANCH   9  10
ENDBRANCH   7   9
ENDBRANCH   1   6
BRANCH   4  15
ATOM     15  C   UNL d   1      51.382  33.992  53.035  0.00  0.00     0.027 A 
ATOM     16  C   UNL d   1      51.882  34.534  53.393  0.00  0.00     0.028 A 
ATOM     17  C   UNL d   1      52.532  34.275  53.795  0.00  0.00     0.119 A 
ATOM     18  O   UNL d   1      53.116  34.678  54.197  0.00  0.00    -0.300 OA
ATOM     19  C   UNL d   1      52.707  33.482  53.855  0.00  0.00     0.119 A 
ATOM     20  C   UNL d   1      53.641  34.139  54.500  0.00  0.00     0.304 A 
ATOM     21  O   UNL d   1      53.389  33.396  54.289  0.00  0.00    -0.300 OA
ATOM     22  C   UNL d   1      52.209  32.930  53.499  0.00  0.00     0.026 A 
ATOM     23  C   UNL d   1      51.561  33.184  53.098  0.00  0.00     0.004 A 
ENDBRANCH   4  15
TORSDOF 4
ENDMDL
MODEL 7
REMARK VINA RESULT:      -5.9      2.998      5.452
REMARK  4 active torsions:
REMARK  status: ('A' for Active; 'I' for Inactive)
REMARK    1  A    between atoms: C_6  and  C_1 
REMARK    2  A    between atoms: C_7  and  C_4 
REMARK       I    between atoms: N_9  and  C_6 
REMARK    3  A    between atoms: C_23  and  N_9 
REMARK    4  A    between atoms: C_11  and  C_23 
ROOT
ATOM      1  C   UNL d   1      52.527  32.140  52.794  0.00  0.00     0.168 A 
ATOM      2  N   UNL d   1      52.044  32.549  52.282  0.00  0.00    -0.121 NA
ATOM      3  C   UNL d   1      52.839  32.686  53.338  0.00  0.00     0.053 A 
ATOM      4  C   UNL d   1      52.540  33.423  53.148  0.00  0.00     0.127 A 
ATOM      5  O   UNL d   1      52.048  33.334  52.494  0.00  0.00    -0.211 OA
ENDROOT
BRANCH   1   6
ATOM      6  C   UNL d   1      52.867  30.559  52.815  0.00  0.00     0.299 C 
ATOM      7  N   UNL d   1      52.943  30.165  53.573  0.00  0.00    -0.203 NA
ATOM      8  O   UNL d   1      52.970  30.116  52.133  0.00  0.00    -0.263 OA
BRANCH   7   9
ATOM      9  C   UNL d   1      53.124  29.323  53.605  0.00  0.00     0.127 C 
BRANCH   9  10
ATOM     10  C   UNL d   1      53.266  28.936  54.362  0.00  0.00     0.119 A 
ATOM     11  O   UNL d   1      53.609  28.162  54.481  0.00  0.00    -0.304 OA
ATOM     12  C   UNL d   1      53.640  28.014  55.318  0.00  0.00     0.123 A 
ATOM     13  C   UNL d   1      53.312  28.708  55.730  0.00  0.00     0.029 A 
ATOM     14  C   UNL d   1      53.079  29.282  55.127  0.00  0.00     0.028 A 
ENDBRANCH   9  10
ENDBRANCH   7   9
ENDBRANCH   1   6
BRANCH   4  15
ATOM     15  C   UNL d   1      52.679  34.128  53.512  0.00  0.00     0.027 A 
ATOM     16  C   UNL d   1      52.907  34.148  54.299  0.00  0.00     0.028 A 
ATOM     17  C   UNL d   1      53.045  34.859  54.658  0.00  0.00     0.119 A 
ATOM     18  O   UNL d   1      53.273  35.045  55.418  0.00  0.00    -0.300 OA
ATOM     19  C   UNL d   1      52.963  35.561  54.256  0.00  0.00     0.119 A 
ATOM     20  C   UNL d   1      53.330  35.852  55.481  0.00  0.00     0.304 A 
ATOM     21  O   UNL d   1      53.138  36.175  54.760  0.00  0.00    -0.300 OA
ATOM     22  C   UNL d   1      52.733  35.550  53.464  0.00  0.00     0.026 A 
ATOM     23  C   UNL d   1      52.596  34.845  53.104  0.00  0.00     0.004 A 
ENDBRANCH   4  15
TORSDOF 4
ENDMDL
