MODEL 1
REMARK VINA RESULT:      88.2      0.000      0.000
REMARK  5 active torsions:
REMARK  status: ('A' for Active; 'I' for Inactive)
REMARK    1  A    between atoms: O_8  and  C_2 
REMARK    2  A    between atoms: C_9  and  C_5 
REMARK    3  A    between atoms: C_14  and  O_8 
REMARK    4  A    between atoms: N_11  and  C_9 
REMARK    5  A    between atoms: O_21  and  C_18 
ROOT
ATOM      1  C   UNL d   1     -48.387  29.585  34.634  0.00  0.00     0.108 A 
ATOM      2  C   UNL d   1     -49.535  28.380  34.669  0.00  0.00     0.161 A 
ATOM      3  C   UNL d   1     -48.421  29.058  35.281  0.00  0.00     0.064 A 
ATOM      4  C   UNL d   1     -48.988  28.465  35.296  0.00  0.00     0.222 A 
ATOM      5  C   UNL d   1     -47.813  30.188  34.616  0.00  0.00     0.079 A 
ATOM      6  O   UNL d   1     -48.924  29.515  34.003  0.00  0.00    -0.305 OA
ATOM      7  C   UNL d   1     -49.501  28.910  34.018  0.00  0.00     0.126 A 
ATOM      8  C   UNL d   1     -47.874  29.148  35.901  0.00  0.00     0.009 A 
ATOM      9  C   UNL d   1     -47.276  30.266  35.238  0.00  0.00     0.199 A 
ATOM     10  O   UNL d   1     -49.026  27.942  35.934  0.00  0.00    -0.284 OA
ATOM     11  C   UNL d   1     -47.307  29.746  35.881  0.00  0.00     0.042 A 
ATOM     12  O   UNL d   1     -46.709  30.865  35.217  0.00  0.00    -0.286 OA
ATOM     13  C   UNL d   1     -50.038  28.831  33.397  0.00  0.00     0.029 C 
ENDROOT
BRANCH   2  14
ATOM     14  O   UNL d   1     -50.103  27.784  34.687  0.00  0.00    -0.302 OA
BRANCH  14  15
ATOM     15  C   UNL d   1     -50.005  27.106  34.226  0.00  0.00     0.102 A 
ATOM     16  C   UNL d   1     -50.665  26.666  33.999  0.00  0.00     0.049 A 
ATOM     17  C   UNL d   1     -50.568  25.988  33.539  0.00  0.00     0.096 A 
ATOM     18  C   UNL d   1     -49.812  25.751  33.306  0.00  0.00     0.024 A 
ATOM     19  C   UNL d   1     -49.146  26.201  33.539  0.00  0.00     0.004 A 
ATOM     20  C   UNL d   1     -49.251  26.873  33.997  0.00  0.00     0.025 A 
BRANCH  17  21
ATOM     21  O   UNL d   1     -51.228  25.548  33.312  0.00  0.00    -0.328 OA
ATOM     22  C   UNL d   1     -51.191  24.724  33.310  0.00  0.00     0.181 C 
ENDBRANCH  17  21
ENDBRANCH  14  15
ENDBRANCH   2  14
BRANCH   5  23
ATOM     23  C   UNL d   1     -47.783  30.702  33.981  0.00  0.00     0.086 C 
BRANCH  23  24
ATOM     24  N   UNL d   1     -47.889  31.515  34.102  0.00  0.00    -0.299 N 
ATOM     25  C   UNL d   1     -48.508  31.780  34.581  0.00  0.00     0.107 A 
ATOM     26  C   UNL d   1     -48.615  32.589  34.703  0.00  0.00     0.142 A 
ATOM     27  O   UNL d   1     -48.103  33.133  34.346  0.00  0.00    -0.300 OA
ATOM     28  C   UNL d   1     -47.484  32.864  33.867  0.00  0.00     0.142 A 
ATOM     29  C   UNL d   1     -47.376  32.050  33.743  0.00  0.00     0.107 A 
ENDBRANCH  23  24
ENDBRANCH   5  23
TORSDOF 5
ENDMDL
MODEL 2
REMARK VINA RESULT:      89.0      0.752      1.033
REMARK  5 active torsions:
REMARK  status: ('A' for Active; 'I' for Inactive)
REMARK    1  A    between atoms: O_8  and  C_2 
REMARK    2  A    between atoms: C_9  and  C_5 
REMARK    3  A    between atoms: C_14  and  O_8 
REMARK    4  A    between atoms: N_11  and  C_9 
REMARK    5  A    between atoms: O_21  and  C_18 
ROOT
ATOM      1  C   UNL d   1     -47.798  29.971  34.908  0.00  0.00     0.108 A 
ATOM      2  C   UNL d   1     -48.526  28.474  34.931  0.00  0.00     0.161 A 
ATOM      3  C   UNL d   1     -47.924  29.579  35.634  0.00  0.00     0.064 A 
ATOM      4  C   UNL d   1     -48.283  28.841  35.642  0.00  0.00     0.222 A 
ATOM      5  C   UNL d   1     -47.434  30.720  34.895  0.00  0.00     0.079 A 
ATOM      6  O   UNL d   1     -48.034  29.621  34.191  0.00  0.00    -0.305 OA
ATOM      7  C   UNL d   1     -48.400  28.869  34.201  0.00  0.00     0.126 A 
ATOM      8  C   UNL d   1     -47.680  29.948  36.337  0.00  0.00     0.009 A 
ATOM      9  C   UNL d   1     -47.197  31.076  35.601  0.00  0.00     0.199 A 
ATOM     10  O   UNL d   1     -48.409  28.449  36.358  0.00  0.00    -0.284 OA
ATOM     11  C   UNL d   1     -47.320  30.690  36.322  0.00  0.00     0.042 A 
ATOM     12  O   UNL d   1     -46.836  31.818  35.584  0.00  0.00    -0.286 OA
ATOM     13  C   UNL d   1     -48.637  28.512  33.496  0.00  0.00     0.029 C 
ENDROOT
BRANCH   2  14
ATOM     14  O   UNL d   1     -48.886  27.734  34.943  0.00  0.00    -0.302 OA
BRANCH  14  15
ATOM     15  C   UNL d   1     -49.502  27.565  34.420  0.00  0.00     0.102 A 
ATOM     16  C   UNL d   1     -49.597  26.797  34.135  0.00  0.00     0.049 A 
ATOM     17  C   UNL d   1     -50.213  26.627  33.612  0.00  0.00     0.096 A 
ATOM     18  C   UNL d   1     -50.732  27.225  33.375  0.00  0.00     0.024 A 
ATOM     19  C   UNL d   1     -50.630  28.002  33.668  0.00  0.00     0.004 A 
ATOM     20  C   UNL d   1     -50.016  28.162  34.187  0.00  0.00     0.025 A 
BRANCH  17  21
ATOM     21  O   UNL d   1     -50.309  25.859  33.326  0.00  0.00    -0.328 OA
ATOM     22  C   UNL d   1     -51.057  25.511  33.329  0.00  0.00     0.181 C 
ENDBRANCH  17  21
ENDBRANCH  14  15
ENDBRANCH   2  14
BRANCH   5  23
ATOM     23  C   UNL d   1     -47.313  31.101  34.182  0.00  0.00     0.086 C 
BRANCH  23  24
ATOM     24  N   UNL d   1     -47.646  31.848  34.051  0.00  0.00    -0.299 N 
ATOM     25  C   UNL d   1     -48.468  31.929  34.017  0.00  0.00     0.107 A 
ATOM     26  C   UNL d   1     -48.802  32.672  33.886  0.00  0.00     0.142 A 
ATOM     27  O   UNL d   1     -48.314  33.334  33.790  0.00  0.00    -0.300 OA
ATOM     28  C   UNL d   1     -47.492  33.250  33.825  0.00  0.00     0.142 A 
ATOM     29  C   UNL d   1     -47.155  32.502  33.956  0.00  0.00     0.107 A 
ENDBRANCH  23  24
ENDBRANCH   5  23
TORSDOF 5
ENDMDL
MODEL 3
REMARK VINA RESULT:      89.1      3.615      5.015
REMARK  5 active torsions:
REMARK  status: ('A' for Active; 'I' for Inactive)
REMARK    1  A    between atoms: O_8  and  C_2 
REMARK    2  A    between atoms: C_9  and  C_5 
REMARK    3  A    between atoms: C_14  and  O_8 
REMARK    4  A    between atoms: N_11  and  C_9 
REMARK    5  A    between atoms: O_21  and  C_18 
ROOT
ATOM      1  C   UNL d   1     -51.032  26.725  35.763  0.00  0.00     0.108 A 
ATOM      2  C   UNL d   1     -51.190  26.020  34.264  0.00  0.00     0.161 A 
ATOM      3  C   UNL d   1     -50.370  26.665  35.258  0.00  0.00     0.064 A 
ATOM      4  C   UNL d   1     -50.451  26.316  34.519  0.00  0.00     0.222 A 
ATOM      5  C   UNL d   1     -50.953  27.078  36.513  0.00  0.00     0.079 A 
ATOM      6  O   UNL d   1     -51.774  26.435  35.525  0.00  0.00    -0.305 OA
ATOM      7  C   UNL d   1     -51.855  26.081  34.772  0.00  0.00     0.126 A 
ATOM      8  C   UNL d   1     -49.638  26.961  35.517  0.00  0.00     0.009 A 
ATOM      9  C   UNL d   1     -50.221  27.368  36.759  0.00  0.00     0.199 A 
ATOM     10  O   UNL d   1     -49.799  26.254  34.015  0.00  0.00    -0.284 OA
ATOM     11  C   UNL d   1     -49.563  27.310  36.261  0.00  0.00     0.042 A 
ATOM     12  O   UNL d   1     -50.147  27.717  37.503  0.00  0.00    -0.286 OA
ATOM     13  C   UNL d   1     -52.587  25.790  34.526  0.00  0.00     0.029 C 
ENDROOT
BRANCH   2  14
ATOM     14  O   UNL d   1     -51.267  25.671  33.522  0.00  0.00    -0.302 OA
BRANCH  14  15
ATOM     15  C   UNL d   1     -51.281  24.849  33.451  0.00  0.00     0.102 A 
ATOM     16  C   UNL d   1     -52.003  24.449  33.452  0.00  0.00     0.049 A 
ATOM     17  C   UNL d   1     -52.016  23.627  33.380  0.00  0.00     0.096 A 
ATOM     18  C   UNL d   1     -51.309  23.206  33.309  0.00  0.00     0.024 A 
ATOM     19  C   UNL d   1     -50.581  23.617  33.308  0.00  0.00     0.004 A 
ATOM     20  C   UNL d   1     -50.575  24.433  33.380  0.00  0.00     0.025 A 
BRANCH  17  21
ATOM     21  O   UNL d   1     -52.738  23.227  33.381  0.00  0.00    -0.328 OA
ATOM     22  C   UNL d   1     -53.264  23.332  34.009  0.00  0.00     0.181 C 
ENDBRANCH  17  21
ENDBRANCH  14  15
ENDBRANCH   2  14
BRANCH   5  23
ATOM     23  C   UNL d   1     -51.604  27.135  37.006  0.00  0.00     0.086 C 
BRANCH  23  24
ATOM     24  N   UNL d   1     -51.735  26.559  37.586  0.00  0.00    -0.299 N 
ATOM     25  C   UNL d   1     -51.345  26.616  38.314  0.00  0.00     0.107 A 
ATOM     26  C   UNL d   1     -51.474  26.043  38.893  0.00  0.00     0.142 A 
ATOM     27  O   UNL d   1     -51.992  25.414  38.746  0.00  0.00    -0.300 OA
ATOM     28  C   UNL d   1     -52.380  25.361  38.018  0.00  0.00     0.142 A 
ATOM     29  C   UNL d   1     -52.251  25.936  37.433  0.00  0.00     0.107 A 
ENDBRANCH  23  24
ENDBRANCH   5  23
TORSDOF 5
ENDMDL
