MODEL 1
REMARK VINA RESULT:      -2.7      0.000      0.000
REMARK  4 active torsions:
REMARK  status: ('A' for Active; 'I' for Inactive)
REMARK    1  A    between atoms: C_7  and  N_2 
REMARK    2  A    between atoms: C_12  and  C_7 
REMARK    3  A    between atoms: C_9  and  O_11 
REMARK    4  A    between atoms: O_11  and  C_12 
ROOT
ATOM      1  C   UNL d   1      33.218  19.808 -23.728  0.00  0.00     0.296 A 
ATOM      2  N   UNL d   1      33.229  19.304 -23.079  0.00  0.00    -0.266 N 
ATOM      3  S   UNL d   1      33.213  20.594 -23.438  0.00  0.00    -0.025 SA
ATOM      4  C   UNL d   1      33.231  19.767 -22.391  0.00  0.00     0.074 A 
ATOM      5  C   UNL d   1      33.222  20.558 -22.611  0.00  0.00     0.050 A 
ATOM      6  O   UNL d   1      33.212  19.588 -24.519  0.00  0.00    -0.259 OA
ATOM      7  C   UNL d   1      33.241  19.555 -21.591  0.00  0.00     0.018 A 
ATOM      8  C   UNL d   1      33.222  21.156 -22.036  0.00  0.00     0.008 A 
ATOM      9  C   UNL d   1      33.241  20.149 -21.015  0.00  0.00     0.002 A 
ATOM     10  C   UNL d   1      33.231  20.940 -21.235  0.00  0.00     0.001 A 
ENDROOT
BRANCH   2  11
ATOM     11  C   UNL d   1      33.236  18.479 -23.107  0.00  0.00     0.110 C 
BRANCH  11  12
ATOM     12  C   UNL d   1      32.582  18.067 -23.387  0.00  0.00     0.142 C 
BRANCH  12  13
ATOM     13  O   UNL d   1      32.465  17.270 -23.194  0.00  0.00    -0.304 OA
BRANCH  13  14
ATOM     14  C   UNL d   1      31.995  16.790 -23.673  0.00  0.00     0.100 A 
ATOM     15  C   UNL d   1      31.179  16.759 -23.550  0.00  0.00     0.025 A 
ATOM     16  C   UNL d   1      30.713  16.282 -24.026  0.00  0.00     0.002 A 
ATOM     17  C   UNL d   1      29.898  16.251 -23.903  0.00  0.00     0.000 C 
ATOM     18  C   UNL d   1      31.062  15.835 -24.626  0.00  0.00     0.000 A 
ATOM     19  C   UNL d   1      31.880  15.869 -24.746  0.00  0.00     0.002 A 
ATOM     20  C   UNL d   1      32.341  16.350 -24.264  0.00  0.00     0.025 A 
ENDBRANCH  13  14
ENDBRANCH  12  13
ENDBRANCH  11  12
ENDBRANCH   2  11
TORSDOF 4
ENDMDL
MODEL 2
REMARK VINA RESULT:      -2.5      1.216      1.801
REMARK  4 active torsions:
REMARK  status: ('A' for Active; 'I' for Inactive)
REMARK    1  A    between atoms: C_7  and  N_2 
REMARK    2  A    between atoms: C_12  and  C_7 
REMARK    3  A    between atoms: C_9  and  O_11 
REMARK    4  A    between atoms: O_11  and  C_12 
ROOT
ATOM      1  C   UNL d   1      33.187  19.974 -21.713  0.00  0.00     0.296 A 
ATOM      2  N   UNL d   1      33.214  20.102 -22.525  0.00  0.00    -0.266 N 
ATOM      3  S   UNL d   1      33.167  20.723 -21.338  0.00  0.00    -0.025 SA
ATOM      4  C   UNL d   1      33.210  20.921 -22.657  0.00  0.00     0.074 A 
ATOM      5  C   UNL d   1      33.181  21.301 -21.930  0.00  0.00     0.050 A 
ATOM      6  O   UNL d   1      33.181  19.246 -21.333  0.00  0.00    -0.259 OA
ATOM      7  C   UNL d   1      33.230  21.361 -23.358  0.00  0.00     0.018 A 
ATOM      8  C   UNL d   1      33.171  22.130 -21.887  0.00  0.00     0.008 A 
ATOM      9  C   UNL d   1      33.220  22.187 -23.319  0.00  0.00     0.002 A 
ATOM     10  C   UNL d   1      33.191  22.567 -22.592  0.00  0.00     0.001 A 
ENDROOT
BRANCH   2  11
ATOM     11  C   UNL d   1      33.240  19.519 -23.107  0.00  0.00     0.110 C 
BRANCH  11  12
ATOM     12  C   UNL d   1      32.607  19.004 -23.208  0.00  0.00     0.142 C 
BRANCH  12  13
ATOM     13  O   UNL d   1      32.498  18.595 -23.920  0.00  0.00    -0.304 OA
BRANCH  13  14
ATOM     14  C   UNL d   1      31.987  17.949 -23.956  0.00  0.00     0.100 A 
ATOM     15  C   UNL d   1      32.203  17.234 -23.604  0.00  0.00     0.025 A 
ATOM     16  C   UNL d   1      31.694  16.592 -23.640  0.00  0.00     0.002 A 
ATOM     17  C   UNL d   1      31.910  15.877 -23.288  0.00  0.00     0.000 C 
ATOM     18  C   UNL d   1      30.969  16.664 -24.028  0.00  0.00     0.000 A 
ATOM     19  C   UNL d   1      30.757  17.383 -24.379  0.00  0.00     0.002 A 
ATOM     20  C   UNL d   1      31.272  18.021 -24.338  0.00  0.00     0.025 A 
ENDBRANCH  13  14
ENDBRANCH  12  13
ENDBRANCH  11  12
ENDBRANCH   2  11
TORSDOF 4
ENDMDL
MODEL 3
REMARK VINA RESULT:      -2.4      1.984      3.092
REMARK  4 active torsions:
REMARK  status: ('A' for Active; 'I' for Inactive)
REMARK    1  A    between atoms: C_7  and  N_2 
REMARK    2  A    between atoms: C_12  and  C_7 
REMARK    3  A    between atoms: C_9  and  O_11 
REMARK    4  A    between atoms: O_11  and  C_12 
ROOT
ATOM      1  C   UNL d   1      32.468  16.984 -23.460  0.00  0.00     0.296 A 
ATOM      2  N   UNL d   1      32.068  17.196 -24.146  0.00  0.00    -0.266 N 
ATOM      3  S   UNL d   1      32.979  17.617 -23.258  0.00  0.00    -0.025 SA
ATOM      4  C   UNL d   1      32.324  17.952 -24.372  0.00  0.00     0.074 A 
ATOM      5  C   UNL d   1      32.883  18.209 -23.828  0.00  0.00     0.050 A 
ATOM      6  O   UNL d   1      32.386  16.281 -23.043  0.00  0.00    -0.259 OA
ATOM      7  C   UNL d   1      32.111  18.432 -25.011  0.00  0.00     0.018 A 
ATOM      8  C   UNL d   1      33.241  18.953 -23.911  0.00  0.00     0.008 A 
ATOM      9  C   UNL d   1      32.466  19.174 -25.097  0.00  0.00     0.002 A 
ATOM     10  C   UNL d   1      33.025  19.431 -24.553  0.00  0.00     0.001 A 
ENDROOT
BRANCH   2  11
ATOM     11  C   UNL d   1      31.508  16.738 -24.542  0.00  0.00     0.110 C 
BRANCH  11  12
ATOM     12  C   UNL d   1      30.799  16.538 -24.175  0.00  0.00     0.142 C 
BRANCH  12  13
ATOM     13  O   UNL d   1      30.097  16.473 -24.609  0.00  0.00    -0.304 OA
BRANCH  13  14
ATOM     14  C   UNL d   1      29.379  16.347 -24.224  0.00  0.00     0.100 A 
ATOM     15  C   UNL d   1      28.940  16.991 -23.953  0.00  0.00     0.025 A 
ATOM     16  C   UNL d   1      28.226  16.866 -23.570  0.00  0.00     0.002 A 
ATOM     17  C   UNL d   1      27.787  17.510 -23.299  0.00  0.00     0.000 C 
ATOM     18  C   UNL d   1      27.950  16.096 -23.457  0.00  0.00     0.000 A 
ATOM     19  C   UNL d   1      28.394  15.453 -23.730  0.00  0.00     0.002 A 
ATOM     20  C   UNL d   1      29.109  15.587 -24.113  0.00  0.00     0.025 A 
ENDBRANCH  13  14
ENDBRANCH  12  13
ENDBRANCH  11  12
ENDBRANCH   2  11
TORSDOF 4
ENDMDL
