MODEL 1
REMARK VINA RESULT:     108.9      0.000      0.000
REMARK  5 active torsions:
REMARK  status: ('A' for Active; 'I' for Inactive)
REMARK    1  A    between atoms: N_3  and  S_1 
REMARK    2  A    between atoms: C_11  and  S_1 
REMARK    3  A    between atoms: C_9  and  C_2 
REMARK    4  A    between atoms: C_4  and  N_7 
REMARK       I    between atoms: N_7  and  C_10 
REMARK    5  A    between atoms: C_10  and  C_14 
ROOT
ATOM      1  C   UNL d   1     -59.527 -99.656 -42.319  0.00  0.00     0.104 A 
ATOM      2  C   UNL d   1     -59.335 -99.447 -43.952  0.00  0.00     0.058 A 
ATOM      3  C   UNL d   1     -59.418 -98.912 -42.629  0.00  0.00     0.013 A 
ATOM      4  C   UNL d   1     -59.540-100.304 -42.839  0.00  0.00     0.013 A 
ATOM      5  C   UNL d   1     -59.322 -98.800 -43.440  0.00  0.00     0.005 A 
ATOM      6  C   UNL d   1     -59.443-100.192 -43.650  0.00  0.00     0.005 A 
ENDROOT
BRANCH   2   7
ATOM      7  C   UNL d   1     -59.236 -99.339 -44.784  0.00  0.00     0.282 C 
ATOM      8  N   UNL d   1     -58.479 -99.273 -45.111  0.00  0.00    -0.165 NA
ATOM      9  O   UNL d   1     -59.892 -99.303 -45.255  0.00  0.00    -0.265 OA
BRANCH   8  10
ATOM     10  C   UNL d   1     -57.827 -99.310 -44.632  0.00  0.00     0.297 A 
ATOM     11  O   UNL d   1     -57.271 -99.921 -44.736  0.00  0.00    -0.253 OA
ATOM     12  C   UNL d   1     -56.683 -99.808 -44.175  0.00  0.00     0.207 A 
ATOM     13  N   UNL d   1     -56.871 -99.147 -43.738  0.00  0.00    -0.119 NA
ATOM     14  N   UNL d   1     -57.580 -98.835 -44.017  0.00  0.00    -0.101 NA
BRANCH  12  15
ATOM     15  C   UNL d   1     -56.036-100.324 -44.124  0.00  0.00     0.054 A 
ATOM     16  C   UNL d   1     -55.449-100.284 -44.699  0.00  0.00     0.061 A 
ATOM     17 CL   UNL d   1     -55.507 -99.738 -45.315  0.00  0.00    -0.082 Cl
ATOM     18  C   UNL d   1     -54.804-100.798 -44.650  0.00  0.00     0.011 A 
ATOM     19  C   UNL d   1     -54.738-101.347 -44.036  0.00  0.00     0.001 A 
ATOM     20  C   UNL d   1     -55.319-101.387 -43.467  0.00  0.00     0.000 A 
ATOM     21  C   UNL d   1     -55.968-100.877 -43.508  0.00  0.00     0.004 A 
ENDBRANCH  12  15
ENDBRANCH   8  10
ENDBRANCH   2   7
BRANCH   1  22
ATOM     22  S   UNL d   1     -59.624 -99.756 -41.497  0.00  0.00     0.271 S 
ATOM     23  O   UNL d   1     -59.361-100.540 -41.550  0.00  0.00    -0.200 OA
ATOM     24  O   UNL d   1     -59.886 -98.975 -41.445  0.00  0.00    -0.200 OA
BRANCH  22  25
ATOM     25  N   UNL d   1     -59.727 -99.832 -40.687  0.00  0.00    -0.231 N 
ATOM     26  C   UNL d   1     -59.797-100.592 -40.361  0.00  0.00     0.075 A 
ATOM     27  C   UNL d   1     -59.765-101.256 -40.845  0.00  0.00     0.020 C 
ATOM     28  C   UNL d   1     -59.901-100.680 -39.547  0.00  0.00     0.018 A 
ATOM     29  C   UNL d   1     -59.933-100.016 -39.063  0.00  0.00     0.003 A 
ATOM     30  C   UNL d   1     -59.862 -99.264 -39.392  0.00  0.00     0.020 A 
ATOM     31  C   UNL d   1     -59.759 -99.176 -40.207  0.00  0.00     0.092 A 
ENDBRANCH  22  25
ENDBRANCH   1  22
TORSDOF 5
ENDMDL
