MODEL 1
REMARK VINA RESULT:      -4.7      0.000      0.000
REMARK  4 active torsions:
REMARK  status: ('A' for Active; 'I' for Inactive)
REMARK    1  A    between atoms: C_6  and  C_1 
REMARK    2  A    between atoms: C_4  and  C_8 
REMARK    3  A    between atoms: O_18  and  C_6 
REMARK    4  A    between atoms: C_19  and  O_18 
ROOT
ATOM      1  C   UNL d   1     -41.510-122.496 -53.151  0.00  0.00     0.121 A 
ATOM      2  C   UNL d   1     -41.619-122.719 -51.748  0.00  0.00     0.057 A 
ATOM      3  C   UNL d   1     -41.681-122.994 -52.523  0.00  0.00     0.204 A 
ATOM      4  C   UNL d   1     -41.792-123.225 -51.121  0.00  0.00     0.009 A 
ATOM      5  N   UNL d   1     -41.212-121.435 -52.232  0.00  0.00    -0.244 NA
ATOM      6  C   UNL d   1     -41.732-122.953 -50.347  0.00  0.00     0.072 A 
ATOM      7  C   UNL d   1     -41.274-121.710 -53.009  0.00  0.00     0.107 A 
ATOM      8  C   UNL d   1     -41.386-121.941 -51.599  0.00  0.00     0.085 A 
ATOM      9  C   UNL d   1     -41.498-122.176 -50.198  0.00  0.00     0.005 A 
ATOM     10  C   UNL d   1     -41.326-121.671 -50.824  0.00  0.00     0.019 A 
ATOM     11  O   UNL d   1     -41.914-123.772 -52.668  0.00  0.00    -0.286 OA
ENDROOT
BRANCH   1  12
ATOM     12  C   UNL d   1     -41.570-122.768 -53.925  0.00  0.00     0.305 C 
ATOM     13  O   UNL d   1     -41.127-123.419 -54.171  0.00  0.00    -0.259 OA
BRANCH  12  14
ATOM     14  O   UNL d   1     -42.075-122.391 -54.464  0.00  0.00    -0.271 OA
BRANCH  14  15
ATOM     15  C   UNL d   1     -41.957-122.490 -55.274  0.00  0.00     0.126 C 
ATOM     16  C   UNL d   1     -42.404-122.046 -55.809  0.00  0.00     0.029 C 
ENDBRANCH  14  15
ENDBRANCH  12  14
ENDBRANCH   1  12
BRANCH   6  17
ATOM     17  C   UNL d   1     -41.905-123.459 -49.720  0.00  0.00     0.419 C 
ATOM     18  F   UNL d   1     -42.650-123.810 -49.666  0.00  0.00    -0.166 F 
ATOM     19  F   UNL d   1     -41.332-123.616 -49.145  0.00  0.00    -0.166 F 
ATOM     20  F   UNL d   1     -41.159-123.110 -49.771  0.00  0.00    -0.166 F 
ENDBRANCH   6  17
TORSDOF 4
ENDMDL
MODEL 2
REMARK VINA RESULT:      -4.6      1.210      1.543
REMARK  4 active torsions:
REMARK  status: ('A' for Active; 'I' for Inactive)
REMARK    1  A    between atoms: C_6  and  C_1 
REMARK    2  A    between atoms: C_4  and  C_8 
REMARK    3  A    between atoms: O_18  and  C_6 
REMARK    4  A    between atoms: C_19  and  O_18 
ROOT
ATOM      1  C   UNL d   1     -41.557-122.618 -52.373  0.00  0.00     0.121 A 
ATOM      2  C   UNL d   1     -41.886-122.699 -50.989  0.00  0.00     0.057 A 
ATOM      3  C   UNL d   1     -41.918-122.299 -51.710  0.00  0.00     0.204 A 
ATOM      4  C   UNL d   1     -42.251-122.373 -50.326  0.00  0.00     0.009 A 
ATOM      5  N   UNL d   1     -41.125-123.746 -51.599  0.00  0.00    -0.244 NA
ATOM      6  C   UNL d   1     -42.221-122.770 -49.606  0.00  0.00     0.072 A 
ATOM      7  C   UNL d   1     -41.156-123.346 -52.321  0.00  0.00     0.107 A 
ATOM      8  C   UNL d   1     -41.491-123.421 -50.930  0.00  0.00     0.085 A 
ATOM      9  C   UNL d   1     -41.826-123.492 -49.547  0.00  0.00     0.005 A 
ATOM     10  C   UNL d   1     -41.462-123.817 -50.208  0.00  0.00     0.019 A 
ATOM     11  O   UNL d   1     -42.313-121.577 -51.765  0.00  0.00    -0.286 OA
ENDROOT
BRANCH   1  12
ATOM     12  C   UNL d   1     -41.586-122.222 -53.093  0.00  0.00     0.305 C 
ATOM     13  O   UNL d   1     -41.356-121.431 -53.140  0.00  0.00    -0.259 OA
BRANCH  12  14
ATOM     14  O   UNL d   1     -41.847-122.612 -53.776  0.00  0.00    -0.271 OA
BRANCH  14  15
ATOM     15  C   UNL d   1     -41.879-122.206 -54.493  0.00  0.00     0.126 C 
ATOM     16  C   UNL d   1     -42.190-122.581 -55.161  0.00  0.00     0.029 C 
ENDBRANCH  14  15
ENDBRANCH  12  14
ENDBRANCH   1  12
BRANCH   6  17
ATOM     17  C   UNL d   1     -42.586-122.443 -48.943  0.00  0.00     0.419 C 
ATOM     18  F   UNL d   1     -43.386-122.243 -48.968  0.00  0.00    -0.166 F 
ATOM     19  F   UNL d   1     -42.150-122.316 -48.252  0.00  0.00    -0.166 F 
ATOM     20  F   UNL d   1     -41.786-122.642 -48.914  0.00  0.00    -0.166 F 
ENDBRANCH   6  17
TORSDOF 4
ENDMDL
MODEL 3
REMARK VINA RESULT:      -3.0      2.211      3.887
REMARK  4 active torsions:
REMARK  status: ('A' for Active; 'I' for Inactive)
REMARK    1  A    between atoms: C_6  and  C_1 
REMARK    2  A    between atoms: C_4  and  C_8 
REMARK    3  A    between atoms: O_18  and  C_6 
REMARK    4  A    between atoms: C_19  and  O_18 
ROOT
ATOM      1  C   UNL d   1     -41.713-122.619 -50.386  0.00  0.00     0.121 A 
ATOM      2  C   UNL d   1     -41.506-122.601 -51.796  0.00  0.00     0.057 A 
ATOM      3  C   UNL d   1     -41.698-123.011 -51.106  0.00  0.00     0.204 A 
ATOM      4  C   UNL d   1     -41.493-123.002 -52.516  0.00  0.00     0.009 A 
ATOM      5  N   UNL d   1     -41.342-121.397 -51.040  0.00  0.00    -0.244 NA
ATOM      6  C   UNL d   1     -41.302-122.596 -53.206  0.00  0.00     0.072 A 
ATOM      7  C   UNL d   1     -41.534-121.806 -50.349  0.00  0.00     0.107 A 
ATOM      8  C   UNL d   1     -41.328-121.796 -51.767  0.00  0.00     0.085 A 
ATOM      9  C   UNL d   1     -41.124-121.791 -53.178  0.00  0.00     0.005 A 
ATOM     10  C   UNL d   1     -41.137-121.392 -52.459  0.00  0.00     0.019 A 
ATOM     11  O   UNL d   1     -41.875-123.816 -51.139  0.00  0.00    -0.286 OA
ENDROOT
BRANCH   1  12
ATOM     12  C   UNL d   1     -41.904-123.024 -49.696  0.00  0.00     0.305 C 
ATOM     13  O   UNL d   1     -41.305-123.291 -49.195  0.00  0.00    -0.259 OA
BRANCH  12  14
ATOM     14  O   UNL d   1     -42.695-123.166 -49.498  0.00  0.00    -0.271 OA
BRANCH  14  15
ATOM     15  C   UNL d   1     -42.925-123.176 -48.706  0.00  0.00     0.126 C 
ATOM     16  C   UNL d   1     -43.546-123.666 -48.467  0.00  0.00     0.029 C 
ENDBRANCH  14  15
ENDBRANCH  12  14
ENDBRANCH   1  12
BRANCH   6  17
ATOM     17  C   UNL d   1     -41.289-122.997 -53.926  0.00  0.00     0.419 C 
ATOM     18  F   UNL d   1     -41.153-123.810 -53.945  0.00  0.00    -0.166 F 
ATOM     19  F   UNL d   1     -41.411-122.582 -54.631  0.00  0.00    -0.166 F 
ATOM     20  F   UNL d   1     -41.424-122.183 -53.912  0.00  0.00    -0.166 F 
ENDBRANCH   6  17
TORSDOF 4
ENDMDL
