MODEL 1
REMARK VINA RESULT:      71.5      0.000      0.000
REMARK  4 active torsions:
REMARK  status: ('A' for Active; 'I' for Inactive)
REMARK    1  A    between atoms: C_11  and  N_1 
REMARK    2  A    between atoms: S_7  and  C_2 
REMARK    3  A    between atoms: C_13  and  S_7 
REMARK    4  A    between atoms: C_8  and  C_13 
REMARK       I    between atoms: N_9  and  C_8 
ROOT
ATOM      1  N   UNL d   1      57.799  49.687  51.516  0.00  0.00    -0.254 N 
ATOM      2  C   UNL d   1      58.493  49.693  51.072  0.00  0.00     0.182 A 
ATOM      3  C   UNL d   1      57.066  49.684  51.136  0.00  0.00     0.274 A 
ATOM      4  C   UNL d   1      57.031  49.688  50.315  0.00  0.00     0.104 A 
ATOM      5  N   UNL d   1      58.455  49.696  50.247  0.00  0.00    -0.222 NA
ATOM      6  C   UNL d   1      57.726  49.694  49.871  0.00  0.00     0.095 A 
ATOM      7  S   UNL d   1      56.397  49.686  49.791  0.00  0.00    -0.080 SA
ATOM      8  O   UNL d   1      56.371  49.678  51.580  0.00  0.00    -0.266 OA
ATOM      9  C   UNL d   1      57.520  49.696  49.073  0.00  0.00     0.027 A 
ATOM     10  C   UNL d   1      56.705  49.691  49.023  0.00  0.00     0.037 A 
ENDROOT
BRANCH   2  11
ATOM     11  S   UNL d   1      59.236  49.695  51.450  0.00  0.00    -0.044 SA
BRANCH  11  12
ATOM     12  C   UNL d   1      59.676  48.998  51.489  0.00  0.00     0.099 C 
BRANCH  12  13
ATOM     13  C   UNL d   1      60.454  48.985  51.211  0.00  0.00     0.271 C 
ATOM     14  N   UNL d   1      60.771  48.288  50.907  0.00  0.00    -0.272 N 
ATOM     15  C   UNL d   1      60.446  47.535  50.813  0.00  0.00     0.083 A 
ATOM     16  C   UNL d   1      61.545  48.272  50.630  0.00  0.00     0.083 A 
ATOM     17  C   UNL d   1      61.035  47.057  50.474  0.00  0.00     0.021 A 
ATOM     18  C   UNL d   1      61.704  47.509  50.363  0.00  0.00     0.021 A 
ATOM     19  O   UNL d   1      60.913  49.670  51.239  0.00  0.00    -0.266 OA
ENDBRANCH  12  13
ENDBRANCH  11  12
ENDBRANCH   2  11
BRANCH   1  20
ATOM     20  C   UNL d   1      57.832  49.683  52.333  0.00  0.00     0.069 A 
ATOM     21  C   UNL d   1      58.559  49.707  52.721  0.00  0.00     0.018 A 
ATOM     22  C   UNL d   1      58.587  49.703  53.545  0.00  0.00     0.002 A 
ATOM     23  C   UNL d   1      57.888  49.676  53.982  0.00  0.00     0.000 A 
ATOM     24  C   UNL d   1      57.160  49.653  53.594  0.00  0.00     0.002 A 
ATOM     25  C   UNL d   1      57.908  49.672  54.819  0.00  0.00     0.000 C 
ATOM     26  C   UNL d   1      57.132  49.656  52.769  0.00  0.00     0.018 A 
ENDBRANCH   1  20
TORSDOF 4
ENDMDL
