MODEL 1
REMARK VINA RESULT:      -4.9      0.000      0.000
REMARK  0 active torsions:
REMARK  status: ('A' for Active; 'I' for Inactive)
ROOT
ATOM      1  N   UNL d   1     -42.218-121.649 -53.989  0.00  0.00    -0.270 NA
ATOM      2  C   UNL d   1     -41.489-123.094 -54.324  0.00  0.00    -0.001 A 
ATOM      3  C   UNL d   1     -41.855-122.666 -54.927  0.00  0.00    -0.004 A 
ATOM      4  C   UNL d   1     -41.855-122.076 -53.395  0.00  0.00     0.076 A 
ATOM      5  C   UNL d   1     -42.219-121.943 -54.759  0.00  0.00     0.103 A 
ATOM      6  C   UNL d   1     -41.490-122.799 -53.562  0.00  0.00     0.017 A 
ATOM      7  C   UNL d   1     -41.124-123.817 -54.492  0.00  0.00    -0.000 C 
ATOM      8  C   UNL d   1     -41.853-121.781 -52.623  0.00  0.00     0.019 A 
ATOM      9  C   UNL d   1     -42.221-122.238 -55.530  0.00  0.00     0.029 C 
ATOM     10  C   UNL d   1     -42.584-121.220 -54.592  0.00  0.00     0.029 C 
ATOM     11  C   UNL d   1     -41.125-123.226 -52.963  0.00  0.00     0.002 A 
ATOM     12  C   UNL d   1     -41.488-122.209 -52.025  0.00  0.00     0.002 A 
ATOM     13  C   UNL d   1     -41.123-122.932 -52.188  0.00  0.00     0.000 A 
ENDROOT
TORSDOF 0
ENDMDL
MODEL 2
REMARK VINA RESULT:      -4.2      1.345      2.492
REMARK  0 active torsions:
REMARK  status: ('A' for Active; 'I' for Inactive)
ROOT
ATOM      1  N   UNL d   1     -41.276-123.547 -52.477  0.00  0.00    -0.270 NA
ATOM      2  C   UNL d   1     -41.175-121.926 -52.165  0.00  0.00    -0.001 A 
ATOM      3  C   UNL d   1     -41.226-122.195 -52.944  0.00  0.00    -0.004 A 
ATOM      4  C   UNL d   1     -41.225-123.276 -51.707  0.00  0.00     0.076 A 
ATOM      5  C   UNL d   1     -41.277-123.006 -53.099  0.00  0.00     0.103 A 
ATOM      6  C   UNL d   1     -41.175-122.466 -51.552  0.00  0.00     0.017 A 
ATOM      7  C   UNL d   1     -41.125-121.116 -52.010  0.00  0.00    -0.000 C 
ATOM      8  C   UNL d   1     -41.224-123.817 -51.084  0.00  0.00     0.019 A 
ATOM      9  C   UNL d   1     -41.277-122.464 -53.722  0.00  0.00     0.029 C 
ATOM     10  C   UNL d   1     -41.327-123.816 -53.255  0.00  0.00     0.029 C 
ATOM     11  C   UNL d   1     -41.124-122.196 -50.777  0.00  0.00     0.002 A 
ATOM     12  C   UNL d   1     -41.173-123.548 -50.310  0.00  0.00     0.002 A 
ATOM     13  C   UNL d   1     -41.123-122.738 -50.150  0.00  0.00     0.000 A 
ENDROOT
TORSDOF 0
ENDMDL
MODEL 3
REMARK VINA RESULT:      -4.1      1.514      3.279
REMARK  0 active torsions:
REMARK  status: ('A' for Active; 'I' for Inactive)
ROOT
ATOM      1  N   UNL d   1     -41.221-123.529 -51.392  0.00  0.00    -0.270 NA
ATOM      2  C   UNL d   1     -41.155-121.911 -51.727  0.00  0.00    -0.001 A 
ATOM      3  C   UNL d   1     -41.179-122.170 -50.944  0.00  0.00    -0.004 A 
ATOM      4  C   UNL d   1     -41.197-123.268 -52.166  0.00  0.00     0.076 A 
ATOM      5  C   UNL d   1     -41.212-122.979 -50.776  0.00  0.00     0.103 A 
ATOM      6  C   UNL d   1     -41.165-122.459 -52.333  0.00  0.00     0.017 A 
ATOM      7  C   UNL d   1     -41.123-121.102 -51.895  0.00  0.00    -0.000 C 
ATOM      8  C   UNL d   1     -41.207-123.817 -52.782  0.00  0.00     0.019 A 
ATOM      9  C   UNL d   1     -41.203-122.429 -50.161  0.00  0.00     0.029 C 
ATOM     10  C   UNL d   1     -41.245-123.788 -50.609  0.00  0.00     0.029 C 
ATOM     11  C   UNL d   1     -41.141-122.199 -53.112  0.00  0.00     0.002 A 
ATOM     12  C   UNL d   1     -41.183-123.557 -53.560  0.00  0.00     0.002 A 
ATOM     13  C   UNL d   1     -41.150-122.749 -53.732  0.00  0.00     0.000 A 
ENDROOT
TORSDOF 0
ENDMDL
MODEL 4
REMARK VINA RESULT:      -2.7      2.481      4.037
REMARK  0 active torsions:
REMARK  status: ('A' for Active; 'I' for Inactive)
ROOT
ATOM      1  N   UNL d   1     -43.053-122.321 -50.231  0.00  0.00    -0.270 NA
ATOM      2  C   UNL d   1     -41.770-123.313 -49.910  0.00  0.00    -0.001 A 
ATOM      3  C   UNL d   1     -42.412-123.289 -49.394  0.00  0.00    -0.004 A 
ATOM      4  C   UNL d   1     -42.414-122.348 -50.740  0.00  0.00     0.076 A 
ATOM      5  C   UNL d   1     -43.054-122.793 -49.554  0.00  0.00     0.103 A 
ATOM      6  C   UNL d   1     -41.772-122.844 -50.579  0.00  0.00     0.017 A 
ATOM      7  C   UNL d   1     -41.128-123.809 -49.750  0.00  0.00    -0.000 C 
ATOM      8  C   UNL d   1     -42.412-121.876 -51.418  0.00  0.00     0.019 A 
ATOM      9  C   UNL d   1     -43.055-123.265 -48.877  0.00  0.00     0.029 C 
ATOM     10  C   UNL d   1     -43.696-122.297 -49.715  0.00  0.00     0.029 C 
ATOM     11  C   UNL d   1     -41.131-122.869 -51.092  0.00  0.00     0.002 A 
ATOM     12  C   UNL d   1     -41.771-121.902 -51.930  0.00  0.00     0.002 A 
ATOM     13  C   UNL d   1     -41.127-122.396 -51.773  0.00  0.00     0.000 A 
ENDROOT
TORSDOF 0
ENDMDL
MODEL 5
REMARK VINA RESULT:      -2.6      3.791      5.119
REMARK  0 active torsions:
REMARK  status: ('A' for Active; 'I' for Inactive)
ROOT
ATOM      1  N   UNL d   1     -41.421-122.779 -49.273  0.00  0.00    -0.270 NA
ATOM      2  C   UNL d   1     -42.923-123.470 -49.247  0.00  0.00    -0.001 A 
ATOM      3  C   UNL d   1     -42.627-123.152 -49.948  0.00  0.00    -0.004 A 
ATOM      4  C   UNL d   1     -41.718-123.095 -48.580  0.00  0.00     0.076 A 
ATOM      5  C   UNL d   1     -41.876-122.806 -49.961  0.00  0.00     0.103 A 
ATOM      6  C   UNL d   1     -42.470-123.441 -48.567  0.00  0.00     0.017 A 
ATOM      7  C   UNL d   1     -43.674-123.816 -49.234  0.00  0.00    -0.000 C 
ATOM      8  C   UNL d   1     -41.264-123.069 -47.891  0.00  0.00     0.019 A 
ATOM      9  C   UNL d   1     -42.331-122.833 -50.649  0.00  0.00     0.029 C 
ATOM     10  C   UNL d   1     -41.124-122.460 -49.974  0.00  0.00     0.029 C 
ATOM     11  C   UNL d   1     -42.766-123.758 -47.870  0.00  0.00     0.002 A 
ATOM     12  C   UNL d   1     -41.561-123.386 -47.195  0.00  0.00     0.002 A 
ATOM     13  C   UNL d   1     -42.311-123.733 -47.178  0.00  0.00     0.000 A 
ENDROOT
TORSDOF 0
ENDMDL
MODEL 6
REMARK VINA RESULT:      -2.6      2.133      2.943
REMARK  0 active torsions:
REMARK  status: ('A' for Active; 'I' for Inactive)
ROOT
ATOM      1  N   UNL d   1     -41.410-121.645 -50.834  0.00  0.00    -0.270 NA
ATOM      2  C   UNL d   1     -41.491-123.013 -51.759  0.00  0.00    -0.001 A 
ATOM      3  C   UNL d   1     -41.307-122.288 -52.108  0.00  0.00    -0.004 A 
ATOM      4  C   UNL d   1     -41.592-122.365 -50.492  0.00  0.00     0.076 A 
ATOM      5  C   UNL d   1     -41.266-121.604 -51.645  0.00  0.00     0.103 A 
ATOM      6  C   UNL d   1     -41.632-123.049 -50.955  0.00  0.00     0.017 A 
ATOM      7  C   UNL d   1     -41.531-123.697 -52.222  0.00  0.00    -0.000 C 
ATOM      8  C   UNL d   1     -41.735-122.407 -49.680  0.00  0.00     0.019 A 
ATOM      9  C   UNL d   1     -41.123-121.564 -52.457  0.00  0.00     0.029 C 
ATOM     10  C   UNL d   1     -41.225-120.920 -51.182  0.00  0.00     0.029 C 
ATOM     11  C   UNL d   1     -41.815-123.771 -50.610  0.00  0.00     0.002 A 
ATOM     12  C   UNL d   1     -41.918-123.129 -49.336  0.00  0.00     0.002 A 
ATOM     13  C   UNL d   1     -41.960-123.815 -49.795  0.00  0.00     0.000 A 
ENDROOT
TORSDOF 0
ENDMDL
