MODEL 1
REMARK VINA RESULT:       0.5      0.000      0.000
REMARK  3 active torsions:
REMARK  status: ('A' for Active; 'I' for Inactive)
REMARK    1  A    between atoms: C_6  and  C_1 
REMARK    2  A    between atoms: O_2  and  C_6 
REMARK    3  A    between atoms: C_3  and  O_2 
ROOT
ATOM      1  C   UNL d   1      46.574 -19.143  43.485  0.00  0.00     0.134 A 
ATOM      2  C   UNL d   1      46.480 -18.687  44.166  0.00  0.00     0.218 A 
ATOM      3  O   UNL d   1      46.451 -17.865  44.115  0.00  0.00    -0.284 OA
ATOM      4  C   UNL d   1      46.603 -19.960  43.532  0.00  0.00     0.028 A 
ATOM      5  C   UNL d   1      46.413 -19.044  44.900  0.00  0.00     0.044 A 
ATOM      6  C   UNL d   1      46.441 -19.873  44.955  0.00  0.00     0.003 A 
ATOM      7  C   UNL d   1      46.535 -20.329  44.274  0.00  0.00     0.002 A 
ENDROOT
BRANCH   1   8
ATOM      8  O   UNL d   1      46.641 -18.780  42.748  0.00  0.00    -0.316 OA
BRANCH   8   9
ATOM      9  C   UNL d   1      46.212 -19.079  42.101  0.00  0.00     0.246 C 
BRANCH   9  10
ATOM     10  C   UNL d   1      46.477 -18.934  41.336  0.00  0.00     0.217 C 
ATOM     11  O   UNL d   1      46.631 -19.548  40.818  0.00  0.00    -0.645 OA
ATOM     12  O   UNL d   1      46.601 -18.174  41.050  0.00  0.00    -0.645 OA
ENDBRANCH   9  10
ENDBRANCH   8   9
ENDBRANCH   1   8
TORSDOF 3
ENDMDL
MODEL 2
REMARK VINA RESULT:       1.0      5.173      5.895
REMARK  3 active torsions:
REMARK  status: ('A' for Active; 'I' for Inactive)
REMARK    1  A    between atoms: C_6  and  C_1 
REMARK    2  A    between atoms: O_2  and  C_6 
REMARK    3  A    between atoms: C_3  and  O_2 
ROOT
ATOM      1  C   UNL d   1      45.296 -13.791  44.336  0.00  0.00     0.134 A 
ATOM      2  C   UNL d   1      44.795 -14.368  44.648  0.00  0.00     0.218 A 
ATOM      3  O   UNL d   1      43.979 -14.250  44.654  0.00  0.00    -0.284 OA
ATOM      4  C   UNL d   1      46.107 -13.904  44.329  0.00  0.00     0.028 A 
ATOM      5  C   UNL d   1      45.101 -15.062  44.955  0.00  0.00     0.044 A 
ATOM      6  C   UNL d   1      45.923 -15.184  44.951  0.00  0.00     0.003 A 
ATOM      7  C   UNL d   1      46.424 -14.608  44.639  0.00  0.00     0.002 A 
ENDROOT
BRANCH   1   8
ATOM      8  O   UNL d   1      44.986 -13.092  44.028  0.00  0.00    -0.316 OA
BRANCH   8   9
ATOM      9  C   UNL d   1      45.424 -12.656  43.472  0.00  0.00     0.246 C 
BRANCH   9  10
ATOM     10  C   UNL d   1      45.036 -12.283  42.851  0.00  0.00     0.217 C 
ATOM     11  O   UNL d   1      44.246 -12.080  42.907  0.00  0.00    -0.645 OA
ATOM     12  O   UNL d   1      45.413 -12.094  42.146  0.00  0.00    -0.645 OA
ENDBRANCH   9  10
ENDBRANCH   8   9
ENDBRANCH   1   8
TORSDOF 3
ENDMDL
MODEL 3
REMARK VINA RESULT:       3.0      7.774      8.009
REMARK  3 active torsions:
REMARK  status: ('A' for Active; 'I' for Inactive)
REMARK    1  A    between atoms: C_6  and  C_1 
REMARK    2  A    between atoms: O_2  and  C_6 
REMARK    3  A    between atoms: C_3  and  O_2 
ROOT
ATOM      1  C   UNL d   1      45.006 -15.023  36.749  0.00  0.00     0.134 A 
ATOM      2  C   UNL d   1      45.358 -14.431  37.204  0.00  0.00     0.218 A 
ATOM      3  O   UNL d   1      44.892 -13.893  37.619  0.00  0.00    -0.284 OA
ATOM      4  C   UNL d   1      45.466 -15.559  36.335  0.00  0.00     0.028 A 
ATOM      5  C   UNL d   1      46.173 -14.370  37.248  0.00  0.00     0.044 A 
ATOM      6  C   UNL d   1      46.647 -14.911  36.830  0.00  0.00     0.003 A 
ATOM      7  C   UNL d   1      46.294 -15.503  36.375  0.00  0.00     0.002 A 
ENDROOT
BRANCH   1   8
ATOM      8  O   UNL d   1      44.184 -15.081  36.707  0.00  0.00    -0.316 OA
BRANCH   8   9
ATOM      9  C   UNL d   1      43.837 -15.742  36.340  0.00  0.00     0.246 C 
BRANCH   9  10
ATOM     10  C   UNL d   1      43.022 -15.844  36.376  0.00  0.00     0.217 C 
ATOM     11  O   UNL d   1      42.518 -15.204  36.459  0.00  0.00    -0.645 OA
ATOM     12  O   UNL d   1      42.668 -16.584  36.330  0.00  0.00    -0.645 OA
ENDBRANCH   9  10
ENDBRANCH   8   9
ENDBRANCH   1   8
TORSDOF 3
ENDMDL
MODEL 4
REMARK VINA RESULT:       3.2      7.555      8.091
REMARK  3 active torsions:
REMARK  status: ('A' for Active; 'I' for Inactive)
REMARK    1  A    between atoms: C_6  and  C_1 
REMARK    2  A    between atoms: O_2  and  C_6 
REMARK    3  A    between atoms: C_3  and  O_2 
ROOT
ATOM      1  C   UNL d   1      44.245 -15.485  36.579  0.00  0.00     0.134 A 
ATOM      2  C   UNL d   1      43.905 -16.221  36.427  0.00  0.00     0.218 A 
ATOM      3  O   UNL d   1      44.380 -16.889  36.334  0.00  0.00    -0.284 OA
ATOM      4  C   UNL d   1      43.775 -14.821  36.671  0.00  0.00     0.028 A 
ATOM      5  C   UNL d   1      43.092 -16.300  36.367  0.00  0.00     0.044 A 
ATOM      6  C   UNL d   1      42.609 -15.629  36.460  0.00  0.00     0.003 A 
ATOM      7  C   UNL d   1      42.949 -14.893  36.611  0.00  0.00     0.002 A 
ENDROOT
BRANCH   1   8
ATOM      8  O   UNL d   1      45.064 -15.410  36.638  0.00  0.00    -0.316 OA
BRANCH   8   9
ATOM      9  C   UNL d   1      45.390 -14.738  37.004  0.00  0.00     0.246 C 
BRANCH   9  10
ATOM     10  C   UNL d   1      46.207 -14.647  37.031  0.00  0.00     0.217 C 
ATOM     11  O   UNL d   1      46.626 -14.791  37.719  0.00  0.00    -0.645 OA
ATOM     12  O   UNL d   1      46.646 -14.409  36.379  0.00  0.00    -0.645 OA
ENDBRANCH   9  10
ENDBRANCH   8   9
ENDBRANCH   1   8
TORSDOF 3
ENDMDL
