MODEL 1
REMARK VINA RESULT:      -2.9      0.000      0.000
REMARK  6 active torsions:
REMARK  status: ('A' for Active; 'I' for Inactive)
REMARK    1  A    between atoms: C_9  and  N_1 
REMARK    2  A    between atoms: C_3  and  C_2 
REMARK    3  A    between atoms: C_12  and  C_9 
REMARK    4  A    between atoms: C_15  and  C_9 
REMARK    5  A    between atoms: C_20  and  C_15 
REMARK    6  A    between atoms: C_17  and  C_20 
ROOT
ATOM      1  N   UNL d   1      57.072  -0.246  32.131  0.00  0.00    -0.254 N 
ATOM      2  C   UNL d   1      57.753  -0.136  31.059  0.00  0.00     0.093 A 
ATOM      3  C   UNL d   1      57.608   0.269  32.302  0.00  0.00     0.153 A 
ATOM      4  C   UNL d   1      57.128  -0.520  31.375  0.00  0.00     0.272 A 
ATOM      5  S   UNL d   1      58.047   0.350  31.632  0.00  0.00    -0.053 SA
ATOM      6  S   UNL d   1      57.683   0.644  33.040  0.00  0.00    -0.052 SA
ATOM      7  O   UNL d   1      56.661  -1.066  30.997  0.00  0.00    -0.266 OA
ENDROOT
BRANCH   2   8
ATOM      8  C   UNL d   1      58.037  -0.226  30.290  0.00  0.00     0.070 A 
ATOM      9  C   UNL d   1      57.649   0.185  29.708  0.00  0.00     0.280 A 
ATOM     10  N   UNL d   1      58.011   0.029  28.971  0.00  0.00    -0.208 NA
ATOM     11  O   UNL d   1      56.998   0.682  29.821  0.00  0.00    -0.265 OA
ATOM     12  C   UNL d   1      58.633  -0.490  29.112  0.00  0.00     0.085 A 
ATOM     13  C   UNL d   1      58.660  -0.655  29.923  0.00  0.00     0.023 A 
ATOM     14  C   UNL d   1      59.194  -0.845  28.602  0.00  0.00     0.019 A 
ATOM     15  C   UNL d   1      59.209  -1.143  30.217  0.00  0.00     0.002 A 
ATOM     16  C   UNL d   1      59.750  -1.488  29.742  0.00  0.00     0.000 A 
ATOM     17  C   UNL d   1      59.762  -1.348  28.899  0.00  0.00     0.002 A 
ENDBRANCH   2   8
BRANCH   1  18
ATOM     18  C   UNL d   1      56.490  -0.476  32.727  0.00  0.00     0.133 C 
BRANCH  18  19
ATOM     19  C   UNL d   1      56.436  -1.291  32.905  0.00  0.00     0.228 C 
ATOM     20  O   UNL d   1      56.844  -1.624  33.502  0.00  0.00    -0.643 OA
ATOM     21  O   UNL d   1      55.922  -1.745  32.414  0.00  0.00    -0.643 OA
ENDBRANCH  18  19
BRANCH  18  22
ATOM     22  C   UNL d   1      56.028   0.073  33.090  0.00  0.00     0.030 C 
BRANCH  22  23
ATOM     23  C   UNL d   1      55.383  -0.210  33.517  0.00  0.00     0.072 C 
BRANCH  23  24
ATOM     24  C   UNL d   1      54.950   0.386  33.956  0.00  0.00     0.211 C 
ATOM     25  O   UNL d   1      55.237   0.681  34.663  0.00  0.00    -0.644 OA
ATOM     26  O   UNL d   1      54.250   0.636  33.632  0.00  0.00    -0.644 OA
ENDBRANCH  23  24
ENDBRANCH  22  23
ENDBRANCH  18  22
ENDBRANCH   1  18
TORSDOF 6
ENDMDL
MODEL 2
REMARK VINA RESULT:      -2.2      1.888      4.585
REMARK  6 active torsions:
REMARK  status: ('A' for Active; 'I' for Inactive)
REMARK    1  A    between atoms: C_9  and  N_1 
REMARK    2  A    between atoms: C_3  and  C_2 
REMARK    3  A    between atoms: C_12  and  C_9 
REMARK    4  A    between atoms: C_15  and  C_9 
REMARK    5  A    between atoms: C_20  and  C_15 
REMARK    6  A    between atoms: C_17  and  C_20 
ROOT
ATOM      1  N   UNL d   1      58.328  -0.287  30.039  0.00  0.00    -0.254 N 
ATOM      2  C   UNL d   1      57.791   0.123  31.120  0.00  0.00     0.093 A 
ATOM      3  C   UNL d   1      57.944   0.338  29.831  0.00  0.00     0.153 A 
ATOM      4  C   UNL d   1      58.259  -0.453  30.825  0.00  0.00     0.272 A 
ATOM      5  S   UNL d   1      57.598   0.610  30.506  0.00  0.00    -0.053 SA
ATOM      6  S   UNL d   1      57.917   0.640  29.057  0.00  0.00    -0.052 SA
ATOM      7  O   UNL d   1      58.585  -1.066  31.245  0.00  0.00    -0.266 OA
ENDROOT
BRANCH   2   8
ATOM      8  C   UNL d   1      57.555   0.199  31.906  0.00  0.00     0.070 A 
ATOM      9  C   UNL d   1      58.111   0.473  32.429  0.00  0.00     0.280 A 
ATOM     10  N   UNL d   1      57.776   0.514  33.194  0.00  0.00    -0.208 NA
ATOM     11  O   UNL d   1      58.889   0.682  32.240  0.00  0.00    -0.265 OA
ATOM     12  C   UNL d   1      56.998   0.257  33.130  0.00  0.00     0.085 A 
ATOM     13  C   UNL d   1      56.849   0.060  32.341  0.00  0.00     0.023 A 
ATOM     14  C   UNL d   1      56.388   0.174  33.697  0.00  0.00     0.019 A 
ATOM     15  C   UNL d   1      56.137  -0.206  32.119  0.00  0.00     0.002 A 
ATOM     16  C   UNL d   1      55.546  -0.291  32.648  0.00  0.00     0.000 A 
ATOM     17  C   UNL d   1      55.653  -0.099  33.475  0.00  0.00     0.002 A 
ENDBRANCH   2   8
BRANCH   1  18
ATOM     18  C   UNL d   1      58.775  -0.733  29.449  0.00  0.00     0.133 C 
BRANCH  18  19
ATOM     19  C   UNL d   1      59.499  -0.401  29.197  0.00  0.00     0.228 C 
ATOM     20  O   UNL d   1      60.175  -0.492  29.608  0.00  0.00    -0.643 OA
ATOM     21  O   UNL d   1      59.476   0.040  28.478  0.00  0.00    -0.643 OA
ENDBRANCH  18  19
BRANCH  18  22
ATOM     22  C   UNL d   1      58.501  -1.432  29.161  0.00  0.00     0.030 C 
BRANCH  22  23
ATOM     23  C   UNL d   1      59.041  -2.054  29.125  0.00  0.00     0.072 C 
BRANCH  23  24
ATOM     24  C   UNL d   1      58.709  -2.806  28.880  0.00  0.00     0.211 C 
ATOM     25  O   UNL d   1      57.924  -2.871  28.661  0.00  0.00    -0.644 OA
ATOM     26  O   UNL d   1      59.215  -3.440  28.879  0.00  0.00    -0.644 OA
ENDBRANCH  23  24
ENDBRANCH  22  23
ENDBRANCH  18  22
ENDBRANCH   1  18
TORSDOF 6
ENDMDL
MODEL 3
REMARK VINA RESULT:      -1.5      1.673      4.607
REMARK  6 active torsions:
REMARK  status: ('A' for Active; 'I' for Inactive)
REMARK    1  A    between atoms: C_9  and  N_1 
REMARK    2  A    between atoms: C_3  and  C_2 
REMARK    3  A    between atoms: C_12  and  C_9 
REMARK    4  A    between atoms: C_15  and  C_9 
REMARK    5  A    between atoms: C_20  and  C_15 
REMARK    6  A    between atoms: C_17  and  C_20 
ROOT
ATOM      1  N   UNL d   1      58.035  -0.223  30.434  0.00  0.00    -0.254 N 
ATOM      2  C   UNL d   1      57.186  -0.255  31.384  0.00  0.00     0.093 A 
ATOM      3  C   UNL d   1      57.486   0.258  30.211  0.00  0.00     0.153 A 
ATOM      4  C   UNL d   1      57.887  -0.559  31.152  0.00  0.00     0.272 A 
ATOM      5  S   UNL d   1      56.941   0.249  30.803  0.00  0.00    -0.053 SA
ATOM      6  S   UNL d   1      57.493   0.682  29.496  0.00  0.00    -0.052 SA
ATOM      7  O   UNL d   1      58.338  -1.092  31.566  0.00  0.00    -0.266 OA
ENDROOT
BRANCH   2   8
ATOM      8  C   UNL d   1      56.793  -0.428  32.088  0.00  0.00     0.070 A 
ATOM      9  C   UNL d   1      56.274  -1.051  32.072  0.00  0.00     0.280 A 
ATOM     10  N   UNL d   1      55.931  -1.145  32.828  0.00  0.00    -0.208 NA
ATOM     11  O   UNL d   1      56.108  -1.523  31.413  0.00  0.00    -0.265 OA
ATOM     12  C   UNL d   1      56.251  -0.563  33.313  0.00  0.00     0.085 A 
ATOM     13  C   UNL d   1      56.785  -0.114  32.868  0.00  0.00     0.023 A 
ATOM     14  C   UNL d   1      56.127  -0.375  34.119  0.00  0.00     0.019 A 
ATOM     15  C   UNL d   1      57.177   0.490  33.198  0.00  0.00     0.002 A 
ATOM     16  C   UNL d   1      57.069   0.680  33.965  0.00  0.00     0.000 A 
ATOM     17  C   UNL d   1      56.528   0.245  34.464  0.00  0.00     0.002 A 
ENDBRANCH   2   8
BRANCH   1  18
ATOM     18  C   UNL d   1      58.723  -0.355  29.928  0.00  0.00     0.133 C 
BRANCH  18  19
ATOM     19  C   UNL d   1      59.330   0.219  29.962  0.00  0.00     0.228 C 
ATOM     20  O   UNL d   1      59.764   0.339  30.619  0.00  0.00    -0.643 OA
ATOM     21  O   UNL d   1      59.458   0.668  29.259  0.00  0.00    -0.643 OA
ENDBRANCH  18  19
BRANCH  18  22
ATOM     22  C   UNL d   1      58.770  -1.000  29.450  0.00  0.00     0.030 C 
BRANCH  22  23
ATOM     23  C   UNL d   1      59.509  -1.359  29.384  0.00  0.00     0.072 C 
BRANCH  23  24
ATOM     24  C   UNL d   1      59.511  -2.107  28.965  0.00  0.00     0.211 C 
ATOM     25  O   UNL d   1      58.893  -2.318  28.473  0.00  0.00    -0.644 OA
ATOM     26  O   UNL d   1      60.155  -2.585  29.086  0.00  0.00    -0.644 OA
ENDBRANCH  23  24
ENDBRANCH  22  23
ENDBRANCH  18  22
ENDBRANCH   1  18
TORSDOF 6
ENDMDL
