MODEL 1
REMARK VINA RESULT:     108.2      0.000      0.000
REMARK  9 active torsions:
REMARK  status: ('A' for Active; 'I' for Inactive)
REMARK    1  A    between atoms: C_10  and  S_1 
REMARK    2  A    between atoms: N_11  and  S_1 
REMARK    3  A    between atoms: C_8  and  C_2 
REMARK    4  A    between atoms: C_3  and  N_6 
REMARK       I    between atoms: N_6  and  C_9 
REMARK    5  A    between atoms: C_9  and  C_14 
REMARK    6  A    between atoms: C_23  and  N_11 
REMARK    7  A    between atoms: C_24  and  N_11 
REMARK    8  A    between atoms: C_26  and  C_24 
REMARK    9  A    between atoms: C_27  and  C_26 
ROOT
ATOM      1  C   UNL d   1      61.258  48.074  50.609  0.00  0.00     0.104 A 
ATOM      2  C   UNL d   1      62.124  46.930  49.777  0.00  0.00     0.058 A 
ATOM      3  C   UNL d   1      61.888  47.680  50.967  0.00  0.00     0.013 A 
ATOM      4  C   UNL d   1      61.067  47.893  49.840  0.00  0.00     0.013 A 
ATOM      5  C   UNL d   1      62.317  47.109  50.545  0.00  0.00     0.005 A 
ATOM      6  C   UNL d   1      61.494  47.324  49.420  0.00  0.00     0.005 A 
ENDROOT
BRANCH   2   7
ATOM      7  C   UNL d   1      62.559  46.353  49.354  0.00  0.00     0.282 C 
ATOM      8  N   UNL d   1      62.380  45.550  49.441  0.00  0.00    -0.165 NA
ATOM      9  O   UNL d   1      63.158  46.583  48.858  0.00  0.00    -0.265 OA
BRANCH   8  10
ATOM     10  C   UNL d   1      61.781  45.319  49.937  0.00  0.00     0.297 A 
ATOM     11  O   UNL d   1      61.907  44.713  50.483  0.00  0.00    -0.253 OA
ATOM     12  C   UNL d   1      61.209  44.605  50.902  0.00  0.00     0.207 A 
ATOM     13  N   UNL d   1      60.662  45.141  50.613  0.00  0.00    -0.119 NA
ATOM     14  N   UNL d   1      61.010  45.587  50.014  0.00  0.00    -0.101 NA
BRANCH  12  15
ATOM     15  C   UNL d   1      61.143  44.036  51.497  0.00  0.00     0.054 A 
ATOM     16  C   UNL d   1      61.525  43.313  51.405  0.00  0.00     0.061 A 
ATOM     17 CL   UNL d   1      61.968  43.160  50.727  0.00  0.00    -0.082 Cl
ATOM     18  C   UNL d   1      61.461  42.744  51.996  0.00  0.00     0.011 A 
ATOM     19  C   UNL d   1      61.016  42.886  52.688  0.00  0.00     0.001 A 
ATOM     20  C   UNL d   1      60.637  43.602  52.781  0.00  0.00     0.000 A 
ATOM     21  C   UNL d   1      60.701  44.179  52.182  0.00  0.00     0.004 A 
ENDBRANCH  12  15
ENDBRANCH   8  10
ENDBRANCH   2   7
BRANCH   1  22
ATOM     22  S   UNL d   1      60.820  48.651  51.025  0.00  0.00     0.271 S 
ATOM     23  O   UNL d   1      61.117  48.372  51.747  0.00  0.00    -0.200 OA
ATOM     24  O   UNL d   1      60.524  48.927  50.305  0.00  0.00    -0.200 OA
BRANCH  22  25
ATOM     25  N   UNL d   1      60.375  49.236  51.447  0.00  0.00    -0.229 N 
BRANCH  25  26
ATOM     26  C   UNL d   1      60.531  49.399  52.240  0.00  0.00     0.092 C 
ATOM     27  C   UNL d   1      59.935  49.694  52.729  0.00  0.00     0.021 C 
ENDBRANCH  25  26
BRANCH  25  28
ATOM     28  C   UNL d   1      59.778  49.645  51.054  0.00  0.00     0.092 C 
BRANCH  28  29
ATOM     29  C   UNL d   1      59.024  49.317  51.011  0.00  0.00     0.020 C 
BRANCH  29  30
ATOM     30  C   UNL d   1      58.439  49.705  50.582  0.00  0.00     0.002 C 
ATOM     31  C   UNL d   1      57.828  49.270  50.239  0.00  0.00     0.000 C 
ENDBRANCH  29  30
ENDBRANCH  28  29
ENDBRANCH  25  28
ENDBRANCH  22  25
ENDBRANCH   1  22
TORSDOF 9
ENDMDL
