MODEL 1
REMARK VINA RESULT:      -9.1      0.000      0.000
REMARK  0 active torsions:
REMARK  status: ('A' for Active; 'I' for Inactive)
ROOT
ATOM      1  N   UNL d   1      53.816  31.312  54.025  0.00  0.00    -0.202 NA
ATOM      2  N   UNL d   1      52.836  32.019  52.912  0.00  0.00    -0.202 NA
ATOM      3  C   UNL d   1      52.950  31.205  52.895  0.00  0.00     0.337 A 
ATOM      4  C   UNL d   1      53.444  30.847  53.455  0.00  0.00     0.337 A 
ATOM      5  C   UNL d   1      53.209  32.475  53.480  0.00  0.00     0.102 A 
ATOM      6  C   UNL d   1      53.695  32.122  54.031  0.00  0.00     0.102 A 
ATOM      7  C   UNL d   1      54.074  32.578  54.607  0.00  0.00     0.021 A 
ATOM      8  C   UNL d   1      53.087  33.295  53.488  0.00  0.00     0.021 A 
ATOM      9  C   UNL d   1      53.469  33.751  54.068  0.00  0.00     0.002 A 
ATOM     10  C   UNL d   1      53.959  33.396  54.624  0.00  0.00     0.002 A 
ATOM     11  O   UNL d   1      52.576  30.746  52.325  0.00  0.00    -0.260 OA
ATOM     12  O   UNL d   1      53.560  30.031  53.441  0.00  0.00    -0.260 OA
ATOM     13  C   UNL d   1      54.335  33.855  55.196  0.00  0.00     0.000 C 
ATOM     14  C   UNL d   1      53.351  34.562  54.080  0.00  0.00     0.000 C 
ENDROOT
TORSDOF 0
ENDMDL
MODEL 2
REMARK VINA RESULT:      -9.0      2.096      2.926
REMARK  0 active torsions:
REMARK  status: ('A' for Active; 'I' for Inactive)
ROOT
ATOM      1  N   UNL d   1      54.561  32.925  54.759  0.00  0.00    -0.202 NA
ATOM      2  N   UNL d   1      53.315  33.854  54.226  0.00  0.00    -0.202 NA
ATOM      3  C   UNL d   1      53.882  34.180  54.724  0.00  0.00     0.337 A 
ATOM      4  C   UNL d   1      54.510  33.714  54.994  0.00  0.00     0.337 A 
ATOM      5  C   UNL d   1      53.371  33.070  53.997  0.00  0.00     0.102 A 
ATOM      6  C   UNL d   1      53.990  32.611  54.263  0.00  0.00     0.102 A 
ATOM      7  C   UNL d   1      54.051  31.818  54.035  0.00  0.00     0.021 A 
ATOM      8  C   UNL d   1      52.794  32.751  53.495  0.00  0.00     0.021 A 
ATOM      9  C   UNL d   1      52.857  31.954  53.266  0.00  0.00     0.002 A 
ATOM     10  C   UNL d   1      53.481  31.491  53.535  0.00  0.00     0.002 A 
ATOM     11  O   UNL d   1      53.828  34.967  54.955  0.00  0.00    -0.260 OA
ATOM     12  O   UNL d   1      55.080  34.038  55.493  0.00  0.00    -0.260 OA
ATOM     13  C   UNL d   1      53.537  30.702  53.304  0.00  0.00     0.000 C 
ATOM     14  C   UNL d   1      52.289  31.635  52.770  0.00  0.00     0.000 C 
ENDROOT
TORSDOF 0
ENDMDL
MODEL 3
REMARK VINA RESULT:      -9.0      2.102      3.201
REMARK  0 active torsions:
REMARK  status: ('A' for Active; 'I' for Inactive)
ROOT
ATOM      1  N   UNL d   1      53.319  33.859  54.244  0.00  0.00    -0.202 NA
ATOM      2  N   UNL d   1      54.570  32.927  54.758  0.00  0.00    -0.202 NA
ATOM      3  C   UNL d   1      54.521  33.711  54.999  0.00  0.00     0.337 A 
ATOM      4  C   UNL d   1      53.892  34.183  54.741  0.00  0.00     0.337 A 
ATOM      5  C   UNL d   1      53.998  32.612  54.264  0.00  0.00     0.102 A 
ATOM      6  C   UNL d   1      53.378  33.076  54.010  0.00  0.00     0.102 A 
ATOM      7  C   UNL d   1      52.797  32.764  53.511  0.00  0.00     0.021 A 
ATOM      8  C   UNL d   1      54.057  31.820  54.027  0.00  0.00     0.021 A 
ATOM      9  C   UNL d   1      53.472  31.507  53.525  0.00  0.00     0.002 A 
ATOM     10  C   UNL d   1      52.847  31.976  53.270  0.00  0.00     0.002 A 
ATOM     11  O   UNL d   1      55.094  34.029  55.495  0.00  0.00    -0.260 OA
ATOM     12  O   UNL d   1      53.840  34.970  54.981  0.00  0.00    -0.260 OA
ATOM     13  C   UNL d   1      52.271  31.659  52.772  0.00  0.00     0.000 C 
ATOM     14  C   UNL d   1      53.526  30.725  53.289  0.00  0.00     0.000 C 
ENDROOT
TORSDOF 0
ENDMDL
MODEL 4
REMARK VINA RESULT:      -8.3      1.978      2.723
REMARK  0 active torsions:
REMARK  status: ('A' for Active; 'I' for Inactive)
ROOT
ATOM      1  N   UNL d   1      52.263  34.392  53.848  0.00  0.00    -0.202 NA
ATOM      2  N   UNL d   1      52.143  33.284  52.640  0.00  0.00    -0.202 NA
ATOM      3  C   UNL d   1      51.663  33.952  52.629  0.00  0.00     0.337 A 
ATOM      4  C   UNL d   1      51.722  34.511  53.237  0.00  0.00     0.337 A 
ATOM      5  C   UNL d   1      52.678  33.172  53.249  0.00  0.00     0.102 A 
ATOM      6  C   UNL d   1      52.736  33.723  53.847  0.00  0.00     0.102 A 
ATOM      7  C   UNL d   1      53.274  33.615  54.466  0.00  0.00     0.021 A 
ATOM      8  C   UNL d   1      53.157  32.496  53.251  0.00  0.00     0.021 A 
ATOM      9  C   UNL d   1      53.697  32.388  53.873  0.00  0.00     0.002 A 
ATOM     10  C   UNL d   1      53.756  32.944  54.476  0.00  0.00     0.002 A 
ATOM     11  O   UNL d   1      51.125  34.066  52.018  0.00  0.00    -0.260 OA
ATOM     12  O   UNL d   1      51.243  35.181  53.229  0.00  0.00    -0.260 OA
ATOM     13  C   UNL d   1      54.294  32.831  55.089  0.00  0.00     0.000 C 
ATOM     14  C   UNL d   1      54.172  31.722  53.878  0.00  0.00     0.000 C 
ENDROOT
TORSDOF 0
ENDMDL
MODEL 5
REMARK VINA RESULT:      -8.0      2.155      2.891
REMARK  0 active torsions:
REMARK  status: ('A' for Active; 'I' for Inactive)
ROOT
ATOM      1  N   UNL d   1      53.516  32.896  54.598  0.00  0.00    -0.202 NA
ATOM      2  N   UNL d   1      53.742  34.518  54.471  0.00  0.00    -0.202 NA
ATOM      3  C   UNL d   1      54.257  34.070  54.929  0.00  0.00     0.337 A 
ATOM      4  C   UNL d   1      54.145  33.253  54.994  0.00  0.00     0.337 A 
ATOM      5  C   UNL d   1      53.120  34.158  54.080  0.00  0.00     0.102 A 
ATOM      6  C   UNL d   1      53.009  33.353  54.144  0.00  0.00     0.102 A 
ATOM      7  C   UNL d   1      52.382  32.983  53.752  0.00  0.00     0.021 A 
ATOM      8  C   UNL d   1      52.606  34.619  53.621  0.00  0.00     0.021 A 
ATOM      9  C   UNL d   1      51.977  34.246  53.227  0.00  0.00     0.002 A 
ATOM     10  C   UNL d   1      51.865  33.435  53.292  0.00  0.00     0.002 A 
ATOM     11  O   UNL d   1      54.883  34.430  55.322  0.00  0.00    -0.260 OA
ATOM     12  O   UNL d   1      54.660  32.801  55.453  0.00  0.00    -0.260 OA
ATOM     13  C   UNL d   1      51.239  33.072  52.898  0.00  0.00     0.000 C 
ATOM     14  C   UNL d   1      51.467  34.698  52.772  0.00  0.00     0.000 C 
ENDROOT
TORSDOF 0
ENDMDL
