MODEL 1
REMARK VINA RESULT:      21.8      0.000      0.000
REMARK  2 active torsions:
REMARK  status: ('A' for Active; 'I' for Inactive)
REMARK    1  A    between atoms: C_4  and  C_1 
REMARK       I    between atoms: N_8  and  C_4 
REMARK    2  A    between atoms: O_12  and  C_11 
ROOT
ATOM      1  C   UNL d   1      57.961  49.665  50.474  0.00  0.00     0.120 A 
ATOM      2  C   UNL d   1      58.124  49.662  51.283  0.00  0.00     0.305 A 
ATOM      3  O   UNL d   1      58.915  49.661  51.546  0.00  0.00    -0.271 OA
ATOM      4  C   UNL d   1      58.582  49.668  49.917  0.00  0.00     0.012 A 
ATOM      5  C   UNL d   1      59.527  49.663  51.005  0.00  0.00     0.125 A 
ATOM      6  C   UNL d   1      59.362  49.667  50.188  0.00  0.00     0.025 A 
ATOM      7  O   UNL d   1      57.513  49.660  51.828  0.00  0.00    -0.259 OA
ATOM      8  C   UNL d   1      60.316  49.662  51.256  0.00  0.00     0.117 A 
ATOM      9  C   UNL d   1      59.981  49.669  49.640  0.00  0.00     0.002 A 
ATOM     10  C   UNL d   1      60.760  49.668  49.907  0.00  0.00     0.002 A 
ATOM     11  C   UNL d   1      60.927  49.665  50.711  0.00  0.00     0.026 A 
ENDROOT
BRANCH   1  12
ATOM     12  C   UNL d   1      57.184  49.666  50.215  0.00  0.00     0.270 C 
ATOM     13  N   UNL d   1      57.013  49.678  49.415  0.00  0.00    -0.269 N 
ATOM     14  C   UNL d   1      57.628  49.688  48.871  0.00  0.00     0.102 C 
ATOM     15  C   UNL d   1      56.236  49.678  49.155  0.00  0.00     0.102 C 
ATOM     16  O   UNL d   1      56.569  49.656  50.759  0.00  0.00    -0.266 OA
ENDBRANCH   1  12
BRANCH   8  17
ATOM     17  O   UNL d   1      60.482  49.659  52.060  0.00  0.00    -0.326 OA
ATOM     18  C   UNL d   1      61.259  49.637  52.318  0.00  0.00     0.181 C 
ENDBRANCH   8  17
TORSDOF 2
ENDMDL
