MODEL 1
REMARK VINA RESULT:      29.6      0.000      0.000
REMARK  3 active torsions:
REMARK  status: ('A' for Active; 'I' for Inactive)
REMARK    1  A    between atoms: N_2  and  C_1 
REMARK    2  A    between atoms: N_3  and  C_1 
REMARK       I    between atoms: C_4  and  N_3 
REMARK    3  A    between atoms: C_5  and  C_4 
ROOT
ATOM      1  C   UNL d   1      59.033  49.662  50.443  0.00  0.00     0.209 C 
ATOM      2  S   UNL d   1      59.165  49.672  51.269  0.00  0.00    -0.038 SA
ENDROOT
BRANCH   1   3
ATOM      3  N   UNL d   1      58.255  49.607  50.154  0.00  0.00    -0.282 N 
ATOM      4  C   UNL d   1      57.574  49.629  50.613  0.00  0.00     0.066 A 
ATOM      5  C   UNL d   1      56.929  49.557  50.102  0.00  0.00     0.018 A 
ATOM      6  C   UNL d   1      57.448  49.704  51.424  0.00  0.00     0.018 A 
ATOM      7  C   UNL d   1      56.157  49.560  50.402  0.00  0.00     0.002 A 
ATOM      8  C   UNL d   1      57.218  49.492  49.333  0.00  0.00     0.021 A 
ATOM      9  C   UNL d   1      56.034  49.636  51.220  0.00  0.00     0.000 A 
ATOM     10  C   UNL d   1      56.679  49.708  51.731  0.00  0.00     0.002 A 
ATOM     11  C   UNL d   1      58.040  49.524  49.369  0.00  0.00     0.082 A 
ENDBRANCH   1   3
BRANCH   1  12
ATOM     12  N   UNL d   1      59.665  49.705  49.923  0.00  0.00    -0.178 NA
ATOM     13  C   UNL d   1      60.438  49.627  50.211  0.00  0.00     0.304 C 
ATOM     14  O   UNL d   1      61.075  49.670  49.686  0.00  0.00    -0.263 OA
BRANCH  13  15
ATOM     15  C   UNL d   1      60.582  49.506  51.014  0.00  0.00     0.158 A 
ATOM     16  O   UNL d   1      60.161  49.708  51.684  0.00  0.00    -0.296 OA
ATOM     17  C   UNL d   1      60.587  49.437  52.345  0.00  0.00     0.134 A 
ATOM     18 BR   UNL d   1      60.387  49.508  53.155  0.00  0.00    -0.022 Br
ATOM     19  C   UNL d   1      61.269  49.071  52.067  0.00  0.00     0.034 A 
ATOM     20  C   UNL d   1      61.264  49.115  51.246  0.00  0.00     0.032 A 
ENDBRANCH  13  15
ENDBRANCH   1  12
TORSDOF 3
ENDMDL
