MODEL 1
REMARK VINA RESULT:     -10.0      0.000      0.000
REMARK  4 active torsions:
REMARK  status: ('A' for Active; 'I' for Inactive)
REMARK    1  A    between atoms: C_11  and  N_1 
REMARK    2  A    between atoms: S_7  and  C_2 
REMARK    3  A    between atoms: C_13  and  S_7 
REMARK    4  A    between atoms: C_8  and  C_13 
REMARK       I    between atoms: N_9  and  C_8 
ROOT
ATOM      1  N   UNL d   1      52.925  33.729  53.809  0.00  0.00    -0.254 N 
ATOM      2  C   UNL d   1      53.309  33.002  53.772  0.00  0.00     0.182 A 
ATOM      3  C   UNL d   1      53.238  34.339  54.270  0.00  0.00     0.274 A 
ATOM      4  C   UNL d   1      53.933  34.217  54.690  0.00  0.00     0.104 A 
ATOM      5  N   UNL d   1      54.008  32.882  54.195  0.00  0.00    -0.222 NA
ATOM      6  C   UNL d   1      54.318  33.489  54.653  0.00  0.00     0.095 A 
ATOM      7  S   UNL d   1      54.370  34.708  55.185  0.00  0.00    -0.080 SA
ATOM      8  O   UNL d   1      52.853  35.067  54.307  0.00  0.00    -0.266 OA
ATOM      9  C   UNL d   1      54.992  33.530  55.125  0.00  0.00     0.027 A 
ATOM     10  C   UNL d   1      55.024  34.278  55.452  0.00  0.00     0.037 A 
ENDROOT
BRANCH   2  11
ATOM     11  S   UNL d   1      52.997  32.383  53.308  0.00  0.00    -0.044 SA
BRANCH  11  12
ATOM     12  C   UNL d   1      53.363  31.642  53.318  0.00  0.00     0.099 C 
BRANCH  12  13
ATOM     13  C   UNL d   1      52.987  30.992  52.974  0.00  0.00     0.271 C 
ATOM     14  N   UNL d   1      53.004  30.260  53.351  0.00  0.00    -0.272 N 
ATOM     15  C   UNL d   1      53.348  30.019  54.061  0.00  0.00     0.083 A 
ATOM     16  C   UNL d   1      52.631  29.612  53.011  0.00  0.00     0.083 A 
ATOM     17  C   UNL d   1      53.178  29.211  54.151  0.00  0.00     0.021 A 
ATOM     18  C   UNL d   1      52.741  28.964  53.509  0.00  0.00     0.021 A 
ATOM     19  O   UNL d   1      52.594  31.077  52.253  0.00  0.00    -0.266 OA
ENDBRANCH  12  13
ENDBRANCH  11  12
ENDBRANCH   2  11
BRANCH   1  20
ATOM     20  C   UNL d   1      52.232  33.853  53.392  0.00  0.00     0.069 A 
ATOM     21  C   UNL d   1      52.255  34.181  52.635  0.00  0.00     0.018 A 
ATOM     22  C   UNL d   1      51.554  34.304  52.218  0.00  0.00     0.002 A 
ATOM     23  C   UNL d   1      50.830  34.098  52.557  0.00  0.00     0.000 A 
ATOM     24  C   UNL d   1      50.808  33.769  53.313  0.00  0.00     0.002 A 
ATOM     25  C   UNL d   1      50.115  34.219  52.139  0.00  0.00     0.000 C 
ATOM     26  C   UNL d   1      51.509  33.646  53.731  0.00  0.00     0.018 A 
ENDBRANCH   1  20
TORSDOF 4
ENDMDL
MODEL 2
REMARK VINA RESULT:      -9.1      1.274      4.194
REMARK  4 active torsions:
REMARK  status: ('A' for Active; 'I' for Inactive)
REMARK    1  A    between atoms: C_11  and  N_1 
REMARK    2  A    between atoms: S_7  and  C_2 
REMARK    3  A    between atoms: C_13  and  S_7 
REMARK    4  A    between atoms: C_8  and  C_13 
REMARK       I    between atoms: N_9  and  C_8 
ROOT
ATOM      1  N   UNL d   1      53.567  31.877  53.761  0.00  0.00    -0.254 N 
ATOM      2  C   UNL d   1      52.944  32.092  53.266  0.00  0.00     0.182 A 
ATOM      3  C   UNL d   1      53.745  31.079  53.878  0.00  0.00     0.274 A 
ATOM      4  C   UNL d   1      53.299  30.502  53.500  0.00  0.00     0.104 A 
ATOM      5  N   UNL d   1      52.499  31.509  52.887  0.00  0.00    -0.222 NA
ATOM      6  C   UNL d   1      52.677  30.717  53.005  0.00  0.00     0.095 A 
ATOM      7  S   UNL d   1      53.343  29.680  53.508  0.00  0.00    -0.080 SA
ATOM      8  O   UNL d   1      54.368  30.864  54.373  0.00  0.00    -0.266 OA
ATOM      9  C   UNL d   1      52.336  30.028  52.707  0.00  0.00     0.027 A 
ATOM     10  C   UNL d   1      52.744  29.392  53.015  0.00  0.00     0.037 A 
ENDROOT
BRANCH   2  11
ATOM     11  S   UNL d   1      52.760  32.896  53.144  0.00  0.00    -0.044 SA
BRANCH  11  12
ATOM     12  C   UNL d   1      52.047  33.100  52.782  0.00  0.00     0.099 C 
BRANCH  12  13
ATOM     13  C   UNL d   1      51.829  33.894  52.719  0.00  0.00     0.271 C 
ATOM     14  N   UNL d   1      51.035  34.109  52.764  0.00  0.00    -0.272 N 
ATOM     15  C   UNL d   1      50.352  33.656  52.869  0.00  0.00     0.083 A 
ATOM     16  C   UNL d   1      50.816  34.898  52.702  0.00  0.00     0.083 A 
ATOM     17  C   UNL d   1      49.710  34.183  52.869  0.00  0.00     0.021 A 
ATOM     18  C   UNL d   1      49.995  34.940  52.767  0.00  0.00     0.021 A 
ATOM     19  O   UNL d   1      52.408  34.474  52.610  0.00  0.00    -0.266 OA
ENDBRANCH  12  13
ENDBRANCH  11  12
ENDBRANCH   2  11
BRANCH   1  20
ATOM     20  C   UNL d   1      54.011  32.450  54.138  0.00  0.00     0.069 A 
ATOM     21  C   UNL d   1      54.661  32.789  53.760  0.00  0.00     0.018 A 
ATOM     22  C   UNL d   1      55.107  33.367  54.144  0.00  0.00     0.002 A 
ATOM     23  C   UNL d   1      54.903  33.607  54.907  0.00  0.00     0.000 A 
ATOM     24  C   UNL d   1      54.253  33.267  55.286  0.00  0.00     0.002 A 
ATOM     25  C   UNL d   1      55.350  34.193  55.304  0.00  0.00     0.000 C 
ATOM     26  C   UNL d   1      53.806  32.689  54.901  0.00  0.00     0.018 A 
ENDBRANCH   1  20
TORSDOF 4
ENDMDL
MODEL 3
REMARK VINA RESULT:      -9.0      1.013      2.855
REMARK  4 active torsions:
REMARK  status: ('A' for Active; 'I' for Inactive)
REMARK    1  A    between atoms: C_11  and  N_1 
REMARK    2  A    between atoms: S_7  and  C_2 
REMARK    3  A    between atoms: C_13  and  S_7 
REMARK    4  A    between atoms: C_8  and  C_13 
REMARK       I    between atoms: N_9  and  C_8 
ROOT
ATOM      1  N   UNL d   1      52.688  33.475  53.612  0.00  0.00    -0.254 N 
ATOM      2  C   UNL d   1      52.433  32.765  53.280  0.00  0.00     0.182 A 
ATOM      3  C   UNL d   1      52.215  34.149  53.556  0.00  0.00     0.274 A 
ATOM      4  C   UNL d   1      51.492  34.110  53.168  0.00  0.00     0.104 A 
ATOM      5  N   UNL d   1      51.706  32.729  52.892  0.00  0.00    -0.222 NA
ATOM      6  C   UNL d   1      51.238  33.400  52.836  0.00  0.00     0.095 A 
ATOM      7  S   UNL d   1      50.913  34.677  53.026  0.00  0.00    -0.080 SA
ATOM      8  O   UNL d   1      52.470  34.860  53.888  0.00  0.00    -0.266 OA
ATOM      9  C   UNL d   1      50.501  33.528  52.489  0.00  0.00     0.027 A 
ATOM     10  C   UNL d   1      50.301  34.312  52.605  0.00  0.00     0.037 A 
ENDROOT
BRANCH   2  11
ATOM     11  S   UNL d   1      52.906  32.080  53.334  0.00  0.00    -0.044 SA
BRANCH  11  12
ATOM     12  C   UNL d   1      52.548  31.336  53.342  0.00  0.00     0.099 C 
BRANCH  12  13
ATOM     13  C   UNL d   1      52.986  30.665  53.145  0.00  0.00     0.271 C 
ATOM     14  N   UNL d   1      53.092  30.065  53.699  0.00  0.00    -0.272 N 
ATOM     15  C   UNL d   1      52.830  29.988  54.477  0.00  0.00     0.083 A 
ATOM     16  C   UNL d   1      53.527  29.396  53.504  0.00  0.00     0.083 A 
ATOM     17  C   UNL d   1      53.113  29.258  54.757  0.00  0.00     0.021 A 
ATOM     18  C   UNL d   1      53.538  28.899  54.162  0.00  0.00     0.021 A 
ATOM     19  O   UNL d   1      53.317  30.595  52.391  0.00  0.00    -0.266 OA
ENDBRANCH  12  13
ENDBRANCH  11  12
ENDBRANCH   2  11
BRANCH   1  20
ATOM     20  C   UNL d   1      53.407  33.515  53.998  0.00  0.00     0.069 A 
ATOM     21  C   UNL d   1      54.107  33.600  53.568  0.00  0.00     0.018 A 
ATOM     22  C   UNL d   1      54.830  33.641  53.962  0.00  0.00     0.002 A 
ATOM     23  C   UNL d   1      54.855  33.597  54.786  0.00  0.00     0.000 A 
ATOM     24  C   UNL d   1      54.156  33.512  55.215  0.00  0.00     0.002 A 
ATOM     25  C   UNL d   1      55.586  33.638  55.192  0.00  0.00     0.000 C 
ATOM     26  C   UNL d   1      53.432  33.471  54.822  0.00  0.00     0.018 A 
ENDBRANCH   1  20
TORSDOF 4
ENDMDL
MODEL 4
REMARK VINA RESULT:      -7.7      1.206      3.520
REMARK  4 active torsions:
REMARK  status: ('A' for Active; 'I' for Inactive)
REMARK    1  A    between atoms: C_11  and  N_1 
REMARK    2  A    between atoms: S_7  and  C_2 
REMARK    3  A    between atoms: C_13  and  S_7 
REMARK    4  A    between atoms: C_8  and  C_13 
REMARK       I    between atoms: N_9  and  C_8 
ROOT
ATOM      1  N   UNL d   1      53.395  32.534  53.927  0.00  0.00    -0.254 N 
ATOM      2  C   UNL d   1      52.985  33.213  53.704  0.00  0.00     0.182 A 
ATOM      3  C   UNL d   1      54.009  32.584  54.477  0.00  0.00     0.274 A 
ATOM      4  C   UNL d   1      54.209  33.312  54.800  0.00  0.00     0.104 A 
ATOM      5  N   UNL d   1      53.188  33.943  54.030  0.00  0.00    -0.222 NA
ATOM      6  C   UNL d   1      53.799  33.991  54.577  0.00  0.00     0.095 A 
ATOM      7  S   UNL d   1      54.782  33.532  55.348  0.00  0.00    -0.080 SA
ATOM      8  O   UNL d   1      54.420  31.904  54.700  0.00  0.00    -0.266 OA
ATOM      9  C   UNL d   1      54.118  34.631  54.987  0.00  0.00     0.027 A 
ATOM     10  C   UNL d   1      54.722  34.350  55.460  0.00  0.00     0.037 A 
ENDROOT
BRANCH   2  11
ATOM     11  S   UNL d   1      52.364  33.168  53.149  0.00  0.00    -0.044 SA
BRANCH  11  12
ATOM     12  C   UNL d   1      51.811  33.779  53.107  0.00  0.00     0.099 C 
BRANCH  12  13
ATOM     13  C   UNL d   1      51.364  33.883  52.420  0.00  0.00     0.271 C 
ATOM     14  N   UNL d   1      50.612  34.217  52.465  0.00  0.00    -0.272 N 
ATOM     15  C   UNL d   1      50.174  34.492  53.108  0.00  0.00     0.083 A 
ATOM     16  C   UNL d   1      50.165  34.322  51.784  0.00  0.00     0.083 A 
ATOM     17  C   UNL d   1      49.450  34.768  52.808  0.00  0.00     0.021 A 
ATOM     18  C   UNL d   1      49.447  34.664  52.000  0.00  0.00     0.021 A 
ATOM     19  O   UNL d   1      51.671  33.653  51.689  0.00  0.00    -0.266 OA
ENDBRANCH  12  13
ENDBRANCH  11  12
ENDBRANCH   2  11
BRANCH   1  20
ATOM     20  C   UNL d   1      53.197  31.808  53.606  0.00  0.00     0.069 A 
ATOM     21  C   UNL d   1      53.588  31.528  52.936  0.00  0.00     0.018 A 
ATOM     22  C   UNL d   1      53.385  30.796  52.616  0.00  0.00     0.002 A 
ATOM     23  C   UNL d   1      52.792  30.342  52.966  0.00  0.00     0.000 A 
ATOM     24  C   UNL d   1      52.402  30.621  53.637  0.00  0.00     0.002 A 
ATOM     25  C   UNL d   1      52.581  29.597  52.647  0.00  0.00     0.000 C 
ATOM     26  C   UNL d   1      52.604  31.355  53.958  0.00  0.00     0.018 A 
ENDBRANCH   1  20
TORSDOF 4
ENDMDL
