MODEL 1
REMARK VINA RESULT:      31.7      0.000      0.000
REMARK  5 active torsions:
REMARK  status: ('A' for Active; 'I' for Inactive)
REMARK    1  A    between atoms: N_7  and  C_1 
REMARK    2  A    between atoms: O_17  and  C_5 
REMARK    3  A    between atoms: C_10  and  N_7 
REMARK    4  A    between atoms: O_18  and  C_8 
REMARK    5  A    between atoms: O_19  and  C_9 
ROOT
ATOM      1  C   UNL d   1     -58.617 -98.825 -44.358  0.00  0.00     0.139 A 
ATOM      2  C   UNL d   1     -58.097 -98.781 -44.997  0.00  0.00     0.120 A 
ATOM      3  C   UNL d   1     -58.313 -98.847 -43.578  0.00  0.00     0.120 A 
ATOM      4  C   UNL d   1     -56.990 -98.779 -44.096  0.00  0.00     0.087 A 
ATOM      5  C   UNL d   1     -57.498 -98.824 -43.452  0.00  0.00     0.045 A 
ATOM      6  C   UNL d   1     -57.271 -98.757 -44.872  0.00  0.00     0.045 A 
ENDROOT
BRANCH   4   7
ATOM      7  N   UNL d   1     -56.170 -98.756 -43.964  0.00  0.00    -0.226 NA
BRANCH   7   8
ATOM      8  C   UNL d   1     -55.671 -99.251 -44.389  0.00  0.00     0.169 A 
ATOM      9  C   UNL d   1     -55.635-100.013 -44.232  0.00  0.00     0.094 A 
ATOM     10  C   UNL d   1     -55.157-100.488 -44.639  0.00  0.00     0.190 A 
ATOM     11  C   UNL d   1     -56.056-101.079 -43.491  0.00  0.00     0.128 A 
ATOM     12  N   UNL d   1     -55.132-101.249 -44.470  0.00  0.00    -0.128 NA
ATOM     13  N   UNL d   1     -54.715-100.199 -45.203  0.00  0.00    -0.203 NA
ATOM     14  N   UNL d   1     -55.570-101.546 -43.908  0.00  0.00    -0.145 NA
ATOM     15  C   UNL d   1     -54.735 -99.424 -45.382  0.00  0.00     0.202 A 
ATOM     16  N   UNL d   1     -55.213 -98.950 -44.974  0.00  0.00    -0.205 NA
ENDBRANCH   7   8
ENDBRANCH   4   7
BRANCH   3  17
ATOM     17  O   UNL d   1     -58.834 -98.893 -42.930  0.00  0.00    -0.326 OA
ATOM     18  C   UNL d   1     -58.533 -98.856 -42.155  0.00  0.00     0.181 C 
ENDBRANCH   3  17
BRANCH   2  19
ATOM     19  O   UNL d   1     -58.394 -98.759 -45.773  0.00  0.00    -0.326 OA
ATOM     20  C   UNL d   1     -59.172 -99.016 -45.931  0.00  0.00     0.181 C 
ENDBRANCH   2  19
BRANCH   1  21
ATOM     21  O   UNL d   1     -59.437 -98.849 -44.477  0.00  0.00    -0.324 OA
ATOM     22  C   UNL d   1     -59.949 -98.876 -43.814  0.00  0.00     0.182 C 
ENDBRANCH   1  21
TORSDOF 5
ENDMDL
