MODEL 1
REMARK VINA RESULT:      -2.6      0.000      0.000
REMARK  2 active torsions:
REMARK  status: ('A' for Active; 'I' for Inactive)
REMARK    1  A    between atoms: N_11  and  C_2 
REMARK    2  A    between atoms: C_16  and  N_11 
ROOT
ATOM      1  C   UNL d   1      58.628   0.655  30.845  0.00  0.00     0.024 A 
ATOM      2  C   UNL d   1      57.840   0.666  31.067  0.00  0.00     0.139 A 
ATOM      3  C   UNL d   1      58.838   0.639  30.050  0.00  0.00     0.022 A 
ATOM      4  C   UNL d   1      57.247   0.661  30.498  0.00  0.00     0.297 A 
ATOM      5  C   UNL d   1      59.225   0.660  31.424  0.00  0.00     0.005 A 
ATOM      6  C   UNL d   1      59.631   0.628  29.826  0.00  0.00     0.041 A 
ATOM      7  C   UNL d   1      60.230   0.633  30.394  0.00  0.00     0.196 A 
ATOM      8  N   UNL d   1      57.456   0.646  29.703  0.00  0.00    -0.207 NA
ATOM      9  C   UNL d   1      58.243   0.635  29.482  0.00  0.00     0.085 A 
ATOM     10  C   UNL d   1      60.018   0.649  31.201  0.00  0.00     0.039 A 
ATOM     11  O   UNL d   1      56.459   0.672  30.720  0.00  0.00    -0.264 OA
ATOM     12  O   UNL d   1      61.039   0.621  30.166  0.00  0.00    -0.287 OA
ATOM     13  C   UNL d   1      59.846   0.612  29.030  0.00  0.00     0.003 A 
ATOM     14  C   UNL d   1      59.015   0.675  32.219  0.00  0.00     0.000 A 
ATOM     15  C   UNL d   1      58.452   0.619  28.681  0.00  0.00     0.019 A 
ATOM     16  C   UNL d   1      60.617   0.653  31.767  0.00  0.00     0.003 A 
ATOM     17  C   UNL d   1      59.245   0.608  28.458  0.00  0.00     0.002 A 
ATOM     18  C   UNL d   1      59.611   0.680  32.793  0.00  0.00     0.000 A 
ATOM     19  C   UNL d   1      60.404   0.669  32.570  0.00  0.00     0.000 A 
ENDROOT
BRANCH   2  20
ATOM     20  N   UNL d   1      57.634   0.682  31.872  0.00  0.00    -0.241 NA
BRANCH  20  21
ATOM     21  C   UNL d   1      57.094   0.143  32.168  0.00  0.00     0.082 A 
ATOM     22  C   UNL d   1      56.513   0.411  32.690  0.00  0.00     0.019 A 
ATOM     23  C   UNL d   1      55.954  -0.115  33.004  0.00  0.00     0.002 A 
ATOM     24  C   UNL d   1      55.984  -0.933  32.784  0.00  0.00     0.000 A 
ATOM     25  C   UNL d   1      56.558  -1.190  32.272  0.00  0.00     0.002 A 
ATOM     26  C   UNL d   1      57.121  -0.659  31.956  0.00  0.00     0.019 A 
ENDBRANCH  20  21
ENDBRANCH   2  20
TORSDOF 2
ENDMDL
MODEL 2
REMARK VINA RESULT:      -1.8      9.578     10.407
REMARK  2 active torsions:
REMARK  status: ('A' for Active; 'I' for Inactive)
REMARK    1  A    between atoms: N_11  and  C_2 
REMARK    2  A    between atoms: C_16  and  N_11 
ROOT
ATOM      1  C   UNL d   1      58.952  -9.818  31.886  0.00  0.00     0.024 A 
ATOM      2  C   UNL d   1      58.925  -9.818  32.703  0.00  0.00     0.139 A 
ATOM      3  C   UNL d   1      58.257  -9.818  31.444  0.00  0.00     0.022 A 
ATOM      4  C   UNL d   1      58.202  -9.818  33.097  0.00  0.00     0.297 A 
ATOM      5  C   UNL d   1      59.684  -9.818  31.491  0.00  0.00     0.005 A 
ATOM      6  C   UNL d   1      58.284  -9.818  30.621  0.00  0.00     0.041 A 
ATOM      7  C   UNL d   1      59.006  -9.818  30.221  0.00  0.00     0.196 A 
ATOM      8  N   UNL d   1      57.508  -9.818  32.657  0.00  0.00    -0.207 NA
ATOM      9  C   UNL d   1      57.535  -9.818  31.839  0.00  0.00     0.085 A 
ATOM     10  C   UNL d   1      59.711  -9.818  30.668  0.00  0.00     0.039 A 
ATOM     11  O   UNL d   1      58.176  -9.818  33.914  0.00  0.00    -0.264 OA
ATOM     12  O   UNL d   1      59.034  -9.818  29.382  0.00  0.00    -0.287 OA
ATOM     13  C   UNL d   1      57.590  -9.818  30.175  0.00  0.00     0.003 A 
ATOM     14  C   UNL d   1      60.378  -9.818  31.932  0.00  0.00     0.000 A 
ATOM     15  C   UNL d   1      56.835  -9.818  31.398  0.00  0.00     0.019 A 
ATOM     16  C   UNL d   1      60.433  -9.818  30.268  0.00  0.00     0.003 A 
ATOM     17  C   UNL d   1      56.863  -9.818  30.574  0.00  0.00     0.002 A 
ATOM     18  C   UNL d   1      61.106  -9.818  31.538  0.00  0.00     0.000 A 
ATOM     19  C   UNL d   1      61.133  -9.818  30.715  0.00  0.00     0.000 A 
ENDROOT
BRANCH   2  20
ATOM     20  N   UNL d   1      59.630  -9.818  33.143  0.00  0.00    -0.241 NA
BRANCH  20  21
ATOM     21  C   UNL d   1      59.702  -9.339  33.803  0.00  0.00     0.082 A 
ATOM     22  C   UNL d   1      59.903  -9.687  34.525  0.00  0.00     0.019 A 
ATOM     23  C   UNL d   1      59.982  -9.224  35.208  0.00  0.00     0.002 A 
ATOM     24  C   UNL d   1      59.854  -8.387  35.159  0.00  0.00     0.000 A 
ATOM     25  C   UNL d   1      59.657  -8.052  34.448  0.00  0.00     0.002 A 
ATOM     26  C   UNL d   1      59.577  -8.519  33.760  0.00  0.00     0.019 A 
ENDBRANCH  20  21
ENDBRANCH   2  20
TORSDOF 2
ENDMDL
MODEL 3
REMARK VINA RESULT:      -1.5      9.815     10.545
REMARK  2 active torsions:
REMARK  status: ('A' for Active; 'I' for Inactive)
REMARK    1  A    between atoms: N_11  and  C_2 
REMARK    2  A    between atoms: C_16  and  N_11 
ROOT
ATOM      1  C   UNL d   1      59.432  -9.791  32.169  0.00  0.00     0.024 A 
ATOM      2  C   UNL d   1      59.807  -9.784  32.896  0.00  0.00     0.139 A 
ATOM      3  C   UNL d   1      59.870  -9.788  31.473  0.00  0.00     0.022 A 
ATOM      4  C   UNL d   1      60.628  -9.775  32.942  0.00  0.00     0.297 A 
ATOM      5  C   UNL d   1      58.601  -9.800  32.128  0.00  0.00     0.005 A 
ATOM      6  C   UNL d   1      59.492  -9.795  30.741  0.00  0.00     0.041 A 
ATOM      7  C   UNL d   1      58.668  -9.804  30.690  0.00  0.00     0.196 A 
ATOM      8  N   UNL d   1      61.066  -9.773  32.246  0.00  0.00    -0.207 NA
ATOM      9  C   UNL d   1      60.691  -9.779  31.519  0.00  0.00     0.085 A 
ATOM     10  C   UNL d   1      58.223  -9.806  31.396  0.00  0.00     0.039 A 
ATOM     11  O   UNL d   1      61.003  -9.768  33.668  0.00  0.00    -0.264 OA
ATOM     12  O   UNL d   1      58.283  -9.811  29.943  0.00  0.00    -0.287 OA
ATOM     13  C   UNL d   1      59.927  -9.793  30.040  0.00  0.00     0.003 A 
ATOM     14  C   UNL d   1      58.164  -9.802  32.824  0.00  0.00     0.000 A 
ATOM     15  C   UNL d   1      61.133  -9.777  30.821  0.00  0.00     0.019 A 
ATOM     16  C   UNL d   1      57.400  -9.816  31.344  0.00  0.00     0.003 A 
ATOM     17  C   UNL d   1      60.756  -9.783  30.088  0.00  0.00     0.002 A 
ATOM     18  C   UNL d   1      57.337  -9.811  32.780  0.00  0.00     0.000 A 
ATOM     19  C   UNL d   1      56.959  -9.818  32.048  0.00  0.00     0.000 A 
ENDROOT
BRANCH   2  20
ATOM     20  N   UNL d   1      59.359  -9.786  33.597  0.00  0.00    -0.241 NA
BRANCH  20  21
ATOM     21  C   UNL d   1      59.614  -9.363  34.248  0.00  0.00     0.082 A 
ATOM     22  C   UNL d   1      60.046  -9.756  34.832  0.00  0.00     0.019 A 
ATOM     23  C   UNL d   1      60.316  -9.349  35.502  0.00  0.00     0.002 A 
ATOM     24  C   UNL d   1      60.144  -8.523  35.583  0.00  0.00     0.000 A 
ATOM     25  C   UNL d   1      59.720  -8.143  35.007  0.00  0.00     0.002 A 
ATOM     26  C   UNL d   1      59.448  -8.553  34.331  0.00  0.00     0.019 A 
ENDBRANCH  20  21
ENDBRANCH   2  20
TORSDOF 2
ENDMDL
MODEL 4
REMARK VINA RESULT:      -1.1      2.119      2.696
REMARK  2 active torsions:
REMARK  status: ('A' for Active; 'I' for Inactive)
REMARK    1  A    between atoms: N_11  and  C_2 
REMARK    2  A    between atoms: C_16  and  N_11 
ROOT
ATOM      1  C   UNL d   1      59.093  -1.082  29.581  0.00  0.00     0.024 A 
ATOM      2  C   UNL d   1      58.427  -0.780  29.948  0.00  0.00     0.139 A 
ATOM      3  C   UNL d   1      59.121  -1.872  29.350  0.00  0.00     0.022 A 
ATOM      4  C   UNL d   1      57.776  -1.262  30.091  0.00  0.00     0.297 A 
ATOM      5  C   UNL d   1      59.750  -0.593  29.438  0.00  0.00     0.005 A 
ATOM      6  C   UNL d   1      59.792  -2.176  28.981  0.00  0.00     0.041 A 
ATOM      7  C   UNL d   1      60.448  -1.697  28.835  0.00  0.00     0.196 A 
ATOM      8  N   UNL d   1      57.803  -2.050  29.861  0.00  0.00    -0.207 NA
ATOM      9  C   UNL d   1      58.469  -2.352  29.494  0.00  0.00     0.085 A 
ATOM     10  C   UNL d   1      60.421  -0.897  29.069  0.00  0.00     0.039 A 
ATOM     11  O   UNL d   1      57.110  -0.960  30.458  0.00  0.00    -0.264 OA
ATOM     12  O   UNL d   1      61.132  -2.007  28.458  0.00  0.00    -0.287 OA
ATOM     13  C   UNL d   1      59.825  -2.967  28.748  0.00  0.00     0.003 A 
ATOM     14  C   UNL d   1      59.721   0.196  29.669  0.00  0.00     0.000 A 
ATOM     15  C   UNL d   1      58.495  -3.146  29.263  0.00  0.00     0.019 A 
ATOM     16  C   UNL d   1      61.077  -0.419  28.923  0.00  0.00     0.003 A 
ATOM     17  C   UNL d   1      59.166  -3.450  28.893  0.00  0.00     0.002 A 
ATOM     18  C   UNL d   1      60.376   0.682  29.526  0.00  0.00     0.000 A 
ATOM     19  C   UNL d   1      61.047   0.378  29.156  0.00  0.00     0.000 A 
ENDROOT
BRANCH   2  20
ATOM     20  N   UNL d   1      58.404   0.018  30.179  0.00  0.00    -0.241 NA
BRANCH  20  21
ATOM     21  C   UNL d   1      58.086   0.226  30.903  0.00  0.00     0.082 A 
ATOM     22  C   UNL d   1      57.296   0.465  30.935  0.00  0.00     0.019 A 
ATOM     23  C   UNL d   1      56.950   0.682  31.657  0.00  0.00     0.002 A 
ATOM     24  C   UNL d   1      57.415   0.655  32.365  0.00  0.00     0.000 A 
ATOM     25  C   UNL d   1      58.189   0.419  32.327  0.00  0.00     0.002 A 
ATOM     26  C   UNL d   1      58.538   0.202  31.599  0.00  0.00     0.019 A 
ENDBRANCH  20  21
ENDBRANCH   2  20
TORSDOF 2
ENDMDL
MODEL 5
REMARK VINA RESULT:      -0.4      2.116      4.794
REMARK  2 active torsions:
REMARK  status: ('A' for Active; 'I' for Inactive)
REMARK    1  A    between atoms: N_11  and  C_2 
REMARK    2  A    between atoms: C_16  and  N_11 
ROOT
ATOM      1  C   UNL d   1      56.709   0.655  33.813  0.00  0.00     0.024 A 
ATOM      2  C   UNL d   1      57.148   0.658  33.123  0.00  0.00     0.139 A 
ATOM      3  C   UNL d   1      57.084   0.663  34.546  0.00  0.00     0.022 A 
ATOM      4  C   UNL d   1      57.970   0.669  33.151  0.00  0.00     0.297 A 
ATOM      5  C   UNL d   1      55.878   0.644  33.780  0.00  0.00     0.005 A 
ATOM      6  C   UNL d   1      56.642   0.660  35.242  0.00  0.00     0.041 A 
ATOM      7  C   UNL d   1      55.816   0.648  35.218  0.00  0.00     0.196 A 
ATOM      8  N   UNL d   1      58.344   0.677  33.882  0.00  0.00    -0.207 NA
ATOM      9  C   UNL d   1      57.905   0.674  34.573  0.00  0.00     0.085 A 
ATOM     10  C   UNL d   1      55.436   0.641  34.476  0.00  0.00     0.039 A 
ATOM     11  O   UNL d   1      58.409   0.673  32.460  0.00  0.00    -0.264 OA
ATOM     12  O   UNL d   1      55.366   0.645  35.927  0.00  0.00    -0.287 OA
ATOM     13  C   UNL d   1      57.012   0.667  35.978  0.00  0.00     0.003 A 
ATOM     14  C   UNL d   1      55.505   0.636  33.048  0.00  0.00     0.000 A 
ATOM     15  C   UNL d   1      58.284   0.682  35.309  0.00  0.00     0.019 A 
ATOM     16  C   UNL d   1      54.612   0.630  34.453  0.00  0.00     0.003 A 
ATOM     17  C   UNL d   1      57.842   0.678  36.004  0.00  0.00     0.002 A 
ATOM     18  C   UNL d   1      54.677   0.625  33.017  0.00  0.00     0.000 A 
ATOM     19  C   UNL d   1      54.236   0.622  33.713  0.00  0.00     0.000 A 
ENDROOT
BRANCH   2  20
ATOM     20  N   UNL d   1      56.765   0.651  32.385  0.00  0.00    -0.241 NA
BRANCH  20  21
ATOM     21  C   UNL d   1      57.074   0.214  31.767  0.00  0.00     0.082 A 
ATOM     22  C   UNL d   1      57.426   0.614  31.136  0.00  0.00     0.019 A 
ATOM     23  C   UNL d   1      57.747   0.194  30.497  0.00  0.00     0.002 A 
ATOM     24  C   UNL d   1      57.711  -0.653  30.496  0.00  0.00     0.000 A 
ATOM     25  C   UNL d   1      57.363  -1.039  31.118  0.00  0.00     0.002 A 
ATOM     26  C   UNL d   1      57.040  -0.616  31.762  0.00  0.00     0.019 A 
ENDBRANCH  20  21
ENDBRANCH   2  20
TORSDOF 2
ENDMDL
MODEL 6
REMARK VINA RESULT:      -0.2      1.209      3.161
REMARK  2 active torsions:
REMARK  status: ('A' for Active; 'I' for Inactive)
REMARK    1  A    between atoms: N_11  and  C_2 
REMARK    2  A    between atoms: C_16  and  N_11 
ROOT
ATOM      1  C   UNL d   1      58.339   0.665  31.322  0.00  0.00     0.024 A 
ATOM      2  C   UNL d   1      58.250   0.660  30.509  0.00  0.00     0.139 A 
ATOM      3  C   UNL d   1      57.680   0.665  31.815  0.00  0.00     0.022 A 
ATOM      4  C   UNL d   1      57.499   0.655  30.172  0.00  0.00     0.297 A 
ATOM      5  C   UNL d   1      59.100   0.670  31.659  0.00  0.00     0.005 A 
ATOM      6  C   UNL d   1      57.771   0.670  32.634  0.00  0.00     0.041 A 
ATOM      7  C   UNL d   1      58.522   0.676  32.977  0.00  0.00     0.196 A 
ATOM      8  N   UNL d   1      56.841   0.655  30.664  0.00  0.00    -0.207 NA
ATOM      9  C   UNL d   1      56.931   0.660  31.477  0.00  0.00     0.085 A 
ATOM     10  C   UNL d   1      59.190   0.676  32.478  0.00  0.00     0.039 A 
ATOM     11  O   UNL d   1      57.410   0.650  29.359  0.00  0.00    -0.264 OA
ATOM     12  O   UNL d   1      58.613   0.681  33.812  0.00  0.00    -0.287 OA
ATOM     13  C   UNL d   1      57.113   0.671  33.132  0.00  0.00     0.003 A 
ATOM     14  C   UNL d   1      59.758   0.670  31.166  0.00  0.00     0.000 A 
ATOM     15  C   UNL d   1      56.267   0.660  31.971  0.00  0.00     0.019 A 
ATOM     16  C   UNL d   1      59.940   0.681  32.821  0.00  0.00     0.003 A 
ATOM     17  C   UNL d   1      56.357   0.665  32.790  0.00  0.00     0.002 A 
ATOM     18  C   UNL d   1      60.514   0.676  31.503  0.00  0.00     0.000 A 
ATOM     19  C   UNL d   1      60.604   0.681  32.322  0.00  0.00     0.000 A 
ENDROOT
BRANCH   2  20
ATOM     20  N   UNL d   1      58.919   0.660  30.016  0.00  0.00    -0.241 NA
BRANCH  20  21
ATOM     21  C   UNL d   1      59.063   0.026  29.519  0.00  0.00     0.082 A 
ATOM     22  C   UNL d   1      59.703   0.068  29.000  0.00  0.00     0.019 A 
ATOM     23  C   UNL d   1      59.870  -0.562  28.486  0.00  0.00     0.002 A 
ATOM     24  C   UNL d   1      59.377  -1.251  28.499  0.00  0.00     0.000 A 
ATOM     25  C   UNL d   1      58.750  -1.285  29.012  0.00  0.00     0.002 A 
ATOM     26  C   UNL d   1      58.581  -0.651  29.529  0.00  0.00     0.019 A 
ENDBRANCH  20  21
ENDBRANCH   2  20
TORSDOF 2
ENDMDL
MODEL 7
REMARK VINA RESULT:      -0.1      2.067      2.757
REMARK  2 active torsions:
REMARK  status: ('A' for Active; 'I' for Inactive)
REMARK    1  A    between atoms: N_11  and  C_2 
REMARK    2  A    between atoms: C_16  and  N_11 
ROOT
ATOM      1  C   UNL d   1      59.149  -0.965  29.349  0.00  0.00     0.024 A 
ATOM      2  C   UNL d   1      58.506  -0.553  29.641  0.00  0.00     0.139 A 
ATOM      3  C   UNL d   1      59.809  -0.564  29.064  0.00  0.00     0.022 A 
ATOM      4  C   UNL d   1      58.509   0.270  29.654  0.00  0.00     0.297 A 
ATOM      5  C   UNL d   1      59.143  -1.797  29.337  0.00  0.00     0.005 A 
ATOM      6  C   UNL d   1      60.457  -0.979  28.770  0.00  0.00     0.041 A 
ATOM      7  C   UNL d   1      60.459  -1.805  28.755  0.00  0.00     0.196 A 
ATOM      8  N   UNL d   1      59.168   0.671  29.370  0.00  0.00    -0.207 NA
ATOM      9  C   UNL d   1      59.811   0.258  29.078  0.00  0.00     0.085 A 
ATOM     10  C   UNL d   1      59.791  -2.212  29.043  0.00  0.00     0.039 A 
ATOM     11  O   UNL d   1      57.866   0.682  29.946  0.00  0.00    -0.264 OA
ATOM     12  O   UNL d   1      61.120  -2.228  28.455  0.00  0.00    -0.287 OA
ATOM     13  C   UNL d   1      61.120  -0.581  28.484  0.00  0.00     0.003 A 
ATOM     14  C   UNL d   1      58.483  -2.197  29.622  0.00  0.00     0.000 A 
ATOM     15  C   UNL d   1      60.473   0.664  28.793  0.00  0.00     0.019 A 
ATOM     16  C   UNL d   1      59.793  -3.037  29.028  0.00  0.00     0.003 A 
ATOM     17  C   UNL d   1      61.121   0.249  28.499  0.00  0.00     0.002 A 
ATOM     18  C   UNL d   1      58.478  -3.026  29.609  0.00  0.00     0.000 A 
ATOM     19  C   UNL d   1      59.126  -3.441  29.315  0.00  0.00     0.000 A 
ENDROOT
BRANCH   2  20
ATOM     20  N   UNL d   1      57.843  -0.963  29.927  0.00  0.00    -0.241 NA
BRANCH  20  21
ATOM     21  C   UNL d   1      57.547  -0.797  30.671  0.00  0.00     0.082 A 
ATOM     22  C   UNL d   1      56.982  -1.306  30.996  0.00  0.00     0.019 A 
ATOM     23  C   UNL d   1      56.666  -1.159  31.749  0.00  0.00     0.002 A 
ATOM     24  C   UNL d   1      56.929  -0.481  32.184  0.00  0.00     0.000 A 
ATOM     25  C   UNL d   1      57.483   0.014  31.860  0.00  0.00     0.002 A 
ATOM     26  C   UNL d   1      57.801  -0.134  31.101  0.00  0.00     0.019 A 
ENDBRANCH  20  21
ENDBRANCH   2  20
TORSDOF 2
ENDMDL
MODEL 8
REMARK VINA RESULT:      -0.0      1.998      4.424
REMARK  2 active torsions:
REMARK  status: ('A' for Active; 'I' for Inactive)
REMARK    1  A    between atoms: N_11  and  C_2 
REMARK    2  A    between atoms: C_16  and  N_11 
ROOT
ATOM      1  C   UNL d   1      56.323   0.681  33.602  0.00  0.00     0.024 A 
ATOM      2  C   UNL d   1      56.444   0.680  32.793  0.00  0.00     0.139 A 
ATOM      3  C   UNL d   1      55.560   0.681  33.911  0.00  0.00     0.022 A 
ATOM      4  C   UNL d   1      55.805   0.680  32.276  0.00  0.00     0.297 A 
ATOM      5  C   UNL d   1      56.972   0.681  34.122  0.00  0.00     0.005 A 
ATOM      6  C   UNL d   1      55.438   0.681  34.726  0.00  0.00     0.041 A 
ATOM      7  C   UNL d   1      56.076   0.682  35.249  0.00  0.00     0.196 A 
ATOM      8  N   UNL d   1      55.043   0.680  32.583  0.00  0.00    -0.207 NA
ATOM      9  C   UNL d   1      54.922   0.680  33.392  0.00  0.00     0.085 A 
ATOM     10  C   UNL d   1      56.850   0.682  34.937  0.00  0.00     0.039 A 
ATOM     11  O   UNL d   1      55.926   0.680  31.467  0.00  0.00    -0.264 OA
ATOM     12  O   UNL d   1      55.952   0.682  36.080  0.00  0.00    -0.287 OA
ATOM     13  C   UNL d   1      54.675   0.681  35.039  0.00  0.00     0.003 A 
ATOM     14  C   UNL d   1      57.734   0.681  33.814  0.00  0.00     0.000 A 
ATOM     15  C   UNL d   1      54.154   0.680  33.700  0.00  0.00     0.019 A 
ATOM     16  C   UNL d   1      57.487   0.682  35.461  0.00  0.00     0.003 A 
ATOM     17  C   UNL d   1      54.031   0.681  34.515  0.00  0.00     0.002 A 
ATOM     18  C   UNL d   1      58.379   0.682  34.333  0.00  0.00     0.000 A 
ATOM     19  C   UNL d   1      58.257   0.682  35.148  0.00  0.00     0.000 A 
ENDROOT
BRANCH   2  20
ATOM     20  N   UNL d   1      57.217   0.680  32.488  0.00  0.00    -0.241 NA
BRANCH  20  21
ATOM     21  C   UNL d   1      57.391   0.253  31.813  0.00  0.00     0.082 A 
ATOM     22  C   UNL d   1      57.714   0.650  31.164  0.00  0.00     0.019 A 
ATOM     23  C   UNL d   1      57.900   0.239  30.468  0.00  0.00     0.002 A 
ATOM     24  C   UNL d   1      57.755  -0.595  30.427  0.00  0.00     0.000 A 
ATOM     25  C   UNL d   1      57.438  -0.979  31.067  0.00  0.00     0.002 A 
ATOM     26  C   UNL d   1      57.251  -0.565  31.769  0.00  0.00     0.019 A 
ENDBRANCH  20  21
ENDBRANCH   2  20
TORSDOF 2
ENDMDL
