MODEL 1
REMARK VINA RESULT:      28.3      0.000      0.000
REMARK  4 active torsions:
REMARK  status: ('A' for Active; 'I' for Inactive)
REMARK    1  A    between atoms: C_2  and  C_1 
REMARK    2  A    between atoms: N_4  and  C_1 
REMARK    3  A    between atoms: O_13  and  C_5 
REMARK    4  A    between atoms: O_12  and  C_6 
ROOT
ATOM      1  C   UNL d   1      46.352 -17.891  43.597  0.00  0.00     0.031 A 
ATOM      2  C   UNL d   1      46.496 -18.985  42.371  0.00  0.00     0.138 A 
ATOM      3  C   UNL d   1      46.390 -19.250  43.149  0.00  0.00     0.118 A 
ATOM      4  C   UNL d   1      46.530 -18.172  42.206  0.00  0.00     0.118 A 
ATOM      5  C   UNL d   1      46.320 -18.700  43.754  0.00  0.00     0.029 A 
ATOM      6  C   UNL d   1      46.458 -17.627  42.821  0.00  0.00     0.029 A 
ATOM      7  O   UNL d   1      46.569 -19.526  41.748  0.00  0.00    -0.324 OA
ATOM      8  C   UNL d   1      46.635 -20.102  41.172  0.00  0.00     0.182 C 
ENDROOT
BRANCH   4   9
ATOM      9  O   UNL d   1      46.635 -17.906  41.430  0.00  0.00    -0.326 OA
ATOM     10  C   UNL d   1      45.985 -17.775  40.949  0.00  0.00     0.181 C 
ENDBRANCH   4   9
BRANCH   3  11
ATOM     11  O   UNL d   1      46.357 -20.072  43.307  0.00  0.00    -0.326 OA
ATOM     12  C   UNL d   1      46.261 -20.330  44.095  0.00  0.00     0.181 C 
ENDBRANCH   3  11
BRANCH   1  13
ATOM     13  C   UNL d   1      46.282 -17.347  44.204  0.00  0.00     0.120 C 
ATOM     14  S   UNL d   1      46.594 -17.527  44.955  0.00  0.00    -0.059 SA
BRANCH  13  15
ATOM     15  N   UNL d   1      45.900 -16.621  44.069  0.00  0.00    -0.292 N 
ATOM     16  C   UNL d   1      46.361 -15.955  44.007  0.00  0.00     0.108 A 
ATOM     17  C   UNL d   1      46.003 -15.215  43.872  0.00  0.00     0.142 A 
ATOM     18  O   UNL d   1      45.187 -15.160  43.802  0.00  0.00    -0.300 OA
ATOM     19  C   UNL d   1      44.726 -15.841  43.866  0.00  0.00     0.142 A 
ATOM     20  C   UNL d   1      45.079 -16.567  43.999  0.00  0.00     0.108 A 
ENDBRANCH  13  15
ENDBRANCH   1  13
TORSDOF 4
ENDMDL
MODEL 2
REMARK VINA RESULT:      30.8      2.438      3.856
REMARK  4 active torsions:
REMARK  status: ('A' for Active; 'I' for Inactive)
REMARK    1  A    between atoms: C_2  and  C_1 
REMARK    2  A    between atoms: N_4  and  C_1 
REMARK    3  A    between atoms: O_13  and  C_5 
REMARK    4  A    between atoms: O_12  and  C_6 
ROOT
ATOM      1  C   UNL d   1      45.537 -14.418  44.309  0.00  0.00     0.031 A 
ATOM      2  C   UNL d   1      45.369 -16.059  44.305  0.00  0.00     0.138 A 
ATOM      3  C   UNL d   1      46.049 -15.714  43.981  0.00  0.00     0.118 A 
ATOM      4  C   UNL d   1      44.772 -15.584  44.631  0.00  0.00     0.118 A 
ATOM      5  C   UNL d   1      46.125 -14.897  43.987  0.00  0.00     0.029 A 
ATOM      6  C   UNL d   1      44.858 -14.764  44.632  0.00  0.00     0.029 A 
ATOM      7  O   UNL d   1      45.275 -16.882  44.307  0.00  0.00    -0.324 OA
ATOM      8  C   UNL d   1      45.233 -17.699  44.283  0.00  0.00     0.182 C 
ENDROOT
BRANCH   4   9
ATOM      9  O   UNL d   1      44.093 -15.927  44.955  0.00  0.00    -0.326 OA
ATOM     10  C   UNL d   1      43.357 -15.596  44.810  0.00  0.00     0.181 C 
ENDBRANCH   4   9
BRANCH   3  11
ATOM     11  O   UNL d   1      46.646 -16.201  43.653  0.00  0.00    -0.326 OA
ATOM     12  C   UNL d   1      46.451 -16.721  43.030  0.00  0.00     0.181 C 
ENDBRANCH   3  11
BRANCH   1  13
ATOM     13  C   UNL d   1      45.618 -13.604  44.313  0.00  0.00     0.120 C 
ATOM     14  S   UNL d   1      45.998 -13.233  44.954  0.00  0.00    -0.059 SA
BRANCH  13  15
ATOM     15  N   UNL d   1      45.323 -13.154  43.680  0.00  0.00    -0.292 N 
ATOM     16  C   UNL d   1      45.781 -12.546  43.399  0.00  0.00     0.108 A 
ATOM     17  C   UNL d   1      45.508 -12.080  42.765  0.00  0.00     0.142 A 
ATOM     18  O   UNL d   1      44.777 -12.237  42.426  0.00  0.00    -0.300 OA
ATOM     19  C   UNL d   1      44.317 -12.856  42.716  0.00  0.00     0.142 A 
ATOM     20  C   UNL d   1      44.588 -13.313  43.339  0.00  0.00     0.108 A 
ENDBRANCH  13  15
ENDBRANCH   1  13
TORSDOF 4
ENDMDL
