MODEL 1
REMARK VINA RESULT:       5.2      0.000      0.000
REMARK  1 active torsions:
REMARK  status: ('A' for Active; 'I' for Inactive)
REMARK    1  A    between atoms: C_8  and  C_3 
ROOT
ATOM      1  N   UNL d   1      14.653  12.380  -2.119  0.00  0.00    -0.145 NA
ATOM      2  N   UNL d   1      14.972  12.234  -1.362  0.00  0.00    -0.106 NA
ATOM      3  C   UNL d   1      13.861  12.224  -2.264  0.00  0.00     0.103 A 
ATOM      4  C   UNL d   1      14.493  11.934  -0.763  0.00  0.00     0.297 A 
ATOM      5  C   UNL d   1      13.382  11.921  -1.654  0.00  0.00     0.026 A 
ATOM      6  C   UNL d   1      13.696  11.780  -0.918  0.00  0.00     0.066 A 
ATOM      7  O   UNL d   1      14.809  11.793  -0.023  0.00  0.00    -0.264 OA
ENDROOT
BRANCH   3   8
ATOM      8  C   UNL d   1      13.534  12.361  -2.999  0.00  0.00     0.019 A 
ATOM      9  C   UNL d   1      13.635  13.109  -3.348  0.00  0.00     0.002 A 
ATOM     10  C   UNL d   1      13.307  13.257  -4.095  0.00  0.00     0.000 A 
ATOM     11  C   UNL d   1      12.883  12.662  -4.485  0.00  0.00     0.000 A 
ATOM     12  C   UNL d   1      12.785  11.923  -4.136  0.00  0.00     0.000 A 
ATOM     13  C   UNL d   1      13.113  11.779  -3.393  0.00  0.00     0.002 A 
ENDBRANCH   3   8
TORSDOF 1
ENDMDL
MODEL 2
REMARK VINA RESULT:       5.8      1.679      3.059
REMARK  1 active torsions:
REMARK  status: ('A' for Active; 'I' for Inactive)
REMARK    1  A    between atoms: C_8  and  C_3 
ROOT
ATOM      1  N   UNL d   1      14.315  12.059  -2.991  0.00  0.00    -0.145 NA
ATOM      2  N   UNL d   1      14.135  12.050  -3.805  0.00  0.00    -0.106 NA
ATOM      3  C   UNL d   1      13.721  11.928  -2.441  0.00  0.00     0.103 A 
ATOM      4  C   UNL d   1      13.362  11.910  -4.055  0.00  0.00     0.297 A 
ATOM      5  C   UNL d   1      12.942  11.788  -2.700  0.00  0.00     0.026 A 
ATOM      6  C   UNL d   1      12.770  11.779  -3.493  0.00  0.00     0.066 A 
ATOM      7  O   UNL d   1      13.189  11.902  -4.854  0.00  0.00    -0.264 OA
ENDROOT
BRANCH   3   8
ATOM      8  C   UNL d   1      13.882  11.934  -1.641  0.00  0.00     0.019 A 
ATOM      9  C   UNL d   1      14.657  12.102  -1.390  0.00  0.00     0.002 A 
ATOM     10  C   UNL d   1      14.829  12.110  -0.579  0.00  0.00     0.000 A 
ATOM     11  C   UNL d   1      14.232  11.952  -0.028  0.00  0.00     0.000 A 
ATOM     12  C   UNL d   1      13.465  11.787  -0.280  0.00  0.00     0.000 A 
ATOM     13  C   UNL d   1      13.297  11.780  -1.088  0.00  0.00     0.002 A 
ENDBRANCH   3   8
TORSDOF 1
ENDMDL
