MODEL 1
REMARK VINA RESULT:      81.5      0.000      0.000
REMARK  7 active torsions:
REMARK  status: ('A' for Active; 'I' for Inactive)
REMARK    1  A    between atoms: O_8  and  C_1 
REMARK    2  A    between atoms: C_10  and  C_5 
REMARK    3  A    between atoms: C_12  and  O_8 
REMARK    4  A    between atoms: N_9  and  C_10 
REMARK    5  A    between atoms: C_25  and  N_14 
REMARK    6  A    between atoms: O_24  and  C_17 
REMARK    7  A    between atoms: C_29  and  C_25 
ROOT
ATOM      1  C   UNL d   1     -51.858  25.524  33.339  0.00  0.00     0.161 A 
ATOM      2  C   UNL d   1     -50.400  26.329  33.333  0.00  0.00     0.108 A 
ATOM      3  C   UNL d   1     -50.422  25.492  33.325  0.00  0.00     0.064 A 
ATOM      4  C   UNL d   1     -51.141  25.093  33.329  0.00  0.00     0.222 A 
ATOM      5  C   UNL d   1     -49.673  26.720  33.329  0.00  0.00     0.079 A 
ATOM      6  O   UNL d   1     -51.105  26.759  33.344  0.00  0.00    -0.305 OA
ATOM      7  C   UNL d   1     -51.838  26.357  33.347  0.00  0.00     0.126 A 
ATOM      8  C   UNL d   1     -49.705  25.065  33.314  0.00  0.00     0.009 A 
ATOM      9  C   UNL d   1     -48.968  26.301  33.319  0.00  0.00     0.199 A 
ATOM     10  O   UNL d   1     -51.166  24.268  33.321  0.00  0.00    -0.284 OA
ATOM     11  C   UNL d   1     -48.984  25.464  33.311  0.00  0.00     0.042 A 
ATOM     12  O   UNL d   1     -48.248  26.687  33.315  0.00  0.00    -0.286 OA
ATOM     13  C   UNL d   1     -52.542  26.783  33.358  0.00  0.00     0.029 C 
ENDROOT
BRANCH   5  14
ATOM     14  C   UNL d   1     -49.657  27.540  33.337  0.00  0.00     0.086 C 
BRANCH  14  15
ATOM     15  N   UNL d   1     -49.301  27.940  33.967  0.00  0.00    -0.300 N 
ATOM     16  C   UNL d   1     -49.121  28.742  33.893  0.00  0.00     0.100 A 
ATOM     17  C   UNL d   1     -48.767  29.141  34.518  0.00  0.00     0.100 A 
ATOM     18  N   UNL d   1     -48.592  28.740  35.220  0.00  0.00    -0.297 N 
ATOM     19  C   UNL d   1     -48.772  27.938  35.291  0.00  0.00     0.100 A 
ATOM     20  C   UNL d   1     -49.130  27.530  34.661  0.00  0.00     0.100 A 
BRANCH  18  21
ATOM     21  C   UNL d   1     -48.237  29.139  35.846  0.00  0.00     0.126 C 
BRANCH  21  22
ATOM     22  C   UNL d   1     -47.424  29.072  35.972  0.00  0.00     0.253 C 
ATOM     23  O   UNL d   1     -46.964  29.756  36.071  0.00  0.00    -0.281 OA
ENDBRANCH  21  22
ENDBRANCH  18  21
ENDBRANCH  14  15
ENDBRANCH   5  14
BRANCH   1  24
ATOM     24  O   UNL d   1     -52.579  25.126  33.343  0.00  0.00    -0.300 OA
BRANCH  24  25
ATOM     25  C   UNL d   1     -52.881  24.842  34.047  0.00  0.00     0.122 A 
ATOM     26  C   UNL d   1     -53.362  24.181  34.048  0.00  0.00     0.117 A 
ATOM     27  C   UNL d   1     -53.666  23.895  34.755  0.00  0.00     0.026 A 
ATOM     28  C   UNL d   1     -53.482  24.280  35.463  0.00  0.00     0.002 A 
ATOM     29  C   UNL d   1     -53.001  24.940  35.462  0.00  0.00     0.002 A 
ATOM     30  C   UNL d   1     -52.696  25.227  34.751  0.00  0.00     0.027 A 
BRANCH  26  31
ATOM     31  O   UNL d   1     -53.538  23.806  33.337  0.00  0.00    -0.326 OA
ATOM     32  C   UNL d   1     -54.125  23.227  33.309  0.00  0.00     0.181 C 
ENDBRANCH  26  31
ENDBRANCH  24  25
ENDBRANCH   1  24
TORSDOF 7
ENDMDL
