MODEL 1
REMARK VINA RESULT:      -2.2      0.000      0.000
REMARK  3 active torsions:
REMARK  status: ('A' for Active; 'I' for Inactive)
REMARK    1  A    between atoms: N_6  and  C_1 
REMARK    2  A    between atoms: C_11  and  C_2 
REMARK    3  A    between atoms: C_5  and  C_8 
REMARK       I    between atoms: C_8  and  N_6 
ROOT
ATOM      1  N   UNL d   1      59.022  -0.202  29.137  0.00  0.00    -0.200 NA
ATOM      2  C   UNL d   1      58.202  -0.351  29.218  0.00  0.00     0.302 C 
ATOM      3  O   UNL d   1      57.754  -0.563  28.543  0.00  0.00    -0.263 OA
ENDROOT
BRANCH   1   4
ATOM      4  C   UNL d   1      59.446  -0.001  29.773  0.00  0.00     0.119 A 
ATOM      5  C   UNL d   1      60.216   0.064  29.798  0.00  0.00     0.084 A 
ATOM      6  C   UNL d   1      60.405   0.274  30.537  0.00  0.00     0.013 A 
ATOM      7  C   UNL d   1      61.113   0.417  30.874  0.00  0.00     0.001 A 
ATOM      8  C   UNL d   1      59.753   0.335  30.950  0.00  0.00     0.031 A 
ATOM      9  C   UNL d   1      61.133   0.622  31.640  0.00  0.00     0.001 A 
ATOM     10  C   UNL d   1      60.464   0.682  32.052  0.00  0.00     0.006 A 
ATOM     11  S   UNL d   1      59.150   0.167  30.488  0.00  0.00    -0.068 SA
BRANCH   5  12
ATOM     12  C   UNL d   1      60.724  -0.053  29.213  0.00  0.00     0.299 C 
ATOM     13  O   UNL d   1      60.911  -0.796  29.004  0.00  0.00    -0.264 OA
ATOM     14  N   UNL d   1      61.053   0.549  28.829  0.00  0.00    -0.102 N 
ENDBRANCH   5  12
ENDBRANCH   1   4
BRANCH   2  15
ATOM     15  C   UNL d   1      57.834  -0.290  29.954  0.00  0.00     0.158 A 
ATOM     16  O   UNL d   1      57.720  -0.897  30.505  0.00  0.00    -0.302 OA
ATOM     17  C   UNL d   1      57.328  -0.595  31.165  0.00  0.00     0.100 A 
ATOM     18  C   UNL d   1      57.070  -0.936  31.878  0.00  0.00     0.025 A 
ATOM     19  C   UNL d   1      57.192   0.216  31.029  0.00  0.00     0.025 A 
ATOM     20  C   UNL d   1      56.684  -0.484  32.449  0.00  0.00     0.002 A 
ATOM     21  C   UNL d   1      56.544   0.336  32.317  0.00  0.00     0.000 A 
ATOM     22  C   UNL d   1      56.804   0.677  31.600  0.00  0.00     0.002 A 
ATOM     23  C   UNL d   1      57.505   0.405  30.281  0.00  0.00     0.032 A 
ENDBRANCH   2  15
TORSDOF 3
ENDMDL
MODEL 2
REMARK VINA RESULT:      -0.8      1.603      2.024
REMARK  3 active torsions:
REMARK  status: ('A' for Active; 'I' for Inactive)
REMARK    1  A    between atoms: N_6  and  C_1 
REMARK    2  A    between atoms: C_11  and  C_2 
REMARK    3  A    between atoms: C_5  and  C_8 
REMARK       I    between atoms: C_8  and  N_6 
ROOT
ATOM      1  N   UNL d   1      58.870  -2.281  28.887  0.00  0.00    -0.200 NA
ATOM      2  C   UNL d   1      58.164  -2.305  29.336  0.00  0.00     0.302 C 
ATOM      3  O   UNL d   1      57.679  -2.987  29.303  0.00  0.00    -0.263 OA
ENDROOT
BRANCH   1   4
ATOM      4  C   UNL d   1      59.329  -1.638  28.916  0.00  0.00     0.119 A 
ATOM      5  C   UNL d   1      60.095  -1.636  29.019  0.00  0.00     0.084 A 
ATOM      6  C   UNL d   1      60.326  -0.880  29.011  0.00  0.00     0.013 A 
ATOM      7  C   UNL d   1      61.050  -0.554  29.092  0.00  0.00     0.001 A 
ATOM      8  C   UNL d   1      59.704  -0.433  28.905  0.00  0.00     0.031 A 
ATOM      9  C   UNL d   1      61.116   0.235  29.061  0.00  0.00     0.001 A 
ATOM     10  C   UNL d   1      60.476   0.682  28.952  0.00  0.00     0.006 A 
ATOM     11  S   UNL d   1      59.077  -0.890  28.844  0.00  0.00    -0.068 SA
BRANCH   5  12
ATOM     12  C   UNL d   1      60.565  -2.256  29.113  0.00  0.00     0.299 C 
ATOM     13  O   UNL d   1      60.833  -2.434  29.839  0.00  0.00    -0.264 OA
ATOM     14  N   UNL d   1      60.778  -2.706  28.504  0.00  0.00    -0.102 N 
ENDBRANCH   5  12
ENDBRANCH   1   4
BRANCH   2  15
ATOM     15  C   UNL d   1      57.944  -1.664  29.808  0.00  0.00     0.158 A 
ATOM     16  O   UNL d   1      57.721  -0.909  29.549  0.00  0.00    -0.302 OA
ATOM     17  C   UNL d   1      57.545  -0.439  30.205  0.00  0.00     0.100 A 
ATOM     18  C   UNL d   1      57.296   0.349  30.288  0.00  0.00     0.025 A 
ATOM     19  C   UNL d   1      57.658  -0.906  30.887  0.00  0.00     0.025 A 
ATOM     20  C   UNL d   1      57.161   0.675  31.033  0.00  0.00     0.002 A 
ATOM     21  C   UNL d   1      57.273   0.210  31.725  0.00  0.00     0.000 A 
ATOM     22  C   UNL d   1      57.523  -0.583  31.641  0.00  0.00     0.002 A 
ATOM     23  C   UNL d   1      57.904  -1.662  30.642  0.00  0.00     0.032 A 
ENDBRANCH   2  15
TORSDOF 3
ENDMDL
MODEL 3
REMARK VINA RESULT:      -0.7      2.325      3.623
REMARK  3 active torsions:
REMARK  status: ('A' for Active; 'I' for Inactive)
REMARK    1  A    between atoms: N_6  and  C_1 
REMARK    2  A    between atoms: C_11  and  C_2 
REMARK    3  A    between atoms: C_5  and  C_8 
REMARK       I    between atoms: C_8  and  N_6 
ROOT
ATOM      1  N   UNL d   1      58.059  -1.326  28.885  0.00  0.00    -0.200 NA
ATOM      2  C   UNL d   1      58.047  -2.162  28.912  0.00  0.00     0.302 C 
ATOM      3  O   UNL d   1      57.315  -2.565  28.854  0.00  0.00    -0.263 OA
ENDROOT
BRANCH   1   4
ATOM      4  C   UNL d   1      58.749  -0.944  28.939  0.00  0.00     0.119 A 
ATOM      5  C   UNL d   1      58.909  -0.370  29.432  0.00  0.00     0.084 A 
ATOM      6  C   UNL d   1      59.657  -0.152  29.296  0.00  0.00     0.013 A 
ATOM      7  C   UNL d   1      60.108   0.409  29.640  0.00  0.00     0.001 A 
ATOM      8  C   UNL d   1      59.941  -0.591  28.726  0.00  0.00     0.031 A 
ATOM      9  C   UNL d   1      60.852   0.505  29.384  0.00  0.00     0.001 A 
ATOM     10  C   UNL d   1      61.133   0.053  28.803  0.00  0.00     0.006 A 
ATOM     11  S   UNL d   1      59.389  -1.087  28.494  0.00  0.00    -0.068 SA
BRANCH   5  12
ATOM     12  C   UNL d   1      58.432  -0.056  29.969  0.00  0.00     0.299 C 
ATOM     13  O   UNL d   1      58.501  -0.278  30.728  0.00  0.00    -0.264 OA
ATOM     14  N   UNL d   1      57.886   0.475  29.772  0.00  0.00    -0.102 N 
ENDBRANCH   5  12
ENDBRANCH   1   4
BRANCH   2  15
ATOM     15  C   UNL d   1      58.747  -2.591  28.993  0.00  0.00     0.158 A 
ATOM     16  O   UNL d   1      59.290  -2.542  29.617  0.00  0.00    -0.302 OA
ATOM     17  C   UNL d   1      59.912  -3.067  29.478  0.00  0.00     0.100 A 
ATOM     18  C   UNL d   1      60.602  -3.256  29.901  0.00  0.00     0.025 A 
ATOM     19  C   UNL d   1      59.759  -3.452  28.754  0.00  0.00     0.025 A 
ATOM     20  C   UNL d   1      61.133  -3.818  29.616  0.00  0.00     0.002 A 
ATOM     21  C   UNL d   1      60.985  -4.210  28.886  0.00  0.00     0.000 A 
ATOM     22  C   UNL d   1      60.291  -4.019  28.462  0.00  0.00     0.002 A 
ATOM     23  C   UNL d   1      59.040  -3.158  28.455  0.00  0.00     0.032 A 
ENDBRANCH   2  15
TORSDOF 3
ENDMDL
MODEL 4
REMARK VINA RESULT:      -0.0      1.737      3.224
REMARK  3 active torsions:
REMARK  status: ('A' for Active; 'I' for Inactive)
REMARK    1  A    between atoms: N_6  and  C_1 
REMARK    2  A    between atoms: C_11  and  C_2 
REMARK    3  A    between atoms: C_5  and  C_8 
REMARK       I    between atoms: C_8  and  N_6 
ROOT
ATOM      1  N   UNL d   1      60.050   0.555  29.635  0.00  0.00    -0.200 NA
ATOM      2  C   UNL d   1      60.372  -0.021  29.121  0.00  0.00     0.302 C 
ATOM      3  O   UNL d   1      61.068   0.157  28.688  0.00  0.00    -0.263 OA
ENDROOT
BRANCH   1   4
ATOM      4  C   UNL d   1      59.395   0.389  30.044  0.00  0.00     0.119 A 
ATOM      5  C   UNL d   1      59.327   0.406  30.814  0.00  0.00     0.084 A 
ATOM      6  C   UNL d   1      58.582   0.205  30.984  0.00  0.00     0.013 A 
ATOM      7  C   UNL d   1      58.207   0.132  31.685  0.00  0.00     0.001 A 
ATOM      8  C   UNL d   1      58.206   0.068  30.322  0.00  0.00     0.031 A 
ATOM      9  C   UNL d   1      57.444  -0.083  31.685  0.00  0.00     0.001 A 
ATOM     10  C   UNL d   1      57.070  -0.219  31.005  0.00  0.00     0.006 A 
ATOM     11  S   UNL d   1      58.699   0.179  29.729  0.00  0.00    -0.068 SA
BRANCH   5  12
ATOM     12  C   UNL d   1      59.882   0.587  31.337  0.00  0.00     0.299 C 
ATOM     13  O   UNL d   1      60.632   0.677  31.093  0.00  0.00    -0.264 OA
ATOM     14  N   UNL d   1      59.712   0.680  32.100  0.00  0.00    -0.102 N 
ENDBRANCH   5  12
ENDBRANCH   1   4
BRANCH   2  15
ATOM     15  C   UNL d   1      60.012  -0.758  29.036  0.00  0.00     0.158 A 
ATOM     16  O   UNL d   1      59.280  -0.916  28.682  0.00  0.00    -0.302 OA
ATOM     17  C   UNL d   1      59.132  -1.727  28.715  0.00  0.00     0.100 A 
ATOM     18  C   UNL d   1      58.500  -2.201  28.455  0.00  0.00     0.025 A 
ATOM     19  C   UNL d   1      59.781  -2.087  29.097  0.00  0.00     0.025 A 
ATOM     20  C   UNL d   1      58.507  -3.017  28.570  0.00  0.00     0.002 A 
ATOM     21  C   UNL d   1      59.159  -3.386  28.954  0.00  0.00     0.000 A 
ATOM     22  C   UNL d   1      59.793  -2.909  29.215  0.00  0.00     0.002 A 
ATOM     23  C   UNL d   1      60.324  -1.489  29.295  0.00  0.00     0.032 A 
ENDBRANCH   2  15
TORSDOF 3
ENDMDL
