MODEL 1
REMARK VINA RESULT:      -6.7      0.000      0.000
REMARK  6 active torsions:
REMARK  status: ('A' for Active; 'I' for Inactive)
REMARK    1  A    between atoms: C_22  and  C_3 
REMARK    2  A    between atoms: S_17  and  C_5 
REMARK    3  A    between atoms: C_11  and  C_16 
REMARK       I    between atoms: N_14  and  C_11 
REMARK    4  A    between atoms: C_19  and  N_14 
REMARK    5  A    between atoms: C_16  and  C_20 
REMARK    6  A    between atoms: C_20  and  S_17 
ROOT
ATOM      1  C   UNL d   1     -48.728  12.410  23.346  0.00  0.00     0.092 A 
ATOM      2  C   UNL d   1     -49.457  13.629  23.236  0.00  0.00     0.057 A 
ATOM      3  C   UNL d   1     -49.436  12.824  23.409  0.00  0.00     0.016 A 
ATOM      4  N   UNL d   1     -48.061  13.604  22.937  0.00  0.00    -0.239 NA
ATOM      5  C   UNL d   1     -48.040  12.800  23.110  0.00  0.00     0.120 A 
ATOM      6  C   UNL d   1     -48.769  14.019  23.000  0.00  0.00     0.081 A 
ATOM      7  C   UNL d   1     -50.165  14.043  23.299  0.00  0.00     0.193 A 
ATOM      8  C   UNL d   1     -48.704  11.592  23.521  0.00  0.00     0.103 C 
ATOM      9  N   UNL d   1     -48.692  10.778  23.698  0.00  0.00    -0.191 NA
ATOM     10  C   UNL d   1     -49.502  15.245  22.889  0.00  0.00     0.042 A 
ATOM     11  C   UNL d   1     -50.190  14.856  23.125  0.00  0.00     0.019 A 
ATOM     12  C   UNL d   1     -48.790  14.823  22.827  0.00  0.00    -0.003 A 
ATOM     13  O   UNL d   1     -50.852  13.654  23.535  0.00  0.00    -0.287 OA
ATOM     14  C   UNL d   1     -48.992  15.854  22.643  0.00  0.00     0.009 C 
ATOM     15  C   UNL d   1     -50.206  15.668  22.949  0.00  0.00     0.009 C 
ENDROOT
BRANCH   3  16
ATOM     16  C   UNL d   1     -50.123  12.435  23.645  0.00  0.00     0.001 C 
ATOM     17  C   UNL d   1     -50.652  12.151  23.080  0.00  0.00     0.000 C 
ENDBRANCH   3  16
BRANCH   5  18
ATOM     18  S   UNL d   1     -47.326  12.374  23.048  0.00  0.00    -0.067 SA
BRANCH  18  19
ATOM     19  C   UNL d   1     -46.622  12.769  22.875  0.00  0.00     0.042 C 
BRANCH  19  20
ATOM     20  C   UNL d   1     -45.898  12.383  22.976  0.00  0.00     0.070 C 
BRANCH  20  21
ATOM     21  C   UNL d   1     -45.213  12.686  22.604  0.00  0.00     0.280 C 
ATOM     22  N   UNL d   1     -44.646  12.162  22.305  0.00  0.00    -0.208 NA
ATOM     23  O   UNL d   1     -45.110  13.502  22.539  0.00  0.00    -0.265 OA
BRANCH  22  24
ATOM     24  C   UNL d   1     -43.960  12.465  21.933  0.00  0.00     0.085 A 
ATOM     25  C   UNL d   1     -43.218  12.238  22.206  0.00  0.00     0.021 A 
ATOM     26  C   UNL d   1     -42.540  12.533  21.845  0.00  0.00     0.031 A 
ATOM     27  C   UNL d   1     -42.604  13.054  21.208  0.00  0.00     0.140 A 
ATOM     28  C   UNL d   1     -43.355  13.281  20.935  0.00  0.00     0.031 A 
ATOM     29  F   UNL d   1     -41.924  13.357  20.836  0.00  0.00    -0.204 F 
ATOM     30  C   UNL d   1     -44.033  12.986  21.297  0.00  0.00     0.021 A 
ENDBRANCH  22  24
ENDBRANCH  20  21
ENDBRANCH  19  20
ENDBRANCH  18  19
ENDBRANCH   5  18
TORSDOF 6
ENDMDL
MODEL 2
REMARK VINA RESULT:      -6.3      1.327      1.984
REMARK  6 active torsions:
REMARK  status: ('A' for Active; 'I' for Inactive)
REMARK    1  A    between atoms: C_22  and  C_3 
REMARK    2  A    between atoms: S_17  and  C_5 
REMARK    3  A    between atoms: C_11  and  C_16 
REMARK       I    between atoms: N_14  and  C_11 
REMARK    4  A    between atoms: C_19  and  N_14 
REMARK    5  A    between atoms: C_16  and  C_20 
REMARK    6  A    between atoms: C_20  and  S_17 
ROOT
ATOM      1  C   UNL d   1     -46.700  12.353  23.181  0.00  0.00     0.092 A 
ATOM      2  C   UNL d   1     -47.768  13.289  23.058  0.00  0.00     0.057 A 
ATOM      3  C   UNL d   1     -47.487  12.557  23.312  0.00  0.00     0.016 A 
ATOM      4  N   UNL d   1     -46.475  13.609  22.542  0.00  0.00    -0.239 NA
ATOM      5  C   UNL d   1     -46.195  12.879  22.796  0.00  0.00     0.120 A 
ATOM      6  C   UNL d   1     -47.262  13.815  22.673  0.00  0.00     0.081 A 
ATOM      7  C   UNL d   1     -48.554  13.493  23.189  0.00  0.00     0.193 A 
ATOM      8  C   UNL d   1     -46.413  11.610  23.438  0.00  0.00     0.103 C 
ATOM      9  N   UNL d   1     -46.136  10.868  23.698  0.00  0.00    -0.191 NA
ATOM     10  C   UNL d   1     -48.336  14.756  22.550  0.00  0.00     0.042 A 
ATOM     11  C   UNL d   1     -48.841  14.230  22.934  0.00  0.00     0.019 A 
ATOM     12  C   UNL d   1     -47.543  14.545  22.420  0.00  0.00    -0.003 A 
ATOM     13  O   UNL d   1     -49.059  12.967  23.573  0.00  0.00    -0.287 OA
ATOM     14  C   UNL d   1     -48.065  15.439  22.160  0.00  0.00     0.009 C 
ATOM     15  C   UNL d   1     -49.120  14.969  22.676  0.00  0.00     0.009 C 
ENDROOT
BRANCH   3  16
ATOM     16  C   UNL d   1     -47.992  12.031  23.696  0.00  0.00     0.001 C 
ATOM     17  C   UNL d   1     -48.425  11.482  23.261  0.00  0.00     0.000 C 
ENDBRANCH   3  16
BRANCH   5  18
ATOM     18  S   UNL d   1     -45.399  12.666  22.666  0.00  0.00    -0.067 SA
BRANCH  18  19
ATOM     19  C   UNL d   1     -44.935  13.097  22.136  0.00  0.00     0.042 C 
BRANCH  19  20
ATOM     20  C   UNL d   1     -44.278  12.742  21.782  0.00  0.00     0.070 C 
BRANCH  20  21
ATOM     21  C   UNL d   1     -43.612  13.209  21.588  0.00  0.00     0.280 C 
ATOM     22  N   UNL d   1     -42.927  12.843  21.303  0.00  0.00    -0.208 NA
ATOM     23  O   UNL d   1     -43.644  14.028  21.684  0.00  0.00    -0.265 OA
BRANCH  22  24
ATOM     24  C   UNL d   1     -42.260  13.310  21.109  0.00  0.00     0.085 A 
ATOM     25  C   UNL d   1     -42.218  13.668  20.370  0.00  0.00     0.021 A 
ATOM     26  C   UNL d   1     -41.564  14.128  20.173  0.00  0.00     0.031 A 
ATOM     27  C   UNL d   1     -40.952  14.231  20.717  0.00  0.00     0.140 A 
ATOM     28  C   UNL d   1     -40.998  13.868  21.463  0.00  0.00     0.031 A 
ATOM     29  F   UNL d   1     -40.288  14.695  20.526  0.00  0.00    -0.204 F 
ATOM     30  C   UNL d   1     -41.652  13.408  21.658  0.00  0.00     0.021 A 
ENDBRANCH  22  24
ENDBRANCH  20  21
ENDBRANCH  19  20
ENDBRANCH  18  19
ENDBRANCH   5  18
TORSDOF 6
ENDMDL
MODEL 3
REMARK VINA RESULT:      -5.4      0.811      2.168
REMARK  6 active torsions:
REMARK  status: ('A' for Active; 'I' for Inactive)
REMARK    1  A    between atoms: C_22  and  C_3 
REMARK    2  A    between atoms: S_17  and  C_5 
REMARK    3  A    between atoms: C_11  and  C_16 
REMARK       I    between atoms: N_14  and  C_11 
REMARK    4  A    between atoms: C_19  and  N_14 
REMARK    5  A    between atoms: C_16  and  C_20 
REMARK    6  A    between atoms: C_20  and  S_17 
ROOT
ATOM      1  C   UNL d   1     -48.452  14.343  22.583  0.00  0.00     0.092 A 
ATOM      2  C   UNL d   1     -49.524  13.512  23.018  0.00  0.00     0.057 A 
ATOM      3  C   UNL d   1     -49.246  14.249  22.779  0.00  0.00     0.016 A 
ATOM      4  N   UNL d   1     -48.214  12.965  22.866  0.00  0.00    -0.239 NA
ATOM      5  C   UNL d   1     -47.936  13.701  22.627  0.00  0.00     0.120 A 
ATOM      6  C   UNL d   1     -49.008  12.869  23.062  0.00  0.00     0.081 A 
ATOM      7  C   UNL d   1     -50.318  13.418  23.214  0.00  0.00     0.193 A 
ATOM      8  C   UNL d   1     -48.167  15.091  22.339  0.00  0.00     0.103 C 
ATOM      9  N   UNL d   1     -47.894  15.840  22.098  0.00  0.00    -0.191 NA
ATOM     10  C   UNL d   1     -50.087  12.033  23.500  0.00  0.00     0.042 A 
ATOM     11  C   UNL d   1     -50.603  12.675  23.456  0.00  0.00     0.019 A 
ATOM     12  C   UNL d   1     -49.287  12.133  23.302  0.00  0.00    -0.003 A 
ATOM     13  O   UNL d   1     -50.834  14.059  23.170  0.00  0.00    -0.287 OA
ATOM     14  C   UNL d   1     -49.807  11.261  23.627  0.00  0.00     0.009 C 
ATOM     15  C   UNL d   1     -50.879  11.929  23.698  0.00  0.00     0.009 C 
ENDROOT
BRANCH   3  16
ATOM     16  C   UNL d   1     -49.761  14.891  22.735  0.00  0.00     0.001 C 
ATOM     17  C   UNL d   1     -49.781  15.447  23.342  0.00  0.00     0.000 C 
ENDBRANCH   3  16
BRANCH   5  18
ATOM     18  S   UNL d   1     -47.133  13.803  22.427  0.00  0.00    -0.067 SA
BRANCH  18  19
ATOM     19  C   UNL d   1     -46.576  13.236  22.648  0.00  0.00     0.042 C 
BRANCH  19  20
ATOM     20  C   UNL d   1     -46.108  12.872  22.071  0.00  0.00     0.070 C 
BRANCH  20  21
ATOM     21  C   UNL d   1     -45.278  12.977  22.087  0.00  0.00     0.280 C 
ATOM     22  N   UNL d   1     -44.817  12.668  21.473  0.00  0.00    -0.208 NA
ATOM     23  O   UNL d   1     -44.929  13.386  22.712  0.00  0.00    -0.265 OA
BRANCH  22  24
ATOM     24  C   UNL d   1     -43.987  12.772  21.488  0.00  0.00     0.085 A 
ATOM     25  C   UNL d   1     -43.514  12.203  21.848  0.00  0.00     0.021 A 
ATOM     26  C   UNL d   1     -42.697  12.300  21.867  0.00  0.00     0.031 A 
ATOM     27  C   UNL d   1     -42.352  12.967  21.524  0.00  0.00     0.140 A 
ATOM     28  C   UNL d   1     -42.832  13.539  21.161  0.00  0.00     0.031 A 
ATOM     29  F   UNL d   1     -41.526  13.073  21.538  0.00  0.00    -0.204 F 
ATOM     30  C   UNL d   1     -43.649  13.442  21.144  0.00  0.00     0.021 A 
ENDBRANCH  22  24
ENDBRANCH  20  21
ENDBRANCH  19  20
ENDBRANCH  18  19
ENDBRANCH   5  18
TORSDOF 6
ENDMDL
