MODEL 1
REMARK VINA RESULT:      67.3      0.000      0.000
REMARK  6 active torsions:
REMARK  status: ('A' for Active; 'I' for Inactive)
REMARK       I    between atoms: C_2  and  N_1 
REMARK    1  A    between atoms: C_3  and  C_2 
REMARK    2  A    between atoms: C_12  and  C_4 
REMARK       I    between atoms: C_5  and  N_8 
REMARK    3  A    between atoms: C_6  and  C_5 
REMARK       I    between atoms: N_9  and  C_6 
REMARK    4  A    between atoms: N_8  and  C_12 
REMARK    5  A    between atoms: C_19  and  N_9 
REMARK    6  A    between atoms: C_21  and  C_19 
ROOT
ATOM      1  C   UNL d   1     -48.577  28.487  35.604  0.00  0.00     0.337 C 
ATOM      2  N   UNL d   1     -49.130  28.033  35.204  0.00  0.00    -0.199 NA
ATOM      3  O   UNL d   1     -48.581  28.507  36.427  0.00  0.00    -0.260 OA
ENDROOT
BRANCH   2   4
ATOM      4  C   UNL d   1     -49.125  28.013  34.382  0.00  0.00     0.146 C 
BRANCH   4   5
ATOM      5  C   UNL d   1     -49.845  27.960  33.968  0.00  0.00     0.190 A 
ATOM      6  N   UNL d   1     -50.235  27.257  33.791  0.00  0.00    -0.250 N 
ATOM      7  C   UNL d   1     -50.053  26.464  33.952  0.00  0.00     0.272 C 
ATOM      8  C   UNL d   1     -50.922  27.462  33.378  0.00  0.00     0.112 A 
ATOM      9  O   UNL d   1     -49.363  26.276  34.365  0.00  0.00    -0.266 OA
ATOM     10  C   UNL d   1     -50.948  28.279  33.306  0.00  0.00     0.144 A 
ATOM     11  O   UNL d   1     -50.272  28.583  33.678  0.00  0.00    -0.285 OA
BRANCH   7  12
ATOM     12  C   UNL d   1     -50.556  25.863  33.702  0.00  0.00     0.086 A 
ATOM     13  S   UNL d   1     -51.372  25.862  33.545  0.00  0.00    -0.082 SA
ATOM     14  C   UNL d   1     -51.579  25.086  33.307  0.00  0.00     0.036 A 
ATOM     15  C   UNL d   1     -50.892  24.628  33.322  0.00  0.00     0.008 A 
ATOM     16  C   UNL d   1     -50.263  25.100  33.564  0.00  0.00     0.012 A 
ENDBRANCH   7  12
ENDBRANCH   4   5
ENDBRANCH   2   4
BRANCH   1  17
ATOM     17  C   UNL d   1     -48.014  28.927  35.188  0.00  0.00     0.337 C 
ATOM     18  N   UNL d   1     -47.928  29.722  35.332  0.00  0.00    -0.202 NA
ATOM     19  O   UNL d   1     -47.541  28.555  34.627  0.00  0.00    -0.260 OA
BRANCH  18  20
ATOM     20  C   UNL d   1     -47.364  30.163  34.916  0.00  0.00     0.102 C 
BRANCH  20  21
ATOM     21  C   UNL d   1     -47.535  30.921  34.659  0.00  0.00     0.019 A 
ATOM     22  C   UNL d   1     -47.994  31.050  33.996  0.00  0.00     0.002 A 
ATOM     23  C   UNL d   1     -48.170  31.799  33.733  0.00  0.00     0.011 A 
ATOM     24  C   UNL d   1     -47.873  32.457  34.152  0.00  0.00     0.058 A 
ATOM     25  C   UNL d   1     -47.410  32.344  34.821  0.00  0.00     0.011 A 
ATOM     26 CL   UNL d   1     -48.049  33.228  33.889  0.00  0.00    -0.082 Cl
ATOM     27  C   UNL d   1     -47.238  31.579  35.079  0.00  0.00     0.002 A 
ENDBRANCH  20  21
ENDBRANCH  18  20
ENDBRANCH   1  17
TORSDOF 6
ENDMDL
