MODEL 1
REMARK VINA RESULT:      76.7      0.000      0.000
REMARK  7 active torsions:
REMARK  status: ('A' for Active; 'I' for Inactive)
REMARK       I    between atoms: N_2  and  C_13 
REMARK    1  A    between atoms: C_11  and  C_6 
REMARK    2  A    between atoms: C_14  and  C_7 
REMARK    3  A    between atoms: S_18  and  C_9 
REMARK    4  A    between atoms: C_13  and  C_19 
REMARK    5  A    between atoms: O_26  and  C_15 
REMARK    6  A    between atoms: C_19  and  S_18 
REMARK    7  A    between atoms: O_29  and  C_22 
ROOT
ATOM      1  N   UNL d   1      14.120  15.008  -4.221  0.00  0.00    -0.194 N 
ATOM      2  N   UNL d   1      13.812  14.309  -4.525  0.00  0.00    -0.162 NA
ATOM      3  C   UNL d   1      14.140  14.937  -3.400  0.00  0.00     0.090 A 
ATOM      4  C   UNL d   1      13.643  13.810  -3.883  0.00  0.00     0.109 A 
ATOM      5  C   UNL d   1      13.849  14.208  -3.207  0.00  0.00     0.041 A 
ATOM      6  C   UNL d   1      14.358  15.644  -4.659  0.00  0.00     0.287 C 
ATOM      7  O   UNL d   1      14.304  15.632  -5.479  0.00  0.00    -0.265 OA
ENDROOT
BRANCH   6   8
ATOM      8  C   UNL d   1      14.660  16.317  -4.285  0.00  0.00     0.100 C 
BRANCH   8   9
ATOM      9  S   UNL d   1      15.138  16.844  -4.710  0.00  0.00    -0.054 SA
BRANCH   9  10
ATOM     10  C   UNL d   1      14.811  17.529  -5.048  0.00  0.00     0.163 A 
ATOM     11  S   UNL d   1      15.140  18.305  -5.007  0.00  0.00    -0.021 SA
ATOM     12  C   UNL d   1      14.631  18.821  -5.421  0.00  0.00     0.200 A 
ATOM     13  N   UNL d   1      14.886  19.600  -5.425  0.00  0.00    -0.182 NA
ATOM     14  N   UNL d   1      13.984  18.377  -5.721  0.00  0.00    -0.204 N 
ATOM     15  C   UNL d   1      14.408  20.101  -5.817  0.00  0.00     0.281 A 
ATOM     16  O   UNL d   1      14.965  20.686  -5.599  0.00  0.00    -0.265 OA
ATOM     17  C   UNL d   1      13.669  20.029  -6.249  0.00  0.00     0.064 A 
ATOM     18  C   UNL d   1      13.204  19.311  -6.384  0.00  0.00     0.026 A 
ATOM     19  C   UNL d   1      13.392  18.540  -6.113  0.00  0.00     0.103 A 
ATOM     20  N   UNL d   1      14.096  17.576  -5.490  0.00  0.00    -0.150 NA
ENDBRANCH   9  10
ENDBRANCH   8   9
ENDBRANCH   6   8
BRANCH   3  21
ATOM     21  C   UNL d   1      14.412  15.517  -2.893  0.00  0.00     0.042 A 
ATOM     22  C   UNL d   1      14.698  15.289  -2.155  0.00  0.00     0.118 A 
ATOM     23  C   UNL d   1      14.978  15.869  -1.629  0.00  0.00     0.116 A 
ATOM     24  C   UNL d   1      14.966  16.664  -1.849  0.00  0.00     0.026 A 
ATOM     25  C   UNL d   1      14.680  16.883  -2.583  0.00  0.00     0.002 A 
ATOM     26  C   UNL d   1      14.401  16.301  -3.107  0.00  0.00     0.004 A 
BRANCH  22  27
ATOM     27  O   UNL d   1      14.712  14.497  -1.933  0.00  0.00    -0.326 OA
ATOM     28  C   UNL d   1      15.188  14.273  -1.302  0.00  0.00     0.181 C 
ENDBRANCH  22  27
BRANCH  23  29
ATOM     29  O   UNL d   1      15.264  15.641  -0.893  0.00  0.00    -0.326 OA
ATOM     30  C   UNL d   1      15.512  16.211  -0.351  0.00  0.00     0.181 C 
ENDBRANCH  23  29
ENDBRANCH   3  21
BRANCH   4  31
ATOM     31  C   UNL d   1      13.328  13.059  -3.938  0.00  0.00     0.049 A 
ATOM     32  S   UNL d   1      13.033  12.707  -4.620  0.00  0.00    -0.085 SA
ATOM     33  C   UNL d   1      12.770  11.945  -4.420  0.00  0.00     0.035 A 
ATOM     34  C   UNL d   1      12.909  11.839  -3.615  0.00  0.00     0.007 A 
ATOM     35  C   UNL d   1      13.252  12.534  -3.331  0.00  0.00     0.009 A 
ENDBRANCH   4  31
TORSDOF 7
ENDMDL
