MODEL 1
REMARK VINA RESULT:      -5.5      0.000      0.000
REMARK  4 active torsions:
REMARK  status: ('A' for Active; 'I' for Inactive)
REMARK    1  A    between atoms: S_2  and  C_1 
REMARK    2  A    between atoms: C_7  and  S_2 
REMARK    3  A    between atoms: O_13  and  C_6 
REMARK    4  A    between atoms: C_17  and  O_13 
ROOT
ATOM      1  S   UNL d   1     -41.744-122.908 -50.696  0.00  0.00     0.228 S 
ATOM      2  O   UNL d   1     -41.123-123.417 -50.590  0.00  0.00    -0.216 OA
ATOM      3  O   UNL d   1     -42.396-122.399 -50.739  0.00  0.00    -0.216 OA
ENDROOT
BRANCH   1   4
ATOM      4  C   UNL d   1     -41.558-122.771 -51.451  0.00  0.00     0.188 A 
ATOM      5  N   UNL d   1     -41.603-123.246 -52.119  0.00  0.00    -0.203 NA
ATOM      6  C   UNL d   1     -41.323-122.779 -52.753  0.00  0.00     0.217 A 
ATOM      7  S   UNL d   1     -41.124-122.076 -52.491  0.00  0.00    -0.029 SA
ATOM      8  C   UNL d   1     -41.260-122.043 -51.685  0.00  0.00     0.119 A 
ATOM      9 CL   UNL d   1     -41.123-121.386 -51.174  0.00  0.00    -0.073 Cl
BRANCH   6  10
ATOM     10  O   UNL d   1     -41.258-123.022 -53.570  0.00  0.00    -0.282 OA
BRANCH  10  11
ATOM     11  C   UNL d   1     -41.595-122.590 -54.163  0.00  0.00     0.125 C 
ATOM     12  C   UNL d   1     -41.525-122.833 -54.938  0.00  0.00     0.029 C 
ENDBRANCH  10  11
ENDBRANCH   6  10
ENDBRANCH   1   4
BRANCH   1  13
ATOM     13  C   UNL d   1     -41.954-123.049 -49.878  0.00  0.00     0.089 A 
ATOM     14  C   UNL d   1     -41.387-123.303 -49.317  0.00  0.00     0.011 A 
ATOM     15  C   UNL d   1     -41.597-123.434 -48.547  0.00  0.00     0.001 A 
ATOM     16  C   UNL d   1     -42.384-123.309 -48.331  0.00  0.00     0.000 A 
ATOM     17  C   UNL d   1     -42.933-123.066 -48.861  0.00  0.00     0.001 A 
ATOM     18  C   UNL d   1     -42.632-123.436 -47.539  0.00  0.00     0.000 C 
ATOM     19  C   UNL d   1     -42.742-122.926 -49.655  0.00  0.00     0.011 A 
ENDBRANCH   1  13
TORSDOF 4
ENDMDL
MODEL 2
REMARK VINA RESULT:      -5.1      0.856      4.262
REMARK  4 active torsions:
REMARK  status: ('A' for Active; 'I' for Inactive)
REMARK    1  A    between atoms: S_2  and  C_1 
REMARK    2  A    between atoms: C_7  and  S_2 
REMARK    3  A    between atoms: O_13  and  C_6 
REMARK    4  A    between atoms: C_17  and  O_13 
ROOT
ATOM      1  S   UNL d   1     -41.691-122.548 -52.438  0.00  0.00     0.228 S 
ATOM      2  O   UNL d   1     -42.250-121.962 -52.401  0.00  0.00    -0.216 OA
ATOM      3  O   UNL d   1     -41.123-123.141 -52.544  0.00  0.00    -0.216 OA
ENDROOT
BRANCH   1   4
ATOM      4  C   UNL d   1     -41.665-122.630 -51.653  0.00  0.00     0.188 A 
ATOM      5  N   UNL d   1     -41.870-123.254 -51.162  0.00  0.00    -0.203 NA
ATOM      6  C   UNL d   1     -41.712-122.996 -50.382  0.00  0.00     0.217 A 
ATOM      7  S   UNL d   1     -41.433-122.272 -50.399  0.00  0.00    -0.029 SA
ATOM      8  C   UNL d   1     -41.393-122.020 -51.177  0.00  0.00     0.119 A 
ATOM      9 CL   UNL d   1     -41.123-121.269 -51.452  0.00  0.00    -0.073 Cl
BRANCH   6  10
ATOM     10  O   UNL d   1     -41.833-123.446 -49.665  0.00  0.00    -0.282 OA
BRANCH  10  11
ATOM     11  C   UNL d   1     -42.457-123.295 -49.177  0.00  0.00     0.125 C 
ATOM     12  C   UNL d   1     -42.638-123.811 -48.572  0.00  0.00     0.029 C 
ENDBRANCH  10  11
ENDBRANCH   6  10
ENDBRANCH   1   4
BRANCH   1  13
ATOM     13  C   UNL d   1     -41.713-122.466 -53.289  0.00  0.00     0.089 A 
ATOM     14  C   UNL d   1     -41.290-122.984 -53.792  0.00  0.00     0.011 A 
ATOM     15  C   UNL d   1     -41.318-122.897 -54.596  0.00  0.00     0.001 A 
ATOM     16  C   UNL d   1     -41.777-122.284 -54.904  0.00  0.00     0.000 A 
ATOM     17  C   UNL d   1     -42.185-121.783 -54.432  0.00  0.00     0.001 A 
ATOM     18  C   UNL d   1     -41.826-122.167 -55.734  0.00  0.00     0.000 C 
ATOM     19  C   UNL d   1     -42.171-121.853 -53.606  0.00  0.00     0.011 A 
ENDBRANCH   1  13
TORSDOF 4
ENDMDL
MODEL 3
REMARK VINA RESULT:      -4.4      1.207      4.182
REMARK  4 active torsions:
REMARK  status: ('A' for Active; 'I' for Inactive)
REMARK    1  A    between atoms: S_2  and  C_1 
REMARK    2  A    between atoms: C_7  and  S_2 
REMARK    3  A    between atoms: O_13  and  C_6 
REMARK    4  A    between atoms: C_17  and  O_13 
ROOT
ATOM      1  S   UNL d   1     -41.460-123.016 -51.482  0.00  0.00     0.228 S 
ATOM      2  O   UNL d   1     -41.123-122.278 -51.461  0.00  0.00    -0.216 OA
ATOM      3  O   UNL d   1     -41.798-123.767 -51.571  0.00  0.00    -0.216 OA
ENDROOT
BRANCH   1   4
ATOM      4  C   UNL d   1     -41.541-123.046 -50.697  0.00  0.00     0.188 A 
ATOM      5  N   UNL d   1     -41.123-123.453 -50.121  0.00  0.00    -0.203 NA
ATOM      6  C   UNL d   1     -41.480-123.254 -49.392  0.00  0.00     0.217 A 
ATOM      7  S   UNL d   1     -42.069-122.765 -49.516  0.00  0.00    -0.029 SA
ATOM      8  C   UNL d   1     -42.130-122.618 -50.319  0.00  0.00     0.119 A 
ATOM      9 CL   UNL d   1     -42.693-122.119 -50.701  0.00  0.00    -0.073 Cl
BRANCH   6  10
ATOM     10  O   UNL d   1     -41.246-123.536 -48.619  0.00  0.00    -0.282 OA
BRANCH  10  11
ATOM     11  C   UNL d   1     -41.524-123.189 -47.945  0.00  0.00     0.125 C 
ATOM     12  C   UNL d   1     -41.269-123.448 -47.216  0.00  0.00     0.029 C 
ENDBRANCH  10  11
ENDBRANCH   6  10
ENDBRANCH   1   4
BRANCH   1  13
ATOM     13  C   UNL d   1     -41.377-122.991 -52.333  0.00  0.00     0.089 A 
ATOM     14  C   UNL d   1     -41.447-123.681 -52.802  0.00  0.00     0.011 A 
ATOM     15  C   UNL d   1     -41.367-123.645 -53.606  0.00  0.00     0.001 A 
ATOM     16  C   UNL d   1     -41.214-122.910 -53.949  0.00  0.00     0.000 A 
ATOM     17  C   UNL d   1     -41.145-122.245 -53.510  0.00  0.00     0.001 A 
ATOM     18  C   UNL d   1     -41.125-122.841 -54.781  0.00  0.00     0.000 C 
ATOM     19  C   UNL d   1     -41.223-122.257 -52.684  0.00  0.00     0.011 A 
ENDBRANCH   1  13
TORSDOF 4
ENDMDL
MODEL 4
REMARK VINA RESULT:      -4.3      1.311      1.714
REMARK  4 active torsions:
REMARK  status: ('A' for Active; 'I' for Inactive)
REMARK    1  A    between atoms: S_2  and  C_1 
REMARK    2  A    between atoms: C_7  and  S_2 
REMARK    3  A    between atoms: O_13  and  C_6 
REMARK    4  A    between atoms: C_17  and  O_13 
ROOT
ATOM      1  S   UNL d   1     -41.832-122.649 -51.891  0.00  0.00     0.228 S 
ATOM      2  O   UNL d   1     -42.233-123.346 -51.992  0.00  0.00    -0.216 OA
ATOM      3  O   UNL d   1     -41.425-121.948 -51.721  0.00  0.00    -0.216 OA
ENDROOT
BRANCH   1   4
ATOM      4  C   UNL d   1     -41.781-122.518 -52.669  0.00  0.00     0.188 A 
ATOM      5  N   UNL d   1     -42.016-121.883 -53.131  0.00  0.00    -0.203 NA
ATOM      6  C   UNL d   1     -41.807-122.080 -53.916  0.00  0.00     0.217 A 
ATOM      7  S   UNL d   1     -41.471-122.779 -53.929  0.00  0.00    -0.029 SA
ATOM      8  C   UNL d   1     -41.442-123.075 -53.166  0.00  0.00     0.119 A 
ATOM      9 CL   UNL d   1     -41.123-123.817 -52.923  0.00  0.00    -0.073 Cl
BRANCH   6  10
ATOM     10  O   UNL d   1     -41.936-121.598 -54.611  0.00  0.00    -0.282 OA
BRANCH  10  11
ATOM     11  C   UNL d   1     -42.234-121.915 -55.291  0.00  0.00     0.125 C 
ATOM     12  C   UNL d   1     -42.145-121.522 -55.999  0.00  0.00     0.029 C 
ENDBRANCH  10  11
ENDBRANCH   6  10
ENDBRANCH   1   4
BRANCH   1  13
ATOM     13  C   UNL d   1     -41.882-122.784 -51.048  0.00  0.00     0.089 A 
ATOM     14  C   UNL d   1     -42.550-122.544 -50.603  0.00  0.00     0.011 A 
ATOM     15  C   UNL d   1     -42.586-122.677 -49.806  0.00  0.00     0.001 A 
ATOM     16  C   UNL d   1     -41.947-123.054 -49.445  0.00  0.00     0.000 A 
ATOM     17  C   UNL d   1     -41.304-123.286 -49.861  0.00  0.00     0.001 A 
ATOM     18  C   UNL d   1     -41.955-123.205 -48.619  0.00  0.00     0.000 C 
ATOM     19  C   UNL d   1     -41.244-123.161 -50.679  0.00  0.00     0.011 A 
ENDBRANCH   1  13
TORSDOF 4
ENDMDL
MODEL 5
REMARK VINA RESULT:      -3.0      1.300      4.735
REMARK  4 active torsions:
REMARK  status: ('A' for Active; 'I' for Inactive)
REMARK    1  A    between atoms: S_2  and  C_1 
REMARK    2  A    between atoms: C_7  and  S_2 
REMARK    3  A    between atoms: O_13  and  C_6 
REMARK    4  A    between atoms: C_17  and  O_13 
ROOT
ATOM      1  S   UNL d   1     -41.818-122.302 -53.373  0.00  0.00     0.228 S 
ATOM      2  O   UNL d   1     -42.509-121.914 -53.202  0.00  0.00    -0.216 OA
ATOM      3  O   UNL d   1     -41.123-122.682 -53.613  0.00  0.00    -0.216 OA
ENDROOT
BRANCH   1   4
ATOM      4  C   UNL d   1     -41.683-122.482 -52.615  0.00  0.00     0.188 A 
ATOM      5  N   UNL d   1     -41.808-122.061 -51.923  0.00  0.00    -0.203 NA
ATOM      6  C   UNL d   1     -41.550-122.557 -51.302  0.00  0.00     0.217 A 
ATOM      7  S   UNL d   1     -41.288-123.226 -51.594  0.00  0.00    -0.029 SA
ATOM      8  C   UNL d   1     -41.359-123.208 -52.409  0.00  0.00     0.119 A 
ATOM      9 CL   UNL d   1     -41.142-123.817 -52.950  0.00  0.00    -0.073 Cl
BRANCH   6  10
ATOM     10  O   UNL d   1     -41.564-122.372 -50.467  0.00  0.00    -0.282 OA
BRANCH  10  11
ATOM     11  C   UNL d   1     -41.948-122.847 -49.940  0.00  0.00     0.125 C 
ATOM     12  C   UNL d   1     -42.277-122.528 -49.265  0.00  0.00     0.029 C 
ENDBRANCH  10  11
ENDBRANCH   6  10
ENDBRANCH   1   4
BRANCH   1  13
ATOM     13  C   UNL d   1     -41.956-122.111 -54.195  0.00  0.00     0.089 A 
ATOM     14  C   UNL d   1     -42.729-122.045 -54.508  0.00  0.00     0.011 A 
ATOM     15  C   UNL d   1     -42.847-121.864 -55.287  0.00  0.00     0.001 A 
ATOM     16  C   UNL d   1     -42.184-121.746 -55.764  0.00  0.00     0.000 A 
ATOM     17  C   UNL d   1     -41.440-121.807 -55.475  0.00  0.00     0.001 A 
ATOM     18  C   UNL d   1     -42.274-121.557 -56.577  0.00  0.00     0.000 C 
ATOM     19  C   UNL d   1     -41.294-121.992 -54.679  0.00  0.00     0.011 A 
ENDBRANCH   1  13
TORSDOF 4
ENDMDL
