MODEL 1
REMARK VINA RESULT:      -6.0      0.000      0.000
REMARK  3 active torsions:
REMARK  status: ('A' for Active; 'I' for Inactive)
REMARK    1  A    between atoms: C_2  and  S_1 
REMARK    2  A    between atoms: N_6  and  S_1 
REMARK    3  A    between atoms: N_3  and  C_5 
ROOT
ATOM      1  C   UNL d   1     -41.662-122.559 -53.059  0.00  0.00     0.106 A 
ATOM      2  C   UNL d   1     -41.918-122.063 -53.667  0.00  0.00     0.036 A 
ATOM      3  C   UNL d   1     -41.891-122.326 -54.449  0.00  0.00     0.127 A 
ATOM      4  C   UNL d   1     -41.381-123.316 -53.233  0.00  0.00     0.012 A 
ATOM      5  C   UNL d   1     -41.610-123.083 -54.623  0.00  0.00     0.024 A 
ATOM      6  C   UNL d   1     -41.354-123.579 -54.015  0.00  0.00     0.002 A 
ATOM      7  C   UNL d   1     -41.123-123.817 -52.618  0.00  0.00     0.001 C 
ENDROOT
BRANCH   1   8
ATOM      8  S   UNL d   1     -41.687-122.299 -52.265  0.00  0.00     0.272 S 
ATOM      9  O   UNL d   1     -42.216-122.647 -51.736  0.00  0.00    -0.200 OA
ATOM     10  O   UNL d   1     -41.184-121.696 -52.011  0.00  0.00    -0.200 OA
BRANCH   8  11
ATOM     11  N   UNL d   1     -41.558-121.910 -51.548  0.00  0.00    -0.226 N 
ATOM     12  C   UNL d   1     -41.865-122.224 -50.844  0.00  0.00     0.111 C 
ATOM     13  C   UNL d   1     -41.123-121.207 -51.537  0.00  0.00     0.111 C 
ENDBRANCH   8  11
ENDBRANCH   1   8
BRANCH   3  14
ATOM     14  N   UNL d   1     -42.147-121.830 -55.057  0.00  0.00    -0.114 N 
ATOM     15  O   UNL d   1     -42.937-121.592 -55.088  0.00  0.00    -0.532 OA
ATOM     16  O   UNL d   1     -41.614-121.572 -55.634  0.00  0.00    -0.532 OA
ENDBRANCH   3  14
TORSDOF 3
ENDMDL
MODEL 2
REMARK VINA RESULT:      -5.8      0.932      2.992
REMARK  3 active torsions:
REMARK  status: ('A' for Active; 'I' for Inactive)
REMARK    1  A    between atoms: C_2  and  S_1 
REMARK    2  A    between atoms: N_6  and  S_1 
REMARK    3  A    between atoms: N_3  and  C_5 
ROOT
ATOM      1  C   UNL d   1     -41.613-122.554 -53.576  0.00  0.00     0.106 A 
ATOM      2  C   UNL d   1     -41.709-122.099 -52.895  0.00  0.00     0.036 A 
ATOM      3  C   UNL d   1     -41.516-122.417 -52.158  0.00  0.00     0.127 A 
ATOM      4  C   UNL d   1     -41.324-123.325 -53.522  0.00  0.00     0.012 A 
ATOM      5  C   UNL d   1     -41.227-123.189 -52.104  0.00  0.00     0.024 A 
ATOM      6  C   UNL d   1     -41.130-123.644 -52.786  0.00  0.00     0.002 A 
ATOM      7  C   UNL d   1     -41.226-123.785 -54.212  0.00  0.00     0.001 C 
ENDROOT
BRANCH   1   8
ATOM      8  S   UNL d   1     -41.807-122.236 -54.325  0.00  0.00     0.272 S 
ATOM      9  O   UNL d   1     -41.205-122.046 -54.857  0.00  0.00    -0.200 OA
ATOM     10  O   UNL d   1     -42.596-122.113 -54.531  0.00  0.00    -0.200 OA
BRANCH   8  11
ATOM     11  N   UNL d   1     -42.197-121.943 -54.991  0.00  0.00    -0.226 N 
ATOM     12  C   UNL d   1     -42.968-121.644 -54.924  0.00  0.00     0.111 C 
ATOM     13  C   UNL d   1     -41.814-121.948 -55.724  0.00  0.00     0.111 C 
ENDBRANCH   8  11
ENDBRANCH   1   8
BRANCH   3  14
ATOM     14  N   UNL d   1     -41.612-121.962 -51.476  0.00  0.00    -0.114 N 
ATOM     15  O   UNL d   1     -41.125-121.309 -51.347  0.00  0.00    -0.532 OA
ATOM     16  O   UNL d   1     -42.195-122.160 -50.925  0.00  0.00    -0.532 OA
ENDBRANCH   3  14
TORSDOF 3
ENDMDL
MODEL 3
REMARK VINA RESULT:      -3.6      1.355      3.471
REMARK  3 active torsions:
REMARK  status: ('A' for Active; 'I' for Inactive)
REMARK    1  A    between atoms: C_2  and  S_1 
REMARK    2  A    between atoms: N_6  and  S_1 
REMARK    3  A    between atoms: N_3  and  C_5 
ROOT
ATOM      1  C   UNL d   1     -41.587-122.256 -52.043  0.00  0.00     0.106 A 
ATOM      2  C   UNL d   1     -41.842-122.897 -51.591  0.00  0.00     0.036 A 
ATOM      3  C   UNL d   1     -41.892-122.827 -50.770  0.00  0.00     0.127 A 
ATOM      4  C   UNL d   1     -41.381-121.545 -51.675  0.00  0.00     0.012 A 
ATOM      5  C   UNL d   1     -41.686-122.116 -50.402  0.00  0.00     0.024 A 
ATOM      6  C   UNL d   1     -41.431-121.475 -50.854  0.00  0.00     0.002 A 
ATOM      7  C   UNL d   1     -41.123-120.897 -52.132  0.00  0.00     0.001 C 
ENDROOT
BRANCH   1   8
ATOM      8  S   UNL d   1     -41.535-122.322 -52.874  0.00  0.00     0.272 S 
ATOM      9  O   UNL d   1     -41.150-121.733 -53.308  0.00  0.00    -0.200 OA
ATOM     10  O   UNL d   1     -41.866-122.971 -53.261  0.00  0.00    -0.200 OA
BRANCH   8  11
ATOM     11  N   UNL d   1     -41.590-122.566 -53.661  0.00  0.00    -0.226 N 
ATOM     12  C   UNL d   1     -42.107-122.179 -54.182  0.00  0.00     0.111 C 
ATOM     13  C   UNL d   1     -41.128-123.198 -53.926  0.00  0.00     0.111 C 
ENDBRANCH   8  11
ENDBRANCH   1   8
BRANCH   3  14
ATOM     14  N   UNL d   1     -42.148-123.468 -50.318  0.00  0.00    -0.114 N 
ATOM     15  O   UNL d   1     -42.913-123.760 -50.417  0.00  0.00    -0.532 OA
ATOM     16  O   UNL d   1     -41.639-123.817 -49.768  0.00  0.00    -0.532 OA
ENDBRANCH   3  14
TORSDOF 3
ENDMDL
MODEL 4
REMARK VINA RESULT:      -3.3      2.342      4.662
REMARK  3 active torsions:
REMARK  status: ('A' for Active; 'I' for Inactive)
REMARK    1  A    between atoms: C_2  and  S_1 
REMARK    2  A    between atoms: N_6  and  S_1 
REMARK    3  A    between atoms: N_3  and  C_5 
ROOT
ATOM      1  C   UNL d   1     -42.064-122.693 -50.059  0.00  0.00     0.106 A 
ATOM      2  C   UNL d   1     -41.657-122.905 -49.372  0.00  0.00     0.036 A 
ATOM      3  C   UNL d   1     -42.066-122.979 -48.660  0.00  0.00     0.127 A 
ATOM      4  C   UNL d   1     -42.878-122.556 -50.032  0.00  0.00     0.012 A 
ATOM      5  C   UNL d   1     -42.880-122.842 -48.633  0.00  0.00     0.024 A 
ATOM      6  C   UNL d   1     -43.287-122.630 -49.319  0.00  0.00     0.002 A 
ATOM      7  C   UNL d   1     -43.289-122.341 -50.726  0.00  0.00     0.001 C 
ENDROOT
BRANCH   1   8
ATOM      8  S   UNL d   1     -41.654-122.616 -50.783  0.00  0.00     0.272 S 
ATOM      9  O   UNL d   1     -41.250-121.916 -50.952  0.00  0.00    -0.200 OA
ATOM     10  O   UNL d   1     -41.654-123.236 -51.328  0.00  0.00    -0.200 OA
BRANCH   8  11
ATOM     11  N   UNL d   1     -41.323-122.737 -51.530  0.00  0.00    -0.226 N 
ATOM     12  C   UNL d   1     -41.186-122.091 -52.034  0.00  0.00     0.111 C 
ATOM     13  C   UNL d   1     -41.129-123.503 -51.772  0.00  0.00     0.111 C 
ENDBRANCH   8  11
ENDBRANCH   1   8
BRANCH   3  14
ATOM     14  N   UNL d   1     -41.660-123.191 -47.973  0.00  0.00    -0.114 N 
ATOM     15  O   UNL d   1     -41.123-123.817 -47.992  0.00  0.00    -0.532 OA
ATOM     16  O   UNL d   1     -41.789-122.777 -47.270  0.00  0.00    -0.532 OA
ENDBRANCH   3  14
TORSDOF 3
ENDMDL
