MODEL 1
REMARK VINA RESULT:      -6.0      0.000      0.000
REMARK  7 active torsions:
REMARK  status: ('A' for Active; 'I' for Inactive)
REMARK    1  A    between atoms: C_12  and  N_1 
REMARK    2  A    between atoms: C_2  and  N_6 
REMARK    3  A    between atoms: C_9  and  C_5 
REMARK       I    between atoms: N_6  and  C_9 
REMARK    4  A    between atoms: S_15  and  C_7 
REMARK    5  A    between atoms: C_14  and  C_20 
REMARK       I    between atoms: N_21  and  C_14 
REMARK    6  A    between atoms: C_20  and  S_15 
REMARK    7  A    between atoms: O_22  and  C_18 
ROOT
ATOM      1  N   UNL d   1      48.491  35.112  52.023  0.00  0.00    -0.271 N 
ATOM      2  C   UNL d   1      48.776  34.813  51.372  0.00  0.00     0.265 A 
ATOM      3  C   UNL d   1      49.602  34.597  52.289  0.00  0.00     0.080 A 
ATOM      4  C   UNL d   1      49.002  34.978  52.592  0.00  0.00     0.088 A 
ATOM      5  C   UNL d   1      49.467  34.491  51.531  0.00  0.00     0.067 A 
ATOM      6  O   UNL d   1      48.431  34.829  50.672  0.00  0.00    -0.267 OA
ENDROOT
BRANCH   3   7
ATOM      7  C   UNL d   1      50.233  34.357  52.668  0.00  0.00     0.283 C 
ATOM      8  N   UNL d   1      50.924  34.674  52.507  0.00  0.00    -0.181 NA
ATOM      9  O   UNL d   1      50.177  33.799  53.207  0.00  0.00    -0.265 OA
BRANCH   8  10
ATOM     10  C   UNL d   1      51.559  34.437  52.883  0.00  0.00     0.219 A 
ATOM     11  S   UNL d   1      51.891  33.736  52.827  0.00  0.00    -0.019 SA
ATOM     12  C   UNL d   1      52.506  33.726  53.287  0.00  0.00     0.165 A 
ATOM     13  N   UNL d   1      52.571  34.416  53.639  0.00  0.00    -0.133 NA
ATOM     14  N   UNL d   1      51.975  34.863  53.384  0.00  0.00    -0.120 NA
BRANCH  12  15
ATOM     15  S   UNL d   1      53.409  32.272  53.333  0.00  0.00    -0.054 SA
BRANCH  15  16
ATOM     16  C   UNL d   1      53.058  31.555  53.095  0.00  0.00     0.100 C 
BRANCH  16  17
ATOM     17  C   UNL d   1      53.209  30.855  53.525  0.00  0.00     0.286 C 
ATOM     18  O   UNL d   1      53.616  30.889  54.259  0.00  0.00    -0.265 OA
ATOM     19  N   UNL d   1      52.953  30.117  53.220  0.00  0.00    -0.204 NA
ATOM     20  C   UNL d   1      53.109  29.423  53.657  0.00  0.00     0.123 C 
ENDBRANCH  16  17
ENDBRANCH  15  16
ENDBRANCH  12  15
ENDBRANCH   8  10
ENDBRANCH   3   7
BRANCH   1  21
ATOM     21  C   UNL d   1      47.758  35.511  52.107  0.00  0.00     0.089 A 
ATOM     22  C   UNL d   1      47.666  36.102  52.693  0.00  0.00     0.110 A 
ATOM     23  C   UNL d   1      46.949  36.495  52.778  0.00  0.00     0.026 A 
ATOM     24  C   UNL d   1      46.309  36.301  52.272  0.00  0.00     0.002 A 
ATOM     25  C   UNL d   1      46.389  35.721  51.692  0.00  0.00     0.002 A 
ATOM     26  C   UNL d   1      47.122  35.316  51.602  0.00  0.00     0.020 A 
BRANCH  22  27
ATOM     27  O   UNL d   1      48.307  36.288  53.191  0.00  0.00    -0.327 OA
ATOM     28  C   UNL d   1      48.169  36.709  53.897  0.00  0.00     0.181 C 
ENDBRANCH  22  27
ENDBRANCH   1  21
TORSDOF 7
ENDMDL
MODEL 2
REMARK VINA RESULT:      -5.6      1.649      2.290
REMARK  7 active torsions:
REMARK  status: ('A' for Active; 'I' for Inactive)
REMARK    1  A    between atoms: C_12  and  N_1 
REMARK    2  A    between atoms: C_2  and  N_6 
REMARK    3  A    between atoms: C_9  and  C_5 
REMARK       I    between atoms: N_6  and  C_9 
REMARK    4  A    between atoms: S_15  and  C_7 
REMARK    5  A    between atoms: C_14  and  C_20 
REMARK       I    between atoms: N_21  and  C_14 
REMARK    6  A    between atoms: C_20  and  S_15 
REMARK    7  A    between atoms: O_22  and  C_18 
ROOT
ATOM      1  N   UNL d   1      46.976  35.786  52.771  0.00  0.00    -0.271 N 
ATOM      2  C   UNL d   1      47.054  36.172  52.108  0.00  0.00     0.265 A 
ATOM      3  C   UNL d   1      48.039  35.407  52.227  0.00  0.00     0.080 A 
ATOM      4  C   UNL d   1      47.585  35.312  52.845  0.00  0.00     0.088 A 
ATOM      5  C   UNL d   1      47.714  35.940  51.764  0.00  0.00     0.067 A 
ATOM      6  O   UNL d   1      46.558  36.706  51.827  0.00  0.00    -0.267 OA
ENDROOT
BRANCH   3   7
ATOM      7  C   UNL d   1      48.705  35.038  52.083  0.00  0.00     0.283 C 
ATOM      8  N   UNL d   1      49.253  35.001  52.632  0.00  0.00    -0.181 NA
ATOM      9  O   UNL d   1      48.825  34.706  51.390  0.00  0.00    -0.265 OA
BRANCH   8  10
ATOM     10  C   UNL d   1      49.921  34.633  52.493  0.00  0.00     0.219 A 
ATOM     11  S   UNL d   1      50.402  34.337  53.027  0.00  0.00    -0.019 SA
ATOM     12  C   UNL d   1      50.999  34.021  52.661  0.00  0.00     0.165 A 
ATOM     13  N   UNL d   1      50.903  34.111  51.895  0.00  0.00    -0.133 NA
ATOM     14  N   UNL d   1      50.224  34.497  51.790  0.00  0.00    -0.120 NA
BRANCH  12  15
ATOM     15  S   UNL d   1      52.204  33.298  53.637  0.00  0.00    -0.054 SA
BRANCH  15  16
ATOM     16  C   UNL d   1      52.993  33.564  53.593  0.00  0.00     0.100 C 
BRANCH  16  17
ATOM     17  C   UNL d   1      53.550  33.310  54.162  0.00  0.00     0.286 C 
ATOM     18  O   UNL d   1      53.628  32.494  54.342  0.00  0.00    -0.265 OA
ATOM     19  N   UNL d   1      54.031  33.875  54.552  0.00  0.00    -0.204 NA
ATOM     20  C   UNL d   1      54.585  33.612  55.119  0.00  0.00     0.123 C 
ENDBRANCH  16  17
ENDBRANCH  15  16
ENDBRANCH  12  15
ENDBRANCH   8  10
ENDBRANCH   3   7
BRANCH   1  21
ATOM     21  C   UNL d   1      46.345  35.863  53.318  0.00  0.00     0.089 A 
ATOM     22  C   UNL d   1      46.483  36.191  54.075  0.00  0.00     0.110 A 
ATOM     23  C   UNL d   1      45.866  36.267  54.614  0.00  0.00     0.026 A 
ATOM     24  C   UNL d   1      45.096  36.013  54.399  0.00  0.00     0.002 A 
ATOM     25  C   UNL d   1      44.950  35.688  53.656  0.00  0.00     0.002 A 
ATOM     26  C   UNL d   1      45.579  35.609  53.102  0.00  0.00     0.020 A 
BRANCH  22  27
ATOM     27  O   UNL d   1      47.250  36.441  54.279  0.00  0.00    -0.327 OA
ATOM     28  C   UNL d   1      47.401  36.709  55.054  0.00  0.00     0.181 C 
ENDBRANCH  22  27
ENDBRANCH   1  21
TORSDOF 7
ENDMDL
MODEL 3
REMARK VINA RESULT:      -5.3      1.949      6.310
REMARK  7 active torsions:
REMARK  status: ('A' for Active; 'I' for Inactive)
REMARK    1  A    between atoms: C_12  and  N_1 
REMARK    2  A    between atoms: C_2  and  N_6 
REMARK    3  A    between atoms: C_9  and  C_5 
REMARK       I    between atoms: N_6  and  C_9 
REMARK    4  A    between atoms: S_15  and  C_7 
REMARK    5  A    between atoms: C_14  and  C_20 
REMARK       I    between atoms: N_21  and  C_14 
REMARK    6  A    between atoms: C_20  and  S_15 
REMARK    7  A    between atoms: O_22  and  C_18 
ROOT
ATOM      1  N   UNL d   1      52.938  33.225  53.400  0.00  0.00    -0.271 N 
ATOM      2  C   UNL d   1      52.524  32.585  53.284  0.00  0.00     0.265 A 
ATOM      3  C   UNL d   1      51.854  33.558  52.866  0.00  0.00     0.080 A 
ATOM      4  C   UNL d   1      52.524  33.828  53.142  0.00  0.00     0.088 A 
ATOM      5  C   UNL d   1      51.848  32.786  52.952  0.00  0.00     0.067 A 
ATOM      6  O   UNL d   1      52.743  31.858  53.467  0.00  0.00    -0.267 OA
ENDROOT
BRANCH   3   7
ATOM      7  C   UNL d   1      51.281  33.977  52.557  0.00  0.00     0.283 C 
ATOM      8  N   UNL d   1      50.560  33.917  52.841  0.00  0.00    -0.181 NA
ATOM      9  O   UNL d   1      51.426  34.457  51.962  0.00  0.00    -0.265 OA
BRANCH   8  10
ATOM     10  C   UNL d   1      49.984  34.334  52.534  0.00  0.00     0.219 A 
ATOM     11  S   UNL d   1      49.520  34.827  52.916  0.00  0.00    -0.019 SA
ATOM     12  C   UNL d   1      49.023  35.126  52.413  0.00  0.00     0.165 A 
ATOM     13  N   UNL d   1      49.165  34.827  51.710  0.00  0.00    -0.133 NA
ATOM     14  N   UNL d   1      49.770  34.328  51.786  0.00  0.00    -0.120 NA
BRANCH  12  15
ATOM     15  S   UNL d   1      47.890  36.252  53.027  0.00  0.00    -0.054 SA
BRANCH  15  16
ATOM     16  C   UNL d   1      47.290  36.553  52.532  0.00  0.00     0.100 C 
BRANCH  16  17
ATOM     17  C   UNL d   1      46.508  36.619  52.820  0.00  0.00     0.286 C 
ATOM     18  O   UNL d   1      46.367  36.710  53.643  0.00  0.00    -0.265 OA
ATOM     19  N   UNL d   1      45.865  36.596  52.283  0.00  0.00    -0.204 NA
ATOM     20  C   UNL d   1      45.088  36.663  52.580  0.00  0.00     0.123 C 
ENDBRANCH  16  17
ENDBRANCH  15  16
ENDBRANCH  12  15
ENDBRANCH   8  10
ENDBRANCH   3   7
BRANCH   1  21
ATOM     21  C   UNL d   1      53.701  33.267  53.744  0.00  0.00     0.089 A 
ATOM     22  C   UNL d   1      53.815  33.674  54.467  0.00  0.00     0.110 A 
ATOM     23  C   UNL d   1      54.563  33.717  54.807  0.00  0.00     0.026 A 
ATOM     24  C   UNL d   1      55.212  33.348  54.425  0.00  0.00     0.002 A 
ATOM     25  C   UNL d   1      55.111  32.945  53.713  0.00  0.00     0.002 A 
ATOM     26  C   UNL d   1      54.347  32.899  53.362  0.00  0.00     0.020 A 
BRANCH  22  27
ATOM     27  O   UNL d   1      53.165  34.037  54.839  0.00  0.00    -0.327 OA
ATOM     28  C   UNL d   1      53.293  34.536  55.494  0.00  0.00     0.181 C 
ENDBRANCH  22  27
ENDBRANCH   1  21
TORSDOF 7
ENDMDL
MODEL 4
REMARK VINA RESULT:      -4.6      1.917      3.163
REMARK  7 active torsions:
REMARK  status: ('A' for Active; 'I' for Inactive)
REMARK    1  A    between atoms: C_12  and  N_1 
REMARK    2  A    between atoms: C_2  and  N_6 
REMARK    3  A    between atoms: C_9  and  C_5 
REMARK       I    between atoms: N_6  and  C_9 
REMARK    4  A    between atoms: S_15  and  C_7 
REMARK    5  A    between atoms: C_14  and  C_20 
REMARK       I    between atoms: N_21  and  C_14 
REMARK    6  A    between atoms: C_20  and  S_15 
REMARK    7  A    between atoms: O_22  and  C_18 
ROOT
ATOM      1  N   UNL d   1      45.997  35.994  53.190  0.00  0.00    -0.271 N 
ATOM      2  C   UNL d   1      45.778  36.279  52.508  0.00  0.00     0.265 A 
ATOM      3  C   UNL d   1      46.952  35.859  52.391  0.00  0.00     0.080 A 
ATOM      4  C   UNL d   1      46.725  35.734  53.118  0.00  0.00     0.088 A 
ATOM      5  C   UNL d   1      46.368  36.198  52.006  0.00  0.00     0.067 A 
ATOM      6  O   UNL d   1      45.082  36.595  52.346  0.00  0.00    -0.267 OA
ENDROOT
BRANCH   3   7
ATOM      7  C   UNL d   1      47.642  35.681  52.087  0.00  0.00     0.283 C 
ATOM      8  N   UNL d   1      47.825  34.939  51.950  0.00  0.00    -0.181 NA
ATOM      9  O   UNL d   1      48.151  36.245  51.919  0.00  0.00    -0.265 OA
BRANCH   8  10
ATOM     10  C   UNL d   1      48.514  34.756  51.646  0.00  0.00     0.219 A 
ATOM     11  S   UNL d   1      49.178  34.658  52.039  0.00  0.00    -0.019 SA
ATOM     12  C   UNL d   1      49.730  34.482  51.535  0.00  0.00     0.165 A 
ATOM     13  N   UNL d   1      49.424  34.466  50.820  0.00  0.00    -0.133 NA
ATOM     14  N   UNL d   1      48.659  34.639  50.891  0.00  0.00    -0.120 NA
BRANCH  12  15
ATOM     15  S   UNL d   1      51.297  34.218  52.170  0.00  0.00    -0.054 SA
BRANCH  15  16
ATOM     16  C   UNL d   1      51.415  33.650  52.769  0.00  0.00     0.100 C 
BRANCH  16  17
ATOM     17  C   UNL d   1      52.181  33.347  52.910  0.00  0.00     0.286 C 
ATOM     18  O   UNL d   1      52.819  33.870  53.065  0.00  0.00    -0.265 OA
ATOM     19  N   UNL d   1      52.308  32.519  52.896  0.00  0.00    -0.204 NA
ATOM     20  C   UNL d   1      53.077  32.226  53.038  0.00  0.00     0.123 C 
ENDBRANCH  16  17
ENDBRANCH  15  16
ENDBRANCH  12  15
ENDBRANCH   8  10
ENDBRANCH   3   7
BRANCH   1  21
ATOM     21  C   UNL d   1      45.534  35.969  53.889  0.00  0.00     0.089 A 
ATOM     22  C   UNL d   1      45.834  36.286  54.603  0.00  0.00     0.110 A 
ATOM     23  C   UNL d   1      45.383  36.263  55.290  0.00  0.00     0.026 A 
ATOM     24  C   UNL d   1      44.619  35.917  55.271  0.00  0.00     0.002 A 
ATOM     25  C   UNL d   1      44.314  35.602  54.573  0.00  0.00     0.002 A 
ATOM     26  C   UNL d   1      44.774  35.624  53.867  0.00  0.00     0.020 A 
BRANCH  22  27
ATOM     27  O   UNL d   1      46.593  36.627  54.613  0.00  0.00    -0.327 OA
ATOM     28  C   UNL d   1      46.997  36.709  55.338  0.00  0.00     0.181 C 
ENDBRANCH  22  27
ENDBRANCH   1  21
TORSDOF 7
ENDMDL
