MODEL 1
REMARK VINA RESULT:      12.9      0.000      0.000
REMARK  5 active torsions:
REMARK  status: ('A' for Active; 'I' for Inactive)
REMARK    1  A    between atoms: C_2  and  C_1 
REMARK       I    between atoms: N_3  and  C_1 
REMARK    2  A    between atoms: C_8  and  N_3 
REMARK    3  A    between atoms: C_5  and  C_4 
REMARK    4  A    between atoms: O_15  and  C_12 
REMARK    5  A    between atoms: O_16  and  C_13 
ROOT
ATOM      1  C   UNL d   1      45.512 -16.730  43.866  0.00  0.00     0.279 C 
ATOM      2  N   UNL d   1      45.913 -16.164  44.355  0.00  0.00    -0.208 NA
ATOM      3  O   UNL d   1      44.781 -16.562  43.562  0.00  0.00    -0.265 OA
ENDROOT
BRANCH   1   4
ATOM      4  C   UNL d   1      45.890 -17.448  43.714  0.00  0.00     0.062 A 
ATOM      5  C   UNL d   1      46.081 -17.630  42.925  0.00  0.00     0.029 A 
ATOM      6  C   UNL d   1      46.459 -18.343  42.754  0.00  0.00     0.096 A 
ATOM      7  C   UNL d   1      46.646 -18.879  43.388  0.00  0.00     0.048 A 
ATOM      8  C   UNL d   1      46.447 -18.677  44.162  0.00  0.00     0.096 A 
ATOM      9  C   UNL d   1      46.071 -17.968  44.330  0.00  0.00     0.029 A 
BRANCH   6  10
ATOM     10  O   UNL d   1      46.641 -18.502  41.952  0.00  0.00    -0.328 OA
ATOM     11  C   UNL d   1      46.390 -19.216  41.594  0.00  0.00     0.181 C 
ENDBRANCH   6  10
BRANCH   8  12
ATOM     12  O   UNL d   1      46.635 -19.214  44.793  0.00  0.00    -0.328 OA
ATOM     13  C   UNL d   1      46.295 -19.965  44.808  0.00  0.00     0.181 C 
ENDBRANCH   8  12
ENDBRANCH   1   4
BRANCH   2  14
ATOM     14  C   UNL d   1      45.523 -15.449  44.499  0.00  0.00     0.085 A 
ATOM     15  C   UNL d   1      45.909 -14.743  44.315  0.00  0.00     0.022 A 
ATOM     16  C   UNL d   1      45.578 -14.041  44.435  0.00  0.00     0.041 A 
ATOM     17  C   UNL d   1      44.789 -14.004  44.767  0.00  0.00     0.003 A 
ATOM     18  C   UNL d   1      44.395 -14.703  44.955  0.00  0.00     0.002 A 
ATOM     19  C   UNL d   1      44.772 -15.424  44.816  0.00  0.00     0.019 A 
BRANCH  16  20
ATOM     20  C   UNL d   1      45.990 -13.335  44.240  0.00  0.00     0.196 C 
ATOM     21  O   UNL d   1      46.044 -13.083  43.450  0.00  0.00    -0.287 OA
ATOM     22  C   UNL d   1      46.339 -12.899  44.848  0.00  0.00     0.045 C 
ENDBRANCH  16  20
ENDBRANCH   2  14
TORSDOF 5
ENDMDL
