MODEL 1
REMARK VINA RESULT:      -3.7      0.000      0.000
REMARK  6 active torsions:
REMARK  status: ('A' for Active; 'I' for Inactive)
REMARK    1  A    between atoms: C_10  and  C_4 
REMARK    2  A    between atoms: N_12  and  C_5 
REMARK    3  A    between atoms: N_11  and  C_15 
REMARK    4  A    between atoms: C_20  and  N_12 
REMARK    5  A    between atoms: C_15  and  C_16 
REMARK    6  A    between atoms: C_16  and  C_20 
ROOT
ATOM      1  N   UNL d   1     -41.392-122.645 -52.333  0.00  0.00    -0.195 N 
ATOM      2  C   UNL d   1     -41.523-122.060 -52.898  0.00  0.00     0.167 A 
ATOM      3  N   UNL d   1     -41.429-123.376 -52.705  0.00  0.00    -0.163 NA
ATOM      4  C   UNL d   1     -41.642-122.426 -53.621  0.00  0.00     0.055 A 
ATOM      5  C   UNL d   1     -41.254-122.445 -51.543  0.00  0.00     0.167 A 
ATOM      6  C   UNL d   1     -41.585-123.235 -53.508  0.00  0.00     0.104 A 
ATOM      7  N   UNL d   1     -41.517-121.267 -52.678  0.00  0.00    -0.227 NA
ATOM      8  C   UNL d   1     -41.248-121.641 -51.324  0.00  0.00     0.058 A 
ATOM      9  C   UNL d   1     -41.379-121.055 -51.888  0.00  0.00     0.086 A 
ATOM     10  C   UNL d   1     -41.668-123.814 -54.090  0.00  0.00     0.023 C 
ATOM     11  C   UNL d   1     -41.373-120.256 -51.668  0.00  0.00     0.021 C 
ENDROOT
BRANCH   5  12
ATOM     12  N   UNL d   1     -41.124-123.025 -50.984  0.00  0.00    -0.225 NA
BRANCH  12  13
ATOM     13  C   UNL d   1     -41.190-122.849 -50.183  0.00  0.00     0.102 C 
BRANCH  13  14
ATOM     14  C   UNL d   1     -41.547-123.392 -49.664  0.00  0.00     0.040 C 
BRANCH  14  15
ATOM     15  C   UNL d   1     -41.220-123.531 -48.921  0.00  0.00     0.082 C 
BRANCH  15  16
ATOM     16  N   UNL d   1     -41.704-123.567 -48.256  0.00  0.00    -0.299 N 
ATOM     17  C   UNL d   1     -42.529-123.550 -48.344  0.00  0.00     0.107 A 
ATOM     18  C   UNL d   1     -43.016-123.586 -47.675  0.00  0.00     0.142 A 
ATOM     19  O   UNL d   1     -42.677-123.639 -46.920  0.00  0.00    -0.300 OA
ATOM     20  C   UNL d   1     -41.858-123.655 -46.836  0.00  0.00     0.142 A 
ATOM     21  C   UNL d   1     -41.371-123.619 -47.505  0.00  0.00     0.107 A 
ENDBRANCH  15  16
ENDBRANCH  14  15
ENDBRANCH  13  14
ENDBRANCH  12  13
ENDBRANCH   5  12
BRANCH   4  22
ATOM     22  C   UNL d   1     -41.795-122.130 -54.373  0.00  0.00     0.004 A 
ATOM     23  C   UNL d   1     -42.566-121.950 -54.601  0.00  0.00     0.000 A 
ATOM     24  C   UNL d   1     -42.717-121.651 -55.360  0.00  0.00     0.000 A 
ATOM     25  C   UNL d   1     -42.092-121.535 -55.887  0.00  0.00     0.000 A 
ATOM     26  C   UNL d   1     -41.320-121.715 -55.659  0.00  0.00     0.000 A 
ATOM     27  C   UNL d   1     -41.167-122.011 -54.907  0.00  0.00     0.000 A 
ENDBRANCH   4  22
TORSDOF 6
ENDMDL
