MODEL 1
REMARK VINA RESULT:      -1.0      0.000      0.000
REMARK  6 active torsions:
REMARK  status: ('A' for Active; 'I' for Inactive)
REMARK    1  A    between atoms: C_10  and  N_1 
REMARK    2  A    between atoms: S_8  and  C_2 
REMARK       I    between atoms: N_7  and  C_9 
REMARK    3  A    between atoms: C_13  and  S_8 
REMARK    4  A    between atoms: C_9  and  C_13 
REMARK    5  A    between atoms: C_21  and  N_11 
REMARK    6  A    between atoms: C_25  and  C_21 
ROOT
ATOM      1  N   UNL d   1      32.729  21.787 -22.231  0.00  0.00    -0.254 N 
ATOM      2  C   UNL d   1      32.916  21.143 -22.703  0.00  0.00     0.182 A 
ATOM      3  C   UNL d   1      32.710  22.544 -22.560  0.00  0.00     0.268 A 
ATOM      4  N   UNL d   1      33.082  21.257 -23.503  0.00  0.00    -0.222 NA
ATOM      5  C   UNL d   1      32.877  22.657 -23.361  0.00  0.00     0.074 A 
ATOM      6  C   UNL d   1      33.063  22.013 -23.833  0.00  0.00     0.088 A 
ATOM      7  O   UNL d   1      32.524  23.188 -22.089  0.00  0.00    -0.267 OA
ATOM      8  C   UNL d   1      32.855  23.404 -23.677  0.00  0.00     0.006 A 
ATOM      9  C   UNL d   1      33.228  22.117 -24.620  0.00  0.00     0.019 A 
ATOM     10  C   UNL d   1      33.022  23.517 -24.478  0.00  0.00     0.000 A 
ATOM     11  C   UNL d   1      33.208  22.873 -24.950  0.00  0.00     0.002 A 
ENDROOT
BRANCH   2  12
ATOM     12  S   UNL d   1      32.939  20.372 -22.383  0.00  0.00    -0.044 SA
BRANCH  12  13
ATOM     13  C   UNL d   1      33.238  19.754 -22.858  0.00  0.00     0.099 C 
BRANCH  13  14
ATOM     14  C   UNL d   1      33.123  18.967 -22.605  0.00  0.00     0.272 C 
ATOM     15  N   UNL d   1      32.885  18.399 -23.168  0.00  0.00    -0.269 N 
ATOM     16  C   UNL d   1      32.775  17.632 -22.910  0.00  0.00     0.102 A 
ATOM     17  C   UNL d   1      32.767  18.609 -23.951  0.00  0.00     0.102 A 
ATOM     18  C   UNL d   1      32.537  17.064 -23.473  0.00  0.00     0.100 A 
ATOM     19  N   UNL d   1      32.419  17.274 -24.257  0.00  0.00    -0.297 N 
ATOM     20  C   UNL d   1      32.536  18.057 -24.494  0.00  0.00     0.100 A 
ATOM     21  O   UNL d   1      33.241  18.758 -21.822  0.00  0.00    -0.266 OA
BRANCH  19  22
ATOM     22  C   UNL d   1      32.178  16.681 -24.808  0.00  0.00     0.126 C 
BRANCH  22  23
ATOM     23  C   UNL d   1      31.979  15.942 -24.553  0.00  0.00     0.253 C 
ATOM     24  O   UNL d   1      31.423  15.499 -24.973  0.00  0.00    -0.281 OA
ENDBRANCH  22  23
ENDBRANCH  19  22
ENDBRANCH  13  14
ENDBRANCH  12  13
ENDBRANCH   2  12
BRANCH   1  25
ATOM     25  C   UNL d   1      32.567  21.672 -21.448  0.00  0.00     0.069 A 
ATOM     26  C   UNL d   1      33.173  21.769 -20.886  0.00  0.00     0.018 A 
ATOM     27  C   UNL d   1      33.012  21.652 -20.084  0.00  0.00     0.002 A 
ATOM     28  C   UNL d   1      32.249  21.440 -19.851  0.00  0.00     0.000 A 
ATOM     29  C   UNL d   1      31.652  21.344 -20.404  0.00  0.00     0.002 A 
ATOM     30  C   UNL d   1      31.811  21.461 -21.208  0.00  0.00     0.018 A 
ENDBRANCH   1  25
TORSDOF 6
ENDMDL
MODEL 2
REMARK VINA RESULT:       0.1      1.884      5.608
REMARK  6 active torsions:
REMARK  status: ('A' for Active; 'I' for Inactive)
REMARK    1  A    between atoms: C_10  and  N_1 
REMARK    2  A    between atoms: S_8  and  C_2 
REMARK       I    between atoms: N_7  and  C_9 
REMARK    3  A    between atoms: C_13  and  S_8 
REMARK    4  A    between atoms: C_9  and  C_13 
REMARK    5  A    between atoms: C_21  and  N_11 
REMARK    6  A    between atoms: C_25  and  C_21 
ROOT
ATOM      1  N   UNL d   1      31.260  16.725 -24.049  0.00  0.00    -0.254 N 
ATOM      2  C   UNL d   1      31.345  17.518 -24.238  0.00  0.00     0.182 A 
ATOM      3  C   UNL d   1      30.531  16.353 -24.159  0.00  0.00     0.268 A 
ATOM      4  N   UNL d   1      30.700  17.939 -24.535  0.00  0.00    -0.222 NA
ATOM      5  C   UNL d   1      29.886  16.775 -24.456  0.00  0.00     0.074 A 
ATOM      6  C   UNL d   1      29.971  17.569 -24.644  0.00  0.00     0.088 A 
ATOM      7  O   UNL d   1      30.446  15.560 -23.971  0.00  0.00    -0.267 OA
ATOM      8  C   UNL d   1      29.173  16.403 -24.561  0.00  0.00     0.006 A 
ATOM      9  C   UNL d   1      29.343  17.989 -24.937  0.00  0.00     0.019 A 
ATOM     10  C   UNL d   1      28.528  16.825 -24.858  0.00  0.00     0.000 A 
ATOM     11  C   UNL d   1      28.613  17.619 -25.046  0.00  0.00     0.002 A 
ENDROOT
BRANCH   2  12
ATOM     12  S   UNL d   1      32.076  17.906 -24.132  0.00  0.00    -0.044 SA
BRANCH  12  13
ATOM     13  C   UNL d   1      32.142  18.471 -23.522  0.00  0.00     0.099 C 
BRANCH  13  14
ATOM     14  C   UNL d   1      32.560  19.177 -23.677  0.00  0.00     0.272 C 
ATOM     15  N   UNL d   1      32.696  19.706 -23.046  0.00  0.00    -0.269 N 
ATOM     16  C   UNL d   1      33.106  20.393 -23.207  0.00  0.00     0.102 A 
ATOM     17  C   UNL d   1      32.424  19.536 -22.291  0.00  0.00     0.102 A 
ATOM     18  C   UNL d   1      33.241  20.922 -22.576  0.00  0.00     0.100 A 
ATOM     19  N   UNL d   1      32.969  20.752 -21.821  0.00  0.00    -0.297 N 
ATOM     20  C   UNL d   1      32.556  20.050 -21.682  0.00  0.00     0.100 A 
ATOM     21  O   UNL d   1      32.832  19.346 -24.431  0.00  0.00    -0.266 OA
BRANCH  19  22
ATOM     22  C   UNL d   1      33.118  21.303 -21.198  0.00  0.00     0.126 C 
BRANCH  22  23
ATOM     23  C   UNL d   1      32.637  21.943 -21.095  0.00  0.00     0.253 C 
ATOM     24  O   UNL d   1      32.680  22.377 -20.393  0.00  0.00    -0.281 OA
ENDBRANCH  22  23
ENDBRANCH  19  22
ENDBRANCH  13  14
ENDBRANCH  12  13
ENDBRANCH   2  12
BRANCH   1  25
ATOM     25  C   UNL d   1      31.894  16.315 -23.759  0.00  0.00     0.069 A 
ATOM     26  C   UNL d   1      32.591  16.267 -24.210  0.00  0.00     0.018 A 
ATOM     27  C   UNL d   1      33.241  15.850 -23.917  0.00  0.00     0.002 A 
ATOM     28  C   UNL d   1      33.189  15.486 -23.178  0.00  0.00     0.000 A 
ATOM     29  C   UNL d   1      32.503  15.534 -22.733  0.00  0.00     0.002 A 
ATOM     30  C   UNL d   1      31.850  15.951 -23.024  0.00  0.00     0.018 A 
ENDBRANCH   1  25
TORSDOF 6
ENDMDL
