MODEL 1
REMARK VINA RESULT:      47.5      0.000      0.000
REMARK  6 active torsions:
REMARK  status: ('A' for Active; 'I' for Inactive)
REMARK    1  A    between atoms: C_7  and  S_1 
REMARK    2  A    between atoms: N_11  and  S_1 
REMARK    3  A    between atoms: C_5  and  C_21 
REMARK    4  A    between atoms: C_22  and  N_11 
REMARK    5  A    between atoms: C_20  and  C_13 
REMARK    6  A    between atoms: C_21  and  C_22 
ROOT
ATOM      1  S   UNL d   1      13.083  12.728  -4.638  0.00  0.00     0.285 S 
ATOM      2  O   UNL d   1      12.828  12.856  -5.414  0.00  0.00    -0.198 OA
ATOM      3  O   UNL d   1      13.343  11.975  -4.849  0.00  0.00    -0.198 OA
ENDROOT
BRANCH   1   4
ATOM      4  C   UNL d   1      13.336  12.599  -3.869  0.00  0.00     0.105 A 
ATOM      5  C   UNL d   1      13.106  11.905  -3.476  0.00  0.00     0.013 A 
ATOM      6  C   UNL d   1      13.366  11.779  -2.696  0.00  0.00     0.001 A 
ATOM      7  C   UNL d   1      13.840  12.328  -2.322  0.00  0.00     0.000 A 
ATOM      8  C   UNL d   1      14.068  13.020  -2.717  0.00  0.00     0.001 A 
ATOM      9  C   UNL d   1      13.816  13.155  -3.491  0.00  0.00     0.013 A 
BRANCH   7  10
ATOM     10  C   UNL d   1      14.097  12.204  -1.553  0.00  0.00     0.000 A 
ATOM     11  C   UNL d   1      13.576  11.930  -0.979  0.00  0.00     0.000 A 
ATOM     12  C   UNL d   1      13.845  11.809  -0.209  0.00  0.00     0.000 A 
ATOM     13  C   UNL d   1      14.630  11.961  -0.014  0.00  0.00     0.000 A 
ATOM     14  C   UNL d   1      15.156  12.236  -0.590  0.00  0.00     0.000 A 
ATOM     15  C   UNL d   1      14.882  12.356  -1.359  0.00  0.00     0.000 A 
ENDBRANCH   7  10
ENDBRANCH   1   4
BRANCH   1  16
ATOM     16  N   UNL d   1      12.821  13.482  -4.430  0.00  0.00    -0.157 NA
BRANCH  16  17
ATOM     17  C   UNL d   1      13.123  14.139  -4.803  0.00  0.00     0.114 C 
BRANCH  17  18
ATOM     18  C   UNL d   1      12.889  14.900  -4.567  0.00  0.00     0.042 C 
BRANCH  18  19
ATOM     19  C   UNL d   1      13.242  15.567  -4.929  0.00  0.00     0.102 A 
ATOM     20  N   UNL d   1      13.905  15.970  -4.660  0.00  0.00    -0.227 NA
ATOM     21  C   UNL d   1      14.069  16.591  -5.177  0.00  0.00     0.148 A 
ATOM     22  C   UNL d   1      14.652  17.167  -5.187  0.00  0.00     0.037 A 
ATOM     23  N   UNL d   1      13.499  16.577  -5.780  0.00  0.00    -0.288 N 
ATOM     24  C   UNL d   1      14.675  17.732  -5.794  0.00  0.00     0.005 A 
ATOM     25  C   UNL d   1      14.114  17.719  -6.388  0.00  0.00     0.019 A 
ATOM     26  C   UNL d   1      13.522  17.143  -6.387  0.00  0.00     0.082 A 
ATOM     27  C   UNL d   1      12.982  15.946  -5.635  0.00  0.00     0.101 A 
ENDBRANCH  18  19
ENDBRANCH  17  18
ENDBRANCH  16  17
ENDBRANCH   1  16
TORSDOF 6
ENDMDL
