MODEL 1
REMARK VINA RESULT:      -1.6      0.000      0.000
REMARK  7 active torsions:
REMARK  status: ('A' for Active; 'I' for Inactive)
REMARK    1  A    between atoms: C_11  and  N_3 
REMARK    2  A    between atoms: C_10  and  C_4 
REMARK    3  A    between atoms: C_16  and  C_11 
REMARK    4  A    between atoms: N_13  and  C_17 
REMARK    5  A    between atoms: C_18  and  N_14 
REMARK    6  A    between atoms: C_17  and  C_16 
REMARK    7  A    between atoms: C_27  and  C_18 
ROOT
ATOM      1  C   UNL d   1      33.040  21.323 -22.450  0.00  0.00     0.137 A 
ATOM      2  N   UNL d   1      32.995  22.131 -22.654  0.00  0.00    -0.259 N 
ATOM      3  N   UNL d   1      33.139  20.902 -23.152  0.00  0.00    -0.287 N 
ATOM      4  C   UNL d   1      32.984  21.094 -21.665  0.00  0.00     0.054 A 
ATOM      5  C   UNL d   1      32.893  22.699 -22.060  0.00  0.00     0.266 A 
ATOM      6  C   UNL d   1      33.067  22.199 -23.473  0.00  0.00     0.084 A 
ATOM      7  C   UNL d   1      33.157  21.428 -23.785  0.00  0.00     0.082 A 
ATOM      8  C   UNL d   1      32.883  21.659 -21.072  0.00  0.00     0.009 A 
ATOM      9  C   UNL d   1      32.837  22.465 -21.263  0.00  0.00     0.061 A 
ATOM     10  O   UNL d   1      32.848  23.503 -22.256  0.00  0.00    -0.267 OA
ATOM     11  C   UNL d   1      33.063  22.844 -23.982  0.00  0.00     0.019 A 
ATOM     12  C   UNL d   1      32.826  21.427 -20.279  0.00  0.00     0.000 C 
ATOM     13  C   UNL d   1      33.241  21.334 -24.593  0.00  0.00     0.019 A 
ATOM     14  C   UNL d   1      33.148  22.731 -24.788  0.00  0.00     0.002 A 
ATOM     15  C   UNL d   1      33.238  21.968 -25.097  0.00  0.00     0.002 A 
ENDROOT
BRANCH   3  16
ATOM     16  C   UNL d   1      33.229  20.147 -23.467  0.00  0.00     0.125 C 
BRANCH  16  17
ATOM     17  C   UNL d   1      32.574  19.650 -23.536  0.00  0.00     0.231 C 
ATOM     18  O   UNL d   1      31.857  19.943 -23.815  0.00  0.00    -0.283 OA
BRANCH  17  19
ATOM     19  C   UNL d   1      32.636  18.857 -23.324  0.00  0.00     0.124 C 
BRANCH  19  20
ATOM     20  N   UNL d   1      32.217  18.288 -23.751  0.00  0.00    -0.297 N 
ATOM     21  C   UNL d   1      32.338  17.604 -23.301  0.00  0.00     0.100 A 
ATOM     22  C   UNL d   1      31.999  16.889 -23.549  0.00  0.00     0.100 A 
ATOM     23  N   UNL d   1      31.540  16.846 -24.241  0.00  0.00    -0.300 N 
ATOM     24  C   UNL d   1      31.421  17.543 -24.693  0.00  0.00     0.100 A 
ATOM     25  C   UNL d   1      31.760  18.258 -24.445  0.00  0.00     0.100 A 
BRANCH  23  26
ATOM     26  C   UNL d   1      31.208  16.128 -24.478  0.00  0.00     0.080 C 
BRANCH  26  27
ATOM     27  C   UNL d   1      30.464  15.902 -24.189  0.00  0.00     0.018 A 
ATOM     28  C   UNL d   1      29.838  15.811 -24.718  0.00  0.00     0.002 A 
ATOM     29  C   UNL d   1      29.085  15.583 -24.431  0.00  0.00     0.000 A 
ATOM     30  C   UNL d   1      28.976  15.453 -23.626  0.00  0.00     0.000 A 
ATOM     31  C   UNL d   1      29.614  15.547 -23.097  0.00  0.00     0.000 A 
ATOM     32  C   UNL d   1      30.358  15.772 -23.386  0.00  0.00     0.002 A 
ENDBRANCH  26  27
ENDBRANCH  23  26
ENDBRANCH  19  20
ENDBRANCH  17  19
ENDBRANCH  16  17
ENDBRANCH   3  16
BRANCH   4  33
ATOM     33  C   UNL d   1      33.028  20.301 -21.464  0.00  0.00     0.125 C 
ATOM     34  N   UNL d   1      33.001  20.057 -20.679  0.00  0.00    -0.146 N 
ENDBRANCH   4  33
TORSDOF 7
ENDMDL
