MODEL 1
REMARK VINA RESULT:      27.8      0.000      0.000
REMARK  6 active torsions:
REMARK  status: ('A' for Active; 'I' for Inactive)
REMARK    1  A    between atoms: C_7  and  C_3 
REMARK    2  A    between atoms: C_6  and  O_14 
REMARK    3  A    between atoms: S_8  and  C_7 
REMARK    4  A    between atoms: C_17  and  S_8 
REMARK    5  A    between atoms: O_14  and  C_18 
REMARK    6  A    between atoms: C_18  and  C_17 
ROOT
ATOM      1  S   UNL d   1      12.773  12.241  -3.587  0.00  0.00    -0.081 SA
ENDROOT
BRANCH   1   2
ATOM      2  C   UNL d   1      13.361  11.781  -3.243  0.00  0.00     0.074 C 
BRANCH   2   3
ATOM      3  C   UNL d   1      13.466  11.793  -2.427  0.00  0.00     0.169 A 
ATOM      4  N   UNL d   1      13.219  11.779  -1.628  0.00  0.00    -0.225 NA
ATOM      5  C   UNL d   1      13.901  11.832  -1.144  0.00  0.00     0.101 A 
ATOM      6  C   UNL d   1      14.561  11.878  -1.651  0.00  0.00     0.101 A 
ATOM      7  C   UNL d   1      14.020  11.845  -0.323  0.00  0.00     0.021 A 
ATOM      8  N   UNL d   1      14.302  11.855  -2.444  0.00  0.00    -0.225 NA
ATOM      9  C   UNL d   1      15.327  11.936  -1.326  0.00  0.00     0.021 A 
ATOM     10  C   UNL d   1      15.427  11.948  -0.516  0.00  0.00     0.002 A 
ATOM     11  C   UNL d   1      14.774  11.902  -0.015  0.00  0.00     0.002 A 
ENDBRANCH   2   3
ENDBRANCH   1   2
BRANCH   1  12
ATOM     12  C   UNL d   1      12.913  12.617  -4.306  0.00  0.00     0.062 C 
BRANCH  12  13
ATOM     13  C   UNL d   1      12.837  13.435  -4.365  0.00  0.00     0.130 C 
BRANCH  13  14
ATOM     14  O   UNL d   1      12.809  13.787  -5.110  0.00  0.00    -0.305 OA
BRANCH  14  15
ATOM     15  C   UNL d   1      13.274  14.404  -4.822  0.00  0.00     0.100 A 
ATOM     16  C   UNL d   1      13.051  14.804  -4.147  0.00  0.00     0.025 A 
ATOM     17  C   UNL d   1      13.513  15.422  -3.856  0.00  0.00     0.002 A 
ATOM     18  C   UNL d   1      14.202  15.636  -4.247  0.00  0.00     0.000 A 
ATOM     19  C   UNL d   1      14.426  15.229  -4.933  0.00  0.00     0.002 A 
ATOM     20  C   UNL d   1      14.667  16.254  -3.960  0.00  0.00     0.000 C 
ATOM     21  C   UNL d   1      13.958  14.612  -5.217  0.00  0.00     0.025 A 
ENDBRANCH  14  15
ENDBRANCH  13  14
ENDBRANCH  12  13
ENDBRANCH   1  12
TORSDOF 6
ENDMDL
MODEL 2
REMARK VINA RESULT:      30.7      2.401      3.534
REMARK  6 active torsions:
REMARK  status: ('A' for Active; 'I' for Inactive)
REMARK    1  A    between atoms: C_7  and  C_3 
REMARK    2  A    between atoms: C_6  and  O_14 
REMARK    3  A    between atoms: S_8  and  C_7 
REMARK    4  A    between atoms: C_17  and  S_8 
REMARK    5  A    between atoms: O_14  and  C_18 
REMARK    6  A    between atoms: C_18  and  C_17 
ROOT
ATOM      1  S   UNL d   1      15.066  12.420  -0.041  0.00  0.00    -0.081 SA
ENDROOT
BRANCH   1   2
ATOM      2  C   UNL d   1      15.013  11.858  -0.639  0.00  0.00     0.074 C 
BRANCH   2   3
ATOM      3  C   UNL d   1      14.350  11.838  -1.125  0.00  0.00     0.169 A 
ATOM      4  N   UNL d   1      13.530  11.818  -1.294  0.00  0.00    -0.225 NA
ATOM      5  C   UNL d   1      13.437  11.808  -2.127  0.00  0.00     0.101 A 
ATOM      6  C   UNL d   1      14.200  11.821  -2.462  0.00  0.00     0.101 A 
ATOM      7  C   UNL d   1      12.775  11.788  -2.628  0.00  0.00     0.021 A 
ATOM      8  N   UNL d   1      14.768  11.840  -1.851  0.00  0.00    -0.225 NA
ATOM      9  C   UNL d   1      14.286  11.814  -3.291  0.00  0.00     0.021 A 
ATOM     10  C   UNL d   1      13.626  11.794  -3.770  0.00  0.00     0.002 A 
ATOM     11  C   UNL d   1      12.871  11.781  -3.439  0.00  0.00     0.002 A 
ENDBRANCH   2   3
ENDBRANCH   1   2
BRANCH   1  12
ATOM     12  C   UNL d   1      14.534  13.049  -0.019  0.00  0.00     0.062 C 
BRANCH  12  13
ATOM     13  C   UNL d   1      14.805  13.820  -0.120  0.00  0.00     0.130 C 
BRANCH  13  14
ATOM     14  O   UNL d   1      15.608  13.952  -0.257  0.00  0.00    -0.305 OA
BRANCH  14  15
ATOM     15  C   UNL d   1      15.422  14.705  -0.540  0.00  0.00     0.100 A 
ATOM     16  C   UNL d   1      15.326  14.829  -1.341  0.00  0.00     0.025 A 
ATOM     17  C   UNL d   1      15.140  15.580  -1.628  0.00  0.00     0.002 A 
ATOM     18  C   UNL d   1      15.052  16.206  -1.105  0.00  0.00     0.000 A 
ATOM     19  C   UNL d   1      15.150  16.078  -0.293  0.00  0.00     0.002 A 
ATOM     20  C   UNL d   1      14.866  16.958  -1.387  0.00  0.00     0.000 C 
ATOM     21  C   UNL d   1      15.336  15.323  -0.015  0.00  0.00     0.025 A 
ENDBRANCH  14  15
ENDBRANCH  13  14
ENDBRANCH  12  13
ENDBRANCH   1  12
TORSDOF 6
ENDMDL
