MODEL 1
REMARK VINA RESULT:      -6.2      0.000      0.000
REMARK  1 active torsions:
REMARK  status: ('A' for Active; 'I' for Inactive)
REMARK    1  A    between atoms: O_15  and  C_11 
ROOT
ATOM      1  C   UNL d   1     -41.260-123.117 -51.888  0.00  0.00     0.139 A 
ATOM      2  N   UNL d   1     -41.334-123.763 -52.423  0.00  0.00    -0.241 NA
ATOM      3  C   UNL d   1     -41.269-122.428 -52.329  0.00  0.00     0.025 A 
ATOM      4  C   UNL d   1     -41.346-122.622 -53.129  0.00  0.00     0.021 A 
ATOM      5  C   UNL d   1     -41.385-123.440 -53.177  0.00  0.00     0.082 A 
ATOM      6  C   UNL d   1     -41.186-123.101 -51.044  0.00  0.00     0.297 A 
ATOM      7  N   UNL d   1     -41.123-122.374 -50.664  0.00  0.00    -0.205 NA
ATOM      8  C   UNL d   1     -41.386-122.172 -53.811  0.00  0.00     0.026 A 
ATOM      9  O   UNL d   1     -41.179-123.818 -50.603  0.00  0.00    -0.264 OA
ATOM     10  C   UNL d   1     -41.464-123.813 -53.906  0.00  0.00     0.021 A 
ATOM     11  C   UNL d   1     -41.465-122.546 -54.542  0.00  0.00     0.094 A 
ATOM     12  C   UNL d   1     -41.202-121.676 -51.926  0.00  0.00     0.022 A 
ATOM     13  C   UNL d   1     -41.130-121.658 -51.104  0.00  0.00     0.102 A 
ATOM     14  C   UNL d   1     -41.503-123.340 -54.598  0.00  0.00     0.026 A 
ENDROOT
BRANCH  11  15
ATOM     15  O   UNL d   1     -41.508-122.118 -55.252  0.00  0.00    -0.328 OA
ATOM     16  C   UNL d   1     -42.246-121.943 -55.604  0.00  0.00     0.181 C 
ENDBRANCH  11  15
TORSDOF 1
ENDMDL
MODEL 2
REMARK VINA RESULT:      -5.8      0.992      3.509
REMARK  1 active torsions:
REMARK  status: ('A' for Active; 'I' for Inactive)
REMARK    1  A    between atoms: O_15  and  C_11 
ROOT
ATOM      1  C   UNL d   1     -41.458-122.399 -53.607  0.00  0.00     0.139 A 
ATOM      2  N   UNL d   1     -41.532-121.820 -53.000  0.00  0.00    -0.241 NA
ATOM      3  C   UNL d   1     -41.325-123.120 -53.246  0.00  0.00     0.025 A 
ATOM      4  C   UNL d   1     -41.314-123.013 -52.426  0.00  0.00     0.021 A 
ATOM      5  C   UNL d   1     -41.441-122.214 -52.285  0.00  0.00     0.082 A 
ATOM      6  C   UNL d   1     -41.499-122.327 -54.451  0.00  0.00     0.297 A 
ATOM      7  N   UNL d   1     -41.404-123.001 -54.912  0.00  0.00    -0.205 NA
ATOM      8  C   UNL d   1     -41.207-123.525 -51.798  0.00  0.00     0.026 A 
ATOM      9  O   UNL d   1     -41.636-121.578 -54.808  0.00  0.00    -0.264 OA
ATOM     10  C   UNL d   1     -41.462-121.923 -51.516  0.00  0.00     0.021 A 
ATOM     11  C   UNL d   1     -41.228-123.233 -51.025  0.00  0.00     0.094 A 
ATOM     12  C   UNL d   1     -41.227-123.817 -53.733  0.00  0.00     0.022 A 
ATOM     13  C   UNL d   1     -41.267-123.749 -54.554  0.00  0.00     0.102 A 
ATOM     14  C   UNL d   1     -41.351-122.459 -50.880  0.00  0.00     0.026 A 
ENDROOT
BRANCH  11  15
ATOM     15  O   UNL d   1     -41.123-123.727 -50.367  0.00  0.00    -0.328 OA
ATOM     16  C   UNL d   1     -41.685-123.743 -49.748  0.00  0.00     0.181 C 
ENDBRANCH  11  15
TORSDOF 1
ENDMDL
MODEL 3
REMARK VINA RESULT:      -4.0      1.998      4.035
REMARK  1 active torsions:
REMARK  status: ('A' for Active; 'I' for Inactive)
REMARK    1  A    between atoms: O_15  and  C_11 
ROOT
ATOM      1  C   UNL d   1     -41.821-122.668 -51.476  0.00  0.00     0.139 A 
ATOM      2  N   UNL d   1     -42.197-123.381 -51.232  0.00  0.00    -0.241 NA
ATOM      3  C   UNL d   1     -41.781-122.174 -50.824  0.00  0.00     0.025 A 
ATOM      4  C   UNL d   1     -42.122-122.556 -50.176  0.00  0.00     0.021 A 
ATOM      5  C   UNL d   1     -42.374-123.294 -50.434  0.00  0.00     0.082 A 
ATOM      6  C   UNL d   1     -41.515-122.431 -52.230  0.00  0.00     0.297 A 
ATOM      7  N   UNL d   1     -41.171-121.688 -52.303  0.00  0.00    -0.205 NA
ATOM      8  C   UNL d   1     -42.236-122.338 -49.396  0.00  0.00     0.026 A 
ATOM      9  O   UNL d   1     -41.563-122.949 -52.890  0.00  0.00    -0.264 OA
ATOM     10  C   UNL d   1     -42.741-123.816 -49.915  0.00  0.00     0.021 A 
ATOM     11  C   UNL d   1     -42.605-122.863 -48.875  0.00  0.00     0.094 A 
ATOM     12  C   UNL d   1     -41.421-121.402 -50.909  0.00  0.00     0.022 A 
ATOM     13  C   UNL d   1     -41.123-121.170 -51.643  0.00  0.00     0.102 A 
ATOM     14  C   UNL d   1     -42.852-123.580 -49.118  0.00  0.00     0.026 A 
ENDROOT
BRANCH  11  15
ATOM     15  O   UNL d   1     -42.735-122.671 -48.078  0.00  0.00    -0.328 OA
ATOM     16  C   UNL d   1     -42.390-123.122 -47.466  0.00  0.00     0.181 C 
ENDBRANCH  11  15
TORSDOF 1
ENDMDL
