MODEL 1
REMARK VINA RESULT:      -7.6      0.000      0.000
REMARK  3 active torsions:
REMARK  status: ('A' for Active; 'I' for Inactive)
REMARK    1  A    between atoms: C_9  and  C_4 
REMARK    2  A    between atoms: C_10  and  C_7 
REMARK    3  A    between atoms: C_17  and  C_10 
ROOT
ATOM      1  C   UNL d   1     -47.117  13.797  22.932  0.00  0.00     0.179 A 
ATOM      2  N   UNL d   1     -47.648  13.281  22.553  0.00  0.00    -0.282 N 
ATOM      3  N   UNL d   1     -46.473  13.353  23.198  0.00  0.00    -0.221 NA
ATOM      4  C   UNL d   1     -46.604  12.559  22.984  0.00  0.00     0.101 A 
ATOM      5  S   UNL d   1     -47.433  14.557  22.901  0.00  0.00    -0.048 SA
ATOM      6  C   UNL d   1     -47.324  12.523  22.590  0.00  0.00     0.101 A 
ATOM      7  C   UNL d   1     -48.157  14.509  22.502  0.00  0.00     0.050 A 
ATOM      8  C   UNL d   1     -48.283  13.733  22.294  0.00  0.00     0.089 A 
ENDROOT
BRANCH   4   9
ATOM      9  C   UNL d   1     -46.099  11.937  23.142  0.00  0.00     0.019 A 
ATOM     10  C   UNL d   1     -45.312  11.981  22.900  0.00  0.00     0.004 A 
ATOM     11  C   UNL d   1     -44.791  11.358  23.054  0.00  0.00     0.030 A 
ATOM     12  C   UNL d   1     -45.069  10.689  23.455  0.00  0.00     0.140 A 
ATOM     13  C   UNL d   1     -45.851  10.642  23.697  0.00  0.00     0.030 A 
ATOM     14  F   UNL d   1     -44.689   9.989  23.686  0.00  0.00    -0.204 F 
ATOM     15  C   UNL d   1     -46.369  11.263  23.543  0.00  0.00     0.004 A 
ENDBRANCH   4   9
BRANCH   7  16
ATOM     16  C   UNL d   1     -48.656  15.148  22.350  0.00  0.00     0.008 C 
BRANCH  16  17
ATOM     17  C   UNL d   1     -49.438  15.145  22.609  0.00  0.00     0.001 A 
ATOM     18  C   UNL d   1     -50.023  14.768  22.172  0.00  0.00     0.000 A 
ATOM     19  C   UNL d   1     -50.811  14.766  22.436  0.00  0.00     0.000 A 
ATOM     20  C   UNL d   1     -51.006  15.146  23.142  0.00  0.00     0.000 A 
ATOM     21  C   UNL d   1     -50.422  15.525  23.584  0.00  0.00     0.000 A 
ATOM     22  C   UNL d   1     -49.635  15.527  23.321  0.00  0.00     0.000 A 
ENDBRANCH  16  17
ENDBRANCH   7  16
TORSDOF 3
ENDMDL
MODEL 2
REMARK VINA RESULT:      -6.0      8.621     10.070
REMARK  3 active torsions:
REMARK  status: ('A' for Active; 'I' for Inactive)
REMARK    1  A    between atoms: C_9  and  C_4 
REMARK    2  A    between atoms: C_10  and  C_7 
REMARK    3  A    between atoms: C_17  and  C_10 
ROOT
ATOM      1  C   UNL d   1     -39.836  14.431  18.718  0.00  0.00     0.179 A 
ATOM      2  N   UNL d   1     -39.208  14.964  18.826  0.00  0.00    -0.282 N 
ATOM      3  N   UNL d   1     -39.743  14.070  17.980  0.00  0.00    -0.221 NA
ATOM      4  C   UNL d   1     -39.055  14.380  17.629  0.00  0.00     0.101 A 
ATOM      5  S   UNL d   1     -40.316  14.462  19.387  0.00  0.00    -0.048 SA
ATOM      6  C   UNL d   1     -38.734  14.926  18.152  0.00  0.00     0.101 A 
ATOM      7  C   UNL d   1     -39.983  15.014  19.906  0.00  0.00     0.050 A 
ATOM      8  C   UNL d   1     -39.311  15.316  19.560  0.00  0.00     0.089 A 
ENDROOT
BRANCH   4   9
ATOM      9  C   UNL d   1     -38.763  14.172  16.896  0.00  0.00     0.019 A 
ATOM     10  C   UNL d   1     -38.290  13.499  16.823  0.00  0.00     0.004 A 
ATOM     11  C   UNL d   1     -37.988  13.277  16.087  0.00  0.00     0.030 A 
ATOM     12  C   UNL d   1     -38.165  13.737  15.423  0.00  0.00     0.140 A 
ATOM     13  C   UNL d   1     -38.634  14.406  15.490  0.00  0.00     0.030 A 
ATOM     14  F   UNL d   1     -37.948  13.659  14.625  0.00  0.00    -0.204 F 
ATOM     15  C   UNL d   1     -38.935  14.627  16.224  0.00  0.00     0.004 A 
ENDBRANCH   4   9
BRANCH   7  16
ATOM     16  C   UNL d   1     -40.291  15.215  20.644  0.00  0.00     0.008 C 
BRANCH  16  17
ATOM     17  C   UNL d   1     -39.866  15.067  21.333  0.00  0.00     0.001 A 
ATOM     18  C   UNL d   1     -39.801  14.304  21.631  0.00  0.00     0.000 A 
ATOM     19  C   UNL d   1     -39.371  14.157  22.327  0.00  0.00     0.000 A 
ATOM     20  C   UNL d   1     -39.007  14.784  22.722  0.00  0.00     0.000 A 
ATOM     21  C   UNL d   1     -39.069  15.551  22.427  0.00  0.00     0.000 A 
ATOM     22  C   UNL d   1     -39.498  15.698  21.732  0.00  0.00     0.000 A 
ENDBRANCH  16  17
ENDBRANCH   7  16
TORSDOF 3
ENDMDL
MODEL 3
REMARK VINA RESULT:      -5.6      8.764      9.896
REMARK  3 active torsions:
REMARK  status: ('A' for Active; 'I' for Inactive)
REMARK    1  A    between atoms: C_9  and  C_4 
REMARK    2  A    between atoms: C_10  and  C_7 
REMARK    3  A    between atoms: C_17  and  C_10 
ROOT
ATOM      1  C   UNL d   1     -38.968  15.217  19.717  0.00  0.00     0.179 A 
ATOM      2  N   UNL d   1     -39.299  14.455  19.744  0.00  0.00    -0.282 N 
ATOM      3  N   UNL d   1     -39.314  15.625  19.087  0.00  0.00    -0.221 NA
ATOM      4  C   UNL d   1     -39.861  15.115  18.721  0.00  0.00     0.101 A 
ATOM      5  S   UNL d   1     -38.420  15.280  20.329  0.00  0.00    -0.048 SA
ATOM      6  C   UNL d   1     -39.846  14.402  19.129  0.00  0.00     0.101 A 
ATOM      7  C   UNL d   1     -38.414  14.556  20.731  0.00  0.00     0.050 A 
ATOM      8  C   UNL d   1     -38.948  14.060  20.373  0.00  0.00     0.089 A 
ENDROOT
BRANCH   4   9
ATOM      9  C   UNL d   1     -40.322  15.302  18.075  0.00  0.00     0.019 A 
ATOM     10  C   UNL d   1     -41.022  15.727  18.184  0.00  0.00     0.004 A 
ATOM     11  C   UNL d   1     -41.498  15.922  17.539  0.00  0.00     0.030 A 
ATOM     12  C   UNL d   1     -41.266  15.687  16.780  0.00  0.00     0.140 A 
ATOM     13  C   UNL d   1     -40.572  15.265  16.667  0.00  0.00     0.030 A 
ATOM     14  F   UNL d   1     -41.620  15.797  16.037  0.00  0.00    -0.204 F 
ATOM     15  C   UNL d   1     -40.098  15.071  17.311  0.00  0.00     0.004 A 
ENDBRANCH   4   9
BRANCH   7  16
ATOM     16  C   UNL d   1     -37.940  14.383  21.384  0.00  0.00     0.008 C 
BRANCH  16  17
ATOM     17  C   UNL d   1     -38.274  14.234  22.121  0.00  0.00     0.001 A 
ATOM     18  C   UNL d   1     -38.488  14.852  22.618  0.00  0.00     0.000 A 
ATOM     19  C   UNL d   1     -38.826  14.699  23.362  0.00  0.00     0.000 A 
ATOM     20  C   UNL d   1     -38.947  13.918  23.602  0.00  0.00     0.000 A 
ATOM     21  C   UNL d   1     -38.734  13.295  23.107  0.00  0.00     0.000 A 
ATOM     22  C   UNL d   1     -38.397  13.447  22.365  0.00  0.00     0.000 A 
ENDBRANCH  16  17
ENDBRANCH   7  16
TORSDOF 3
ENDMDL
MODEL 4
REMARK VINA RESULT:      -4.8      8.528      9.260
REMARK  3 active torsions:
REMARK  status: ('A' for Active; 'I' for Inactive)
REMARK    1  A    between atoms: C_9  and  C_4 
REMARK    2  A    between atoms: C_10  and  C_7 
REMARK    3  A    between atoms: C_17  and  C_10 
ROOT
ATOM      1  C   UNL d   1     -39.320  15.288  19.760  0.00  0.00     0.179 A 
ATOM      2  N   UNL d   1     -39.006  14.635  19.352  0.00  0.00    -0.282 N 
ATOM      3  N   UNL d   1     -39.276  15.130  20.570  0.00  0.00    -0.221 NA
ATOM      4  C   UNL d   1     -38.934  14.378  20.666  0.00  0.00     0.101 A 
ATOM      5  S   UNL d   1     -39.557  15.847  19.203  0.00  0.00    -0.048 SA
ATOM      6  C   UNL d   1     -38.771  14.081  19.917  0.00  0.00     0.101 A 
ATOM      7  C   UNL d   1     -39.388  15.537  18.453  0.00  0.00     0.050 A 
ATOM      8  C   UNL d   1     -39.054  14.802  18.550  0.00  0.00     0.089 A 
ENDROOT
BRANCH   4   9
ATOM      9  C   UNL d   1     -38.791  14.011  21.381  0.00  0.00     0.019 A 
ATOM     10  C   UNL d   1     -39.365  14.036  21.973  0.00  0.00     0.004 A 
ATOM     11  C   UNL d   1     -39.232  13.669  22.701  0.00  0.00     0.030 A 
ATOM     12  C   UNL d   1     -38.516  13.275  22.830  0.00  0.00     0.140 A 
ATOM     13  C   UNL d   1     -37.943  13.247  22.244  0.00  0.00     0.030 A 
ATOM     14  F   UNL d   1     -38.226  12.862  23.488  0.00  0.00    -0.204 F 
ATOM     15  C   UNL d   1     -38.076  13.614  21.519  0.00  0.00     0.004 A 
ENDBRANCH   4   9
BRANCH   7  16
ATOM     16  C   UNL d   1     -39.540  15.921  17.739  0.00  0.00     0.008 C 
BRANCH  16  17
ATOM     17  C   UNL d   1     -40.214  15.747  17.300  0.00  0.00     0.001 A 
ATOM     18  C   UNL d   1     -40.962  15.921  17.592  0.00  0.00     0.000 A 
ATOM     19  C   UNL d   1     -41.641  15.744  17.147  0.00  0.00     0.000 A 
ATOM     20  C   UNL d   1     -41.561  15.389  16.405  0.00  0.00     0.000 A 
ATOM     21  C   UNL d   1     -40.813  15.212  16.109  0.00  0.00     0.000 A 
ATOM     22  C   UNL d   1     -40.135  15.389  16.552  0.00  0.00     0.000 A 
ENDBRANCH  16  17
ENDBRANCH   7  16
TORSDOF 3
ENDMDL
