MODEL 1
REMARK VINA RESULT:      -4.8      0.000      0.000
REMARK  6 active torsions:
REMARK  status: ('A' for Active; 'I' for Inactive)
REMARK    1  A    between atoms: N_4  and  S_1 
REMARK    2  A    between atoms: C_12  and  S_1 
REMARK    3  A    between atoms: N_3  and  C_2 
REMARK    4  A    between atoms: C_7  and  N_4 
REMARK    5  A    between atoms: C_6  and  C_8 
REMARK       I    between atoms: C_8  and  N_13 
REMARK    6  A    between atoms: N_13  and  C_22 
ROOT
ATOM      1  C   UNL d   1      58.331  -0.513  29.928  0.00  0.00     0.106 A 
ATOM      2  C   UNL d   1      57.869  -1.035  30.355  0.00  0.00     0.015 A 
ATOM      3  C   UNL d   1      58.331   0.295  30.101  0.00  0.00     0.015 A 
ATOM      4  C   UNL d   1      57.389   0.055  31.148  0.00  0.00     0.085 A 
ATOM      5  C   UNL d   1      57.857   0.579  30.714  0.00  0.00     0.020 A 
ATOM      6  C   UNL d   1      57.395  -0.751  30.968  0.00  0.00     0.020 A 
ENDROOT
BRANCH   1   7
ATOM      7  S   UNL d   1      58.805  -0.797  29.315  0.00  0.00     0.300 S 
ATOM      8  O   UNL d   1      58.163  -0.781  28.799  0.00  0.00    -0.198 OA
ATOM      9  O   UNL d   1      59.460  -0.818  29.823  0.00  0.00    -0.198 OA
BRANCH   7  10
ATOM     10  N   UNL d   1      59.287  -1.084  28.701  0.00  0.00     0.034 NA
BRANCH  10  11
ATOM     11  C   UNL d   1      59.631  -1.831  28.758  0.00  0.00     0.760 A 
ATOM     12  N   UNL d   1      59.181  -2.516  28.577  0.00  0.00    -0.059 NA
ATOM     13  C   UNL d   1      59.524  -3.264  28.634  0.00  0.00     0.102 A 
ATOM     14  C   UNL d   1      59.081  -3.939  28.456  0.00  0.00     0.021 C 
ATOM     15  C   UNL d   1      60.312  -3.337  28.869  0.00  0.00     0.041 A 
ATOM     16  C   UNL d   1      60.762  -2.652  29.049  0.00  0.00     0.120 A 
ATOM     17  N   UNL d   1      60.414  -1.911  28.991  0.00  0.00    -0.057 NA
ENDBRANCH  10  11
ENDBRANCH   7  10
ENDBRANCH   1   7
BRANCH   4  18
ATOM     18  N   UNL d   1      56.909   0.346  31.768  0.00  0.00    -0.208 NA
ATOM     19  C   UNL d   1      56.587  -0.173  32.325  0.00  0.00     0.285 C 
ATOM     20  O   UNL d   1      56.745  -0.983  32.262  0.00  0.00    -0.265 OA
BRANCH  19  21
ATOM     21  C   UNL d   1      56.115   0.117  32.936  0.00  0.00     0.089 A 
ATOM     22  S   UNL d   1      56.318   0.144  33.742  0.00  0.00    -0.059 SA
ATOM     23  C   UNL d   1      55.673   0.479  34.140  0.00  0.00     0.156 A 
ATOM     24  C   UNL d   1      55.085   0.653  33.581  0.00  0.00     0.031 A 
ATOM     25  C   UNL d   1      55.367   0.429  32.852  0.00  0.00     0.014 A 
BRANCH  23  26
ATOM     26  N   UNL d   1      55.636   0.612  34.966  0.00  0.00    -0.107 N 
ATOM     27  O   UNL d   1      54.906   0.674  35.352  0.00  0.00    -0.531 OA
ATOM     28  O   UNL d   1      56.342   0.680  35.395  0.00  0.00    -0.531 OA
ENDBRANCH  23  26
ENDBRANCH  19  21
ENDBRANCH   4  18
TORSDOF 6
ENDMDL
