MODEL 1
REMARK VINA RESULT:      -3.2      0.000      0.000
REMARK  3 active torsions:
REMARK  status: ('A' for Active; 'I' for Inactive)
REMARK    1  A    between atoms: C_5  and  C_1 
REMARK    2  A    between atoms: C_7  and  C_5 
REMARK    3  A    between atoms: C_10  and  C_7 
ROOT
ATOM      1  C   UNL d   1      30.528  16.694 -24.531  0.00  0.00     0.220 A 
ATOM      2  C   UNL d   1      30.752  15.978 -24.809  0.00  0.00     0.315 A 
ATOM      3  N   UNL d   1      30.124  15.457 -24.758  0.00  0.00    -0.205 NA
ATOM      4  C   UNL d   1      29.744  16.647 -24.294  0.00  0.00     0.059 A 
ATOM      5  C   UNL d   1      29.488  15.865 -24.437  0.00  0.00     0.088 A 
ATOM      6  O   UNL d   1      31.513  15.827 -25.095  0.00  0.00    -0.262 OA
ATOM      7  O   UNL d   1      30.140  17.341 -24.221  0.00  0.00    -0.285 OA
ATOM      8  C   UNL d   1      29.210  17.185 -23.969  0.00  0.00     0.005 A 
ATOM      9  C   UNL d   1      28.703  15.634 -24.253  0.00  0.00     0.019 A 
ATOM     10  C   UNL d   1      28.442  16.978 -23.783  0.00  0.00     0.000 A 
ATOM     11  C   UNL d   1      28.187  16.196 -23.926  0.00  0.00     0.002 A 
ENDROOT
BRANCH   1  12
ATOM     12  C   UNL d   1      31.075  17.302 -24.531  0.00  0.00     0.086 C 
BRANCH  12  13
ATOM     13  C   UNL d   1      31.708  17.322 -23.993  0.00  0.00     0.199 C 
ATOM     14  O   UNL d   1      31.820  16.687 -23.480  0.00  0.00    -0.286 OA
BRANCH  13  15
ATOM     15  C   UNL d   1      32.212  17.961 -23.972  0.00  0.00     0.039 A 
ATOM     16  C   UNL d   1      32.459  18.352 -24.671  0.00  0.00     0.003 A 
ATOM     17  C   UNL d   1      32.963  18.991 -24.650  0.00  0.00     0.000 A 
ATOM     18  C   UNL d   1      33.237  19.258 -23.909  0.00  0.00     0.000 A 
ATOM     19  C   UNL d   1      33.004  18.886 -23.216  0.00  0.00     0.000 A 
ATOM     20  C   UNL d   1      32.503  18.252 -23.249  0.00  0.00     0.003 A 
ENDBRANCH  13  15
ENDBRANCH  12  13
ENDBRANCH   1  12
TORSDOF 3
ENDMDL
MODEL 2
REMARK VINA RESULT:      -2.7      2.444      4.407
REMARK  3 active torsions:
REMARK  status: ('A' for Active; 'I' for Inactive)
REMARK    1  A    between atoms: C_5  and  C_1 
REMARK    2  A    between atoms: C_7  and  C_5 
REMARK    3  A    between atoms: C_10  and  C_7 
ROOT
ATOM      1  C   UNL d   1      33.232  19.120 -23.238  0.00  0.00     0.220 A 
ATOM      2  C   UNL d   1      33.236  19.643 -23.843  0.00  0.00     0.315 A 
ATOM      3  N   UNL d   1      33.237  20.405 -23.546  0.00  0.00    -0.205 NA
ATOM      4  C   UNL d   1      33.229  19.539 -22.532  0.00  0.00     0.059 A 
ATOM      5  C   UNL d   1      33.232  20.351 -22.727  0.00  0.00     0.088 A 
ATOM      6  O   UNL d   1      33.240  19.409 -24.637  0.00  0.00    -0.262 OA
ATOM      7  O   UNL d   1      33.227  18.736 -22.518  0.00  0.00    -0.285 OA
ATOM      8  C   UNL d   1      33.224  19.321 -21.737  0.00  0.00     0.005 A 
ATOM      9  C   UNL d   1      33.231  20.933 -22.123  0.00  0.00     0.019 A 
ATOM     10  C   UNL d   1      33.223  19.874 -21.135  0.00  0.00     0.000 A 
ATOM     11  C   UNL d   1      33.226  20.686 -21.329  0.00  0.00     0.002 A 
ENDROOT
BRANCH   1  12
ATOM     12  C   UNL d   1      33.231  18.321 -23.412  0.00  0.00     0.086 C 
BRANCH  12  13
ATOM     13  C   UNL d   1      32.563  17.942 -23.729  0.00  0.00     0.199 C 
ATOM     14  O   UNL d   1      31.917  18.396 -23.964  0.00  0.00    -0.286 OA
BRANCH  13  15
ATOM     15  C   UNL d   1      32.546  17.131 -23.808  0.00  0.00     0.039 A 
ATOM     16  C   UNL d   1      31.914  16.671 -23.504  0.00  0.00     0.003 A 
ATOM     17  C   UNL d   1      31.897  15.861 -23.583  0.00  0.00     0.000 A 
ATOM     18  C   UNL d   1      32.528  15.487 -23.978  0.00  0.00     0.000 A 
ATOM     19  C   UNL d   1      33.153  15.923 -24.281  0.00  0.00     0.000 A 
ATOM     20  C   UNL d   1      33.160  16.728 -24.197  0.00  0.00     0.003 A 
ENDBRANCH  13  15
ENDBRANCH  12  13
ENDBRANCH   1  12
TORSDOF 3
ENDMDL
MODEL 3
REMARK VINA RESULT:      -2.6      1.216      3.675
REMARK  3 active torsions:
REMARK  status: ('A' for Active; 'I' for Inactive)
REMARK    1  A    between atoms: C_5  and  C_1 
REMARK    2  A    between atoms: C_7  and  C_5 
REMARK    3  A    between atoms: C_10  and  C_7 
ROOT
ATOM      1  C   UNL d   1      31.753  16.749 -23.853  0.00  0.00     0.220 A 
ATOM      2  C   UNL d   1      32.390  16.281 -23.729  0.00  0.00     0.315 A 
ATOM      3  N   UNL d   1      33.052  16.629 -24.060  0.00  0.00    -0.205 NA
ATOM      4  C   UNL d   1      31.995  17.413 -24.269  0.00  0.00     0.059 A 
ATOM      5  C   UNL d   1      32.816  17.338 -24.400  0.00  0.00     0.088 A 
ATOM      6  O   UNL d   1      32.346  15.561 -23.325  0.00  0.00    -0.262 OA
ATOM      7  O   UNL d   1      31.223  17.333 -24.062  0.00  0.00    -0.285 OA
ATOM      8  C   UNL d   1      31.607  18.083 -24.555  0.00  0.00     0.005 A 
ATOM      9  C   UNL d   1      33.237  17.933 -24.815  0.00  0.00     0.019 A 
ATOM     10  C   UNL d   1      32.000  18.672 -24.961  0.00  0.00     0.000 A 
ATOM     11  C   UNL d   1      32.821  18.597 -25.092  0.00  0.00     0.002 A 
ENDROOT
BRANCH   1  12
ATOM     12  C   UNL d   1      31.027  16.504 -23.566  0.00  0.00     0.086 C 
BRANCH  12  13
ATOM     13  C   UNL d   1      30.578  15.920 -23.950  0.00  0.00     0.199 C 
ATOM     14  O   UNL d   1      30.936  15.453 -24.526  0.00  0.00    -0.286 OA
BRANCH  13  15
ATOM     15  C   UNL d   1      29.794  15.809 -23.759  0.00  0.00     0.039 A 
ATOM     16  C   UNL d   1      29.184  15.916 -24.324  0.00  0.00     0.003 A 
ATOM     17  C   UNL d   1      28.399  15.805 -24.133  0.00  0.00     0.000 A 
ATOM     18  C   UNL d   1      28.207  15.581 -23.354  0.00  0.00     0.000 A 
ATOM     19  C   UNL d   1      28.793  15.473 -22.790  0.00  0.00     0.000 A 
ATOM     20  C   UNL d   1      29.569  15.585 -22.991  0.00  0.00     0.003 A 
ENDBRANCH  13  15
ENDBRANCH  12  13
ENDBRANCH   1  12
TORSDOF 3
ENDMDL
MODEL 4
REMARK VINA RESULT:      -2.4      1.708      2.065
REMARK  3 active torsions:
REMARK  status: ('A' for Active; 'I' for Inactive)
REMARK    1  A    between atoms: C_5  and  C_1 
REMARK    2  A    between atoms: C_7  and  C_5 
REMARK    3  A    between atoms: C_10  and  C_7 
ROOT
ATOM      1  C   UNL d   1      29.699  16.745 -24.340  0.00  0.00     0.220 A 
ATOM      2  C   UNL d   1      29.495  17.467 -24.615  0.00  0.00     0.315 A 
ATOM      3  N   UNL d   1      28.746  17.659 -24.345  0.00  0.00    -0.205 NA
ATOM      4  C   UNL d   1      29.082  16.455 -23.883  0.00  0.00     0.059 A 
ATOM      5  C   UNL d   1      28.479  17.033 -23.886  0.00  0.00     0.088 A 
ATOM      6  O   UNL d   1      29.991  17.920 -25.097  0.00  0.00    -0.262 OA
ATOM      7  O   UNL d   1      29.745  16.013 -23.981  0.00  0.00    -0.285 OA
ATOM      8  C   UNL d   1      28.960  15.758 -23.459  0.00  0.00     0.005 A 
ATOM      9  C   UNL d   1      27.765  16.905 -23.466  0.00  0.00     0.019 A 
ATOM     10  C   UNL d   1      28.271  15.616 -23.044  0.00  0.00     0.000 A 
ATOM     11  C   UNL d   1      27.669  16.194 -23.047  0.00  0.00     0.002 A 
ENDROOT
BRANCH   1  12
ATOM     12  C   UNL d   1      30.431  16.442 -24.544  0.00  0.00     0.086 C 
BRANCH  12  13
ATOM     13  C   UNL d   1      31.134  16.728 -24.207  0.00  0.00     0.199 C 
ATOM     14  O   UNL d   1      31.121  17.444 -23.799  0.00  0.00    -0.286 OA
BRANCH  13  15
ATOM     15  C   UNL d   1      31.828  16.308 -24.277  0.00  0.00     0.039 A 
ATOM     16  C   UNL d   1      32.133  16.082 -25.025  0.00  0.00     0.003 A 
ATOM     17  C   UNL d   1      32.827  15.662 -25.095  0.00  0.00     0.000 A 
ATOM     18  C   UNL d   1      33.239  15.454 -24.401  0.00  0.00     0.000 A 
ATOM     19  C   UNL d   1      32.953  15.668 -23.662  0.00  0.00     0.000 A 
ATOM     20  C   UNL d   1      32.263  16.085 -23.604  0.00  0.00     0.003 A 
ENDBRANCH  13  15
ENDBRANCH  12  13
ENDBRANCH   1  12
TORSDOF 3
ENDMDL
MODEL 5
REMARK VINA RESULT:      -2.2      4.846      6.816
REMARK  3 active torsions:
REMARK  status: ('A' for Active; 'I' for Inactive)
REMARK    1  A    between atoms: C_5  and  C_1 
REMARK    2  A    between atoms: C_7  and  C_5 
REMARK    3  A    between atoms: C_10  and  C_7 
ROOT
ATOM      1  C   UNL d   1      32.962  22.279 -20.650  0.00  0.00     0.220 A 
ATOM      2  C   UNL d   1      32.766  22.910 -21.100  0.00  0.00     0.315 A 
ATOM      3  N   UNL d   1      32.602  23.549 -20.617  0.00  0.00    -0.205 NA
ATOM      4  C   UNL d   1      32.928  22.501 -19.861  0.00  0.00     0.059 A 
ATOM      5  C   UNL d   1      32.700  23.304 -19.840  0.00  0.00     0.088 A 
ATOM      6  O   UNL d   1      32.745  22.882 -21.927  0.00  0.00    -0.262 OA
ATOM      7  O   UNL d   1      33.134  21.750 -20.053  0.00  0.00    -0.285 OA
ATOM      8  C   UNL d   1      33.065  22.108 -19.148  0.00  0.00     0.005 A 
ATOM      9  C   UNL d   1      32.613  23.702 -19.106  0.00  0.00     0.019 A 
ATOM     10  C   UNL d   1      32.986  22.480 -18.425  0.00  0.00     0.000 A 
ATOM     11  C   UNL d   1      32.758  23.283 -18.404  0.00  0.00     0.002 A 
ENDROOT
BRANCH   1  12
ATOM     12  C   UNL d   1      33.149  21.575 -21.024  0.00  0.00     0.086 C 
BRANCH  12  13
ATOM     13  C   UNL d   1      32.575  21.122 -21.417  0.00  0.00     0.199 C 
ATOM     14  O   UNL d   1      31.780  21.321 -21.334  0.00  0.00    -0.286 OA
BRANCH  13  15
ATOM     15  C   UNL d   1      32.794  20.488 -21.879  0.00  0.00     0.039 A 
ATOM     16  C   UNL d   1      32.854  20.549 -22.713  0.00  0.00     0.003 A 
ATOM     17  C   UNL d   1      33.073  19.915 -23.174  0.00  0.00     0.000 A 
ATOM     18  C   UNL d   1      33.240  19.189 -22.800  0.00  0.00     0.000 A 
ATOM     19  C   UNL d   1      33.186  19.113 -21.985  0.00  0.00     0.000 A 
ATOM     20  C   UNL d   1      32.967  19.750 -21.536  0.00  0.00     0.003 A 
ENDBRANCH  13  15
ENDBRANCH  12  13
ENDBRANCH   1  12
TORSDOF 3
ENDMDL
MODEL 6
REMARK VINA RESULT:      -1.8      3.739      5.656
REMARK  3 active torsions:
REMARK  status: ('A' for Active; 'I' for Inactive)
REMARK    1  A    between atoms: C_5  and  C_1 
REMARK    2  A    between atoms: C_7  and  C_5 
REMARK    3  A    between atoms: C_10  and  C_7 
ROOT
ATOM      1  C   UNL d   1      33.061  21.158 -21.776  0.00  0.00     0.220 A 
ATOM      2  C   UNL d   1      32.899  21.114 -20.994  0.00  0.00     0.315 A 
ATOM      3  N   UNL d   1      32.737  21.863 -20.707  0.00  0.00    -0.205 NA
ATOM      4  C   UNL d   1      33.005  21.943 -22.010  0.00  0.00     0.059 A 
ATOM      5  C   UNL d   1      32.800  22.388 -21.334  0.00  0.00     0.088 A 
ATOM      6  O   UNL d   1      32.906  20.402 -20.574  0.00  0.00    -0.262 OA
ATOM      7  O   UNL d   1      33.197  21.380 -22.549  0.00  0.00    -0.285 OA
ATOM      8  C   UNL d   1      33.106  22.335 -22.728  0.00  0.00     0.005 A 
ATOM      9  C   UNL d   1      32.700  23.219 -21.387  0.00  0.00     0.019 A 
ATOM     10  C   UNL d   1      33.013  23.144 -22.799  0.00  0.00     0.000 A 
ATOM     11  C   UNL d   1      32.808  23.589 -22.123  0.00  0.00     0.002 A 
ENDROOT
BRANCH   1  12
ATOM     12  C   UNL d   1      33.240  20.468 -22.177  0.00  0.00     0.086 C 
BRANCH  12  13
ATOM     13  C   UNL d   1      32.648  19.953 -22.450  0.00  0.00     0.199 C 
ATOM     14  O   UNL d   1      31.860  20.120 -22.277  0.00  0.00    -0.286 OA
BRANCH  13  15
ATOM     15  C   UNL d   1      32.843  19.292 -22.883  0.00  0.00     0.039 A 
ATOM     16  C   UNL d   1      32.913  19.315 -23.718  0.00  0.00     0.003 A 
ATOM     17  C   UNL d   1      33.108  18.654 -24.151  0.00  0.00     0.000 A 
ATOM     18  C   UNL d   1      33.240  17.938 -23.746  0.00  0.00     0.000 A 
ATOM     19  C   UNL d   1      33.174  17.898 -22.929  0.00  0.00     0.000 A 
ATOM     20  C   UNL d   1      32.980  18.562 -22.509  0.00  0.00     0.003 A 
ENDBRANCH  13  15
ENDBRANCH  12  13
ENDBRANCH   1  12
TORSDOF 3
ENDMDL
MODEL 7
REMARK VINA RESULT:      -1.5      5.548      6.829
REMARK  3 active torsions:
REMARK  status: ('A' for Active; 'I' for Inactive)
REMARK    1  A    between atoms: C_5  and  C_1 
REMARK    2  A    between atoms: C_7  and  C_5 
REMARK    3  A    between atoms: C_10  and  C_7 
ROOT
ATOM      1  C   UNL d   1      33.193  22.299 -22.294  0.00  0.00     0.220 A 
ATOM      2  C   UNL d   1      33.142  21.502 -22.331  0.00  0.00     0.315 A 
ATOM      3  N   UNL d   1      33.111  21.267 -23.114  0.00  0.00    -0.205 NA
ATOM      4  C   UNL d   1      33.196  22.596 -23.059  0.00  0.00     0.059 A 
ATOM      5  C   UNL d   1      33.144  21.944 -23.577  0.00  0.00     0.088 A 
ATOM      6  O   UNL d   1      33.126  21.021 -21.658  0.00  0.00    -0.262 OA
ATOM      7  O   UNL d   1      33.241  23.101 -22.436  0.00  0.00    -0.285 OA
ATOM      8  C   UNL d   1      33.237  23.355 -23.378  0.00  0.00     0.005 A 
ATOM      9  C   UNL d   1      33.133  22.061 -24.408  0.00  0.00     0.019 A 
ATOM     10  C   UNL d   1      33.228  23.489 -24.184  0.00  0.00     0.000 A 
ATOM     11  C   UNL d   1      33.176  22.836 -24.703  0.00  0.00     0.002 A 
ENDROOT
BRANCH   1  12
ATOM     12  C   UNL d   1      33.231  22.654 -21.558  0.00  0.00     0.086 C 
BRANCH  12  13
ATOM     13  C   UNL d   1      32.574  22.683 -21.050  0.00  0.00     0.199 C 
ATOM     14  O   UNL d   1      31.822  22.561 -21.361  0.00  0.00    -0.286 OA
BRANCH  13  15
ATOM     15  C   UNL d   1      32.672  22.831 -20.255  0.00  0.00     0.039 A 
ATOM     16  C   UNL d   1      33.047  22.280 -19.747  0.00  0.00     0.003 A 
ATOM     17  C   UNL d   1      33.145  22.427 -18.952  0.00  0.00     0.000 A 
ATOM     18  C   UNL d   1      32.862  23.148 -18.643  0.00  0.00     0.000 A 
ATOM     19  C   UNL d   1      32.492  23.697 -19.128  0.00  0.00     0.000 A 
ATOM     20  C   UNL d   1      32.401  23.540 -19.917  0.00  0.00     0.003 A 
ENDBRANCH  13  15
ENDBRANCH  12  13
ENDBRANCH   1  12
TORSDOF 3
ENDMDL
MODEL 8
REMARK VINA RESULT:      -0.7      5.684      6.839
REMARK  3 active torsions:
REMARK  status: ('A' for Active; 'I' for Inactive)
REMARK    1  A    between atoms: C_5  and  C_1 
REMARK    2  A    between atoms: C_7  and  C_5 
REMARK    3  A    between atoms: C_10  and  C_7 
ROOT
ATOM      1  C   UNL d   1      32.703  22.305 -21.232  0.00  0.00     0.220 A 
ATOM      2  C   UNL d   1      32.226  21.670 -21.145  0.00  0.00     0.315 A 
ATOM      3  N   UNL d   1      32.015  21.592 -20.358  0.00  0.00    -0.205 NA
ATOM      4  C   UNL d   1      32.811  22.653 -20.496  0.00  0.00     0.059 A 
ATOM      5  C   UNL d   1      32.376  22.202 -19.943  0.00  0.00     0.088 A 
ATOM      6  O   UNL d   1      32.000  21.188 -21.778  0.00  0.00    -0.262 OA
ATOM      7  O   UNL d   1      33.167  22.971 -21.141  0.00  0.00    -0.285 OA
ATOM      8  C   UNL d   1      33.234  23.308 -20.228  0.00  0.00     0.005 A 
ATOM      9  C   UNL d   1      32.371  22.414 -19.132  0.00  0.00     0.019 A 
ATOM     10  C   UNL d   1      33.240  23.530 -19.442  0.00  0.00     0.000 A 
ATOM     11  C   UNL d   1      32.806  23.079 -18.889  0.00  0.00     0.002 A 
ENDROOT
BRANCH   1  12
ATOM     12  C   UNL d   1      32.980  22.487 -21.980  0.00  0.00     0.086 C 
BRANCH  12  13
ATOM     13  C   UNL d   1      32.482  22.793 -22.570  0.00  0.00     0.199 C 
ATOM     14  O   UNL d   1      31.730  23.057 -22.363  0.00  0.00    -0.286 OA
BRANCH  13  15
ATOM     15  C   UNL d   1      32.733  22.832 -23.344  0.00  0.00     0.039 A 
ATOM     16  C   UNL d   1      32.985  22.149 -23.761  0.00  0.00     0.003 A 
ATOM     17  C   UNL d   1      33.236  22.188 -24.535  0.00  0.00     0.000 A 
ATOM     18  C   UNL d   1      33.240  22.930 -24.915  0.00  0.00     0.000 A 
ATOM     19  C   UNL d   1      32.997  23.607 -24.520  0.00  0.00     0.000 A 
ATOM     20  C   UNL d   1      32.749  23.556 -23.751  0.00  0.00     0.003 A 
ENDBRANCH  13  15
ENDBRANCH  12  13
ENDBRANCH   1  12
TORSDOF 3
ENDMDL
