MODEL 1
REMARK VINA RESULT:      16.1      0.000      0.000
REMARK  2 active torsions:
REMARK  status: ('A' for Active; 'I' for Inactive)
REMARK    1  A    between atoms: C_6  and  C_1 
REMARK    2  A    between atoms: O_15  and  C_12 
ROOT
ATOM      1  C   UNL d   1      60.042  49.699  50.805  0.00  0.00     0.128 A 
ATOM      2  C   UNL d   1      60.195  49.702  49.972  0.00  0.00     0.306 A 
ATOM      3  C   UNL d   1      59.268  49.697  51.064  0.00  0.00     0.013 A 
ATOM      4  O   UNL d   1      59.562  49.704  49.460  0.00  0.00    -0.273 OA
ATOM      5  C   UNL d   1      58.654  49.699  50.550  0.00  0.00     0.025 A 
ATOM      6  C   UNL d   1      58.807  49.702  49.717  0.00  0.00     0.103 A 
ATOM      7  O   UNL d   1      60.986  49.704  49.695  0.00  0.00    -0.259 OA
ATOM      8  C   UNL d   1      57.873  49.697  50.809  0.00  0.00     0.026 A 
ATOM      9  C   UNL d   1      58.167  49.704  49.204  0.00  0.00     0.027 A 
ATOM     10  C   UNL d   1      57.229  49.699  50.289  0.00  0.00     0.094 A 
ATOM     11  C   UNL d   1      57.382  49.702  49.456  0.00  0.00     0.026 A 
ENDROOT
BRANCH   1  12
ATOM     12  C   UNL d   1      60.683  49.697  51.349  0.00  0.00     0.216 C 
ATOM     13  O   UNL d   1      60.535  49.686  52.157  0.00  0.00    -0.644 OA
ATOM     14  O   UNL d   1      61.468  49.708  51.066  0.00  0.00    -0.644 OA
ENDBRANCH   1  12
BRANCH  10  15
ATOM     15  O   UNL d   1      56.450  49.697  50.573  0.00  0.00    -0.328 OA
ATOM     16  C   UNL d   1      56.302  49.685  51.382  0.00  0.00     0.181 C 
ENDBRANCH  10  15
TORSDOF 2
ENDMDL
MODEL 2
REMARK VINA RESULT:      17.9      0.777      3.153
REMARK  2 active torsions:
REMARK  status: ('A' for Active; 'I' for Inactive)
REMARK    1  A    between atoms: C_6  and  C_1 
REMARK    2  A    between atoms: O_15  and  C_12 
ROOT
ATOM      1  C   UNL d   1      57.663  49.633  50.269  0.00  0.00     0.128 A 
ATOM      2  C   UNL d   1      57.934  49.647  49.467  0.00  0.00     0.306 A 
ATOM      3  C   UNL d   1      58.213  49.640  50.872  0.00  0.00     0.013 A 
ATOM      4  O   UNL d   1      58.736  49.667  49.327  0.00  0.00    -0.273 OA
ATOM      5  C   UNL d   1      58.999  49.661  50.721  0.00  0.00     0.025 A 
ATOM      6  C   UNL d   1      59.270  49.675  49.919  0.00  0.00     0.103 A 
ATOM      7  O   UNL d   1      57.377  49.639  48.841  0.00  0.00    -0.259 OA
ATOM      8  C   UNL d   1      59.556  49.669  51.327  0.00  0.00     0.026 A 
ATOM      9  C   UNL d   1      60.079  49.696  49.782  0.00  0.00     0.027 A 
ATOM     10  C   UNL d   1      60.371  49.690  51.185  0.00  0.00     0.094 A 
ATOM     11  C   UNL d   1      60.643  49.704  50.383  0.00  0.00     0.026 A 
ENDROOT
BRANCH   1  12
ATOM     12  C   UNL d   1      56.839  49.611  50.434  0.00  0.00     0.216 C 
ATOM     13  O   UNL d   1      56.573  49.677  51.209  0.00  0.00    -0.644 OA
ATOM     14  O   UNL d   1      56.293  49.522  49.808  0.00  0.00    -0.644 OA
ENDBRANCH   1  12
BRANCH  10  15
ATOM     15  O   UNL d   1      60.914  49.697  51.812  0.00  0.00    -0.328 OA
ATOM     16  C   UNL d   1      60.651  49.683  52.591  0.00  0.00     0.181 C 
ENDBRANCH  10  15
TORSDOF 2
ENDMDL
