MODEL 1
REMARK VINA RESULT:      -2.3      0.000      0.000
REMARK  5 active torsions:
REMARK  status: ('A' for Active; 'I' for Inactive)
REMARK    1  A    between atoms: C_9  and  N_1 
REMARK    2  A    between atoms: S_8  and  C_2 
REMARK    3  A    between atoms: C_6  and  C_10 
REMARK       I    between atoms: N_7  and  C_6 
REMARK    4  A    between atoms: C_10  and  S_8 
REMARK    5  A    between atoms: C_13  and  C_9 
ROOT
ATOM      1  N   UNL d   1     -41.228-122.858 -50.748  0.00  0.00    -0.303 N 
ATOM      2  C   UNL d   1     -41.162-122.734 -52.075  0.00  0.00     0.049 A 
ATOM      3  C   UNL d   1     -41.204-123.277 -51.441  0.00  0.00     0.087 A 
ATOM      4  C   UNL d   1     -41.161-121.978 -51.741  0.00  0.00     0.024 A 
ATOM      5  C   UNL d   1     -41.203-122.055 -50.920  0.00  0.00     0.065 A 
ATOM      6  C   UNL d   1     -41.129-121.233 -52.085  0.00  0.00     0.002 A 
ATOM      7  C   UNL d   1     -41.211-121.386 -50.444  0.00  0.00     0.018 A 
ATOM      8  C   UNL d   1     -41.137-120.560 -51.607  0.00  0.00     0.000 A 
ATOM      9  C   UNL d   1     -41.178-120.636 -50.787  0.00  0.00     0.002 A 
ENDROOT
BRANCH   2  10
ATOM     10  S   UNL d   1     -41.127-122.912 -52.877  0.00  0.00    -0.080 SA
BRANCH  10  11
ATOM     11  C   UNL d   1     -41.806-122.847 -53.351  0.00  0.00     0.097 C 
BRANCH  11  12
ATOM     12  C   UNL d   1     -41.793-123.065 -54.143  0.00  0.00     0.272 C 
ATOM     13  N   UNL d   1     -42.182-122.615 -54.716  0.00  0.00    -0.267 N 
ATOM     14  C   UNL d   1     -42.591-121.934 -54.483  0.00  0.00     0.110 A 
ATOM     15  C   UNL d   1     -42.163-122.843 -55.507  0.00  0.00     0.110 A 
ATOM     16  C   UNL d   1     -42.981-121.480 -55.042  0.00  0.00     0.142 A 
ATOM     17  O   UNL d   1     -42.964-121.708 -55.850  0.00  0.00    -0.300 OA
ATOM     18  C   UNL d   1     -42.556-122.387 -56.079  0.00  0.00     0.142 A 
ATOM     19  O   UNL d   1     -41.387-123.740 -54.363  0.00  0.00    -0.266 OA
ENDBRANCH  11  12
ENDBRANCH  10  11
ENDBRANCH   2  10
BRANCH   1  20
ATOM     20  C   UNL d   1     -41.273-123.192 -49.979  0.00  0.00     0.080 C 
BRANCH  20  21
ATOM     21  C   UNL d   1     -42.002-123.353 -49.639  0.00  0.00     0.018 A 
ATOM     22  C   UNL d   1     -42.627-123.641 -50.095  0.00  0.00     0.002 A 
ATOM     23  C   UNL d   1     -43.357-123.801 -49.749  0.00  0.00     0.000 A 
ATOM     24  C   UNL d   1     -43.471-123.677 -48.949  0.00  0.00     0.000 A 
ATOM     25  C   UNL d   1     -42.843-123.386 -48.478  0.00  0.00     0.000 A 
ATOM     26  C   UNL d   1     -42.111-123.226 -48.831  0.00  0.00     0.002 A 
ENDBRANCH  20  21
ENDBRANCH   1  20
TORSDOF 5
ENDMDL
MODEL 2
REMARK VINA RESULT:      -1.2      1.322      2.076
REMARK  5 active torsions:
REMARK  status: ('A' for Active; 'I' for Inactive)
REMARK    1  A    between atoms: C_9  and  N_1 
REMARK    2  A    between atoms: S_8  and  C_2 
REMARK    3  A    between atoms: C_6  and  C_10 
REMARK       I    between atoms: N_7  and  C_6 
REMARK    4  A    between atoms: C_10  and  S_8 
REMARK    5  A    between atoms: C_13  and  C_9 
ROOT
ATOM      1  N   UNL d   1     -41.899-123.273 -49.819  0.00  0.00    -0.303 N 
ATOM      2  C   UNL d   1     -41.600-122.558 -50.904  0.00  0.00     0.049 A 
ATOM      3  C   UNL d   1     -41.312-123.116 -50.353  0.00  0.00     0.087 A 
ATOM      4  C   UNL d   1     -42.378-122.387 -50.684  0.00  0.00     0.024 A 
ATOM      5  C   UNL d   1     -42.563-122.829 -50.012  0.00  0.00     0.065 A 
ATOM      6  C   UNL d   1     -42.937-121.883 -51.013  0.00  0.00     0.002 A 
ATOM      7  C   UNL d   1     -43.307-122.767 -49.670  0.00  0.00     0.018 A 
ATOM      8  C   UNL d   1     -43.685-121.819 -50.671  0.00  0.00     0.000 A 
ATOM      9  C   UNL d   1     -43.870-122.261 -49.999  0.00  0.00     0.002 A 
ENDROOT
BRANCH   2  10
ATOM     10  S   UNL d   1     -41.193-122.239 -51.544  0.00  0.00    -0.080 SA
BRANCH  10  11
ATOM     11  C   UNL d   1     -41.193-122.629 -52.277  0.00  0.00     0.097 C 
BRANCH  11  12
ATOM     12  C   UNL d   1     -41.203-122.207 -52.982  0.00  0.00     0.272 C 
ATOM     13  N   UNL d   1     -41.218-122.594 -53.711  0.00  0.00    -0.267 N 
ATOM     14  C   UNL d   1     -41.222-123.422 -53.727  0.00  0.00     0.110 A 
ATOM     15  C   UNL d   1     -41.228-122.162 -54.412  0.00  0.00     0.110 A 
ATOM     16  C   UNL d   1     -41.236-123.817 -54.444  0.00  0.00     0.142 A 
ATOM     17  O   UNL d   1     -41.247-123.381 -55.162  0.00  0.00    -0.300 OA
ATOM     18  C   UNL d   1     -41.243-122.557 -55.142  0.00  0.00     0.142 A 
ATOM     19  O   UNL d   1     -41.199-121.390 -52.957  0.00  0.00    -0.266 OA
ENDBRANCH  11  12
ENDBRANCH  10  11
ENDBRANCH   2  10
BRANCH   1  20
ATOM     20  C   UNL d   1     -41.839-123.804 -49.171  0.00  0.00     0.080 C 
BRANCH  20  21
ATOM     21  C   UNL d   1     -41.809-123.520 -48.402  0.00  0.00     0.018 A 
ATOM     22  C   UNL d   1     -42.417-123.684 -47.868  0.00  0.00     0.002 A 
ATOM     23  C   UNL d   1     -42.383-123.396 -47.097  0.00  0.00     0.000 A 
ATOM     24  C   UNL d   1     -41.747-122.944 -46.852  0.00  0.00     0.000 A 
ATOM     25  C   UNL d   1     -41.126-122.772 -47.387  0.00  0.00     0.000 A 
ATOM     26  C   UNL d   1     -41.166-123.065 -48.161  0.00  0.00     0.002 A 
ENDBRANCH  20  21
ENDBRANCH   1  20
TORSDOF 5
ENDMDL
MODEL 3
REMARK VINA RESULT:      -0.5      2.202      5.030
REMARK  5 active torsions:
REMARK  status: ('A' for Active; 'I' for Inactive)
REMARK    1  A    between atoms: C_9  and  N_1 
REMARK    2  A    between atoms: S_8  and  C_2 
REMARK    3  A    between atoms: C_6  and  C_10 
REMARK       I    between atoms: N_7  and  C_6 
REMARK    4  A    between atoms: C_10  and  S_8 
REMARK    5  A    between atoms: C_13  and  C_9 
ROOT
ATOM      1  N   UNL d   1     -41.631-122.737 -52.147  0.00  0.00    -0.303 N 
ATOM      2  C   UNL d   1     -42.304-122.754 -50.995  0.00  0.00     0.049 A 
ATOM      3  C   UNL d   1     -42.092-123.199 -51.670  0.00  0.00     0.087 A 
ATOM      4  C   UNL d   1     -41.954-122.010 -51.083  0.00  0.00     0.024 A 
ATOM      5  C   UNL d   1     -41.538-121.999 -51.795  0.00  0.00     0.065 A 
ATOM      6  C   UNL d   1     -41.966-121.345 -50.601  0.00  0.00     0.002 A 
ATOM      7  C   UNL d   1     -41.133-121.323 -52.026  0.00  0.00     0.018 A 
ATOM      8  C   UNL d   1     -41.559-120.664 -50.832  0.00  0.00     0.000 A 
ATOM      9  C   UNL d   1     -41.143-120.653 -51.544  0.00  0.00     0.002 A 
ENDROOT
BRANCH   2  10
ATOM     10  S   UNL d   1     -42.769-123.002 -50.364  0.00  0.00    -0.080 SA
BRANCH  10  11
ATOM     11  C   UNL d   1     -42.414-123.296 -49.673  0.00  0.00     0.097 C 
BRANCH  11  12
ATOM     12  C   UNL d   1     -42.859-123.444 -48.998  0.00  0.00     0.272 C 
ATOM     13  N   UNL d   1     -42.500-123.518 -48.258  0.00  0.00    -0.267 N 
ATOM     14  C   UNL d   1     -41.678-123.441 -48.199  0.00  0.00     0.110 A 
ATOM     15  C   UNL d   1     -42.956-123.667 -47.588  0.00  0.00     0.110 A 
ATOM     16  C   UNL d   1     -41.311-123.513 -47.471  0.00  0.00     0.142 A 
ATOM     17  O   UNL d   1     -41.771-123.664 -46.785  0.00  0.00    -0.300 OA
ATOM     18  C   UNL d   1     -42.589-123.740 -46.846  0.00  0.00     0.142 A 
ATOM     19  O   UNL d   1     -43.671-123.519 -49.065  0.00  0.00    -0.266 OA
ENDBRANCH  11  12
ENDBRANCH  10  11
ENDBRANCH   2  10
BRANCH   1  20
ATOM     20  C   UNL d   1     -41.300-122.973 -52.882  0.00  0.00     0.080 C 
BRANCH  20  21
ATOM     21  C   UNL d   1     -41.723-122.871 -53.578  0.00  0.00     0.018 A 
ATOM     22  C   UNL d   1     -41.436-122.382 -54.178  0.00  0.00     0.002 A 
ATOM     23  C   UNL d   1     -41.864-122.283 -54.875  0.00  0.00     0.000 A 
ATOM     24  C   UNL d   1     -42.577-122.668 -54.981  0.00  0.00     0.000 A 
ATOM     25  C   UNL d   1     -42.876-123.167 -54.378  0.00  0.00     0.000 A 
ATOM     26  C   UNL d   1     -42.441-123.262 -53.679  0.00  0.00     0.002 A 
ENDBRANCH  20  21
ENDBRANCH   1  20
TORSDOF 5
ENDMDL
