MODEL 1
REMARK VINA RESULT:      31.4      0.000      0.000
REMARK  6 active torsions:
REMARK  status: ('A' for Active; 'I' for Inactive)
REMARK    1  A    between atoms: S_2  and  C_1 
REMARK    2  A    between atoms: C_9  and  S_2 
REMARK    3  A    between atoms: N_10  and  C_6 
REMARK    4  A    between atoms: C_13  and  N_10 
REMARK    5  A    between atoms: N_12  and  C_14 
REMARK    6  A    between atoms: C_14  and  C_13 
ROOT
ATOM      1  C   UNL d   1     -55.385-102.386 -38.546  0.00  0.00     0.187 A 
ATOM      2  N   UNL d   1     -54.822-102.640 -39.086  0.00  0.00    -0.208 NA
ATOM      3  C   UNL d   1     -56.086-102.239 -38.956  0.00  0.00     0.118 A 
ATOM      4  S   UNL d   1     -55.950-102.405 -39.750  0.00  0.00    -0.035 SA
ATOM      5  C   UNL d   1     -55.173-102.652 -39.831  0.00  0.00     0.196 A 
ATOM      6 CL   UNL d   1     -56.796-101.974 -38.630  0.00  0.00    -0.073 Cl
ENDROOT
BRANCH   1   7
ATOM      7  S   UNL d   1     -55.275-102.292 -37.737  0.00  0.00     0.228 S 
ATOM      8  O   UNL d   1     -55.828-102.864 -37.539  0.00  0.00    -0.216 OA
ATOM      9  O   UNL d   1     -54.721-101.719 -37.928  0.00  0.00    -0.216 OA
BRANCH   7  10
ATOM     10  C   UNL d   1     -55.104-102.137 -36.939  0.00  0.00     0.089 A 
ATOM     11  C   UNL d   1     -54.902-101.376 -36.706  0.00  0.00     0.011 A 
ATOM     12  C   UNL d   1     -54.731-101.217 -35.907  0.00  0.00     0.001 A 
ATOM     13  C   UNL d   1     -54.766-101.828 -35.347  0.00  0.00     0.000 A 
ATOM     14  C   UNL d   1     -54.972-102.600 -35.587  0.00  0.00     0.001 A 
ATOM     15  C   UNL d   1     -55.142-102.757 -36.381  0.00  0.00     0.011 A 
ENDBRANCH   7  10
ENDBRANCH   1   7
BRANCH   5  16
ATOM     16  N   UNL d   1     -54.809-102.872 -40.534  0.00  0.00    -0.218 NA
BRANCH  16  17
ATOM     17  C   UNL d   1     -54.713-102.313 -41.124  0.00  0.00     0.120 C 
BRANCH  17  18
ATOM     18  C   UNL d   1     -55.290-102.228 -41.703  0.00  0.00     0.101 C 
BRANCH  18  19
ATOM     19  N   UNL d   1     -55.050-101.936 -42.439  0.00  0.00    -0.299 N 
ATOM     20  C   UNL d   1     -54.904-102.463 -43.049  0.00  0.00     0.100 C 
ATOM     21  C   UNL d   1     -54.961-101.130 -42.555  0.00  0.00     0.100 C 
ENDBRANCH  18  19
ENDBRANCH  17  18
ENDBRANCH  16  17
ENDBRANCH   5  16
TORSDOF 6
ENDMDL
MODEL 2
REMARK VINA RESULT:      33.1      3.045      5.927
REMARK  6 active torsions:
REMARK  status: ('A' for Active; 'I' for Inactive)
REMARK    1  A    between atoms: S_2  and  C_1 
REMARK    2  A    between atoms: C_9  and  S_2 
REMARK    3  A    between atoms: N_10  and  C_6 
REMARK    4  A    between atoms: C_13  and  N_10 
REMARK    5  A    between atoms: N_12  and  C_14 
REMARK    6  A    between atoms: C_14  and  C_13 
ROOT
ATOM      1  C   UNL d   1     -54.845-101.566 -43.226  0.00  0.00     0.187 A 
ATOM      2  N   UNL d   1     -54.794-101.692 -42.416  0.00  0.00    -0.208 NA
ATOM      3  C   UNL d   1     -54.847-102.301 -43.600  0.00  0.00     0.118 A 
ATOM      4  S   UNL d   1     -54.797-102.879 -43.016  0.00  0.00    -0.035 SA
ATOM      5  C   UNL d   1     -54.764-102.505 -42.288  0.00  0.00     0.196 A 
ATOM      6 CL   UNL d   1     -54.891-102.435 -44.413  0.00  0.00    -0.073 Cl
ENDROOT
BRANCH   1   7
ATOM      7  S   UNL d   1     -54.887-100.837 -43.601  0.00  0.00     0.228 S 
ATOM      8  O   UNL d   1     -54.743-100.413 -42.914  0.00  0.00    -0.216 OA
ATOM      9  O   UNL d   1     -55.031-101.254 -44.291  0.00  0.00    -0.216 OA
BRANCH   7  10
ATOM     10  C   UNL d   1     -54.944-100.142 -44.054  0.00  0.00     0.089 A 
ATOM     11  C   UNL d   1     -55.230 -99.454 -43.709  0.00  0.00     0.011 A 
ATOM     12  C   UNL d   1     -55.289 -98.756 -44.159  0.00  0.00     0.001 A 
ATOM     13  C   UNL d   1     -55.059 -98.758 -44.957  0.00  0.00     0.000 A 
ATOM     14  C   UNL d   1     -54.770 -99.459 -45.304  0.00  0.00     0.001 A 
ATOM     15  C   UNL d   1     -54.712-100.152 -44.856  0.00  0.00     0.011 A 
ENDBRANCH   7  10
ENDBRANCH   1   7
BRANCH   5  16
ATOM     16  N   UNL d   1     -54.711-102.879 -41.558  0.00  0.00    -0.218 NA
BRANCH  16  17
ATOM     17  C   UNL d   1     -54.836-102.442 -40.877  0.00  0.00     0.120 C 
BRANCH  17  18
ATOM     18  C   UNL d   1     -54.981-102.827 -40.167  0.00  0.00     0.101 C 
BRANCH  18  19
ATOM     19  N   UNL d   1     -54.853-102.401 -39.469  0.00  0.00    -0.299 N 
ATOM     20  C   UNL d   1     -54.712-101.595 -39.514  0.00  0.00     0.100 C 
ATOM     21  C   UNL d   1     -54.866-102.782 -38.744  0.00  0.00     0.100 C 
ENDBRANCH  18  19
ENDBRANCH  17  18
ENDBRANCH  16  17
ENDBRANCH   5  16
TORSDOF 6
ENDMDL
