MODEL 1
REMARK VINA RESULT:      26.2      0.000      0.000
REMARK  3 active torsions:
REMARK  status: ('A' for Active; 'I' for Inactive)
REMARK    1  A    between atoms: S_8  and  C_2 
REMARK       I    between atoms: N_6  and  C_7 
REMARK    2  A    between atoms: C_7  and  C_9 
REMARK    3  A    between atoms: C_9  and  S_8 
ROOT
ATOM      1  N   UNL d   1     -52.440  24.735  33.451  0.00  0.00    -0.267 N 
ATOM      2  C   UNL d   1     -52.150  25.511  33.451  0.00  0.00     0.272 C 
ATOM      3  O   UNL d   1     -52.676  26.148  33.359  0.00  0.00    -0.266 OA
ATOM      4  O   UNL d   1     -53.011  23.190  33.451  0.00  0.00    -0.300 OA
ATOM      5  C   UNL d   1     -53.245  24.595  33.361  0.00  0.00     0.110 A 
ATOM      6  C   UNL d   1     -51.919  24.104  33.541  0.00  0.00     0.110 A 
ATOM      7  C   UNL d   1     -52.203  23.333  33.541  0.00  0.00     0.142 A 
ATOM      8  C   UNL d   1     -53.531  23.821  33.361  0.00  0.00     0.142 A 
ENDROOT
BRANCH   2   9
ATOM      9  C   UNL d   1     -51.342  25.653  33.541  0.00  0.00     0.099 C 
BRANCH   9  10
ATOM     10  S   UNL d   1     -51.023  26.375  33.306  0.00  0.00    -0.041 SA
BRANCH  10  11
ATOM     11  C   UNL d   1     -50.280  26.601  33.573  0.00  0.00     0.233 A 
ATOM     12  N   UNL d   1     -49.999  27.309  33.902  0.00  0.00    -0.029 NA
ATOM     13  C   UNL d   1     -49.198  27.208  34.062  0.00  0.00     0.788 A 
ATOM     14  N   UNL d   1     -48.977  26.458  33.841  0.00  0.00     0.050 NA
ATOM     15  N   UNL d   1     -48.699  27.793  34.400  0.00  0.00     0.064 N 
ATOM     16  N   UNL d   1     -49.644  26.072  33.534  0.00  0.00    -0.105 NA
ENDBRANCH  10  11
ENDBRANCH   9  10
ENDBRANCH   2   9
TORSDOF 3
ENDMDL
