MODEL 1
REMARK VINA RESULT:      -1.6      0.000      0.000
REMARK  3 active torsions:
REMARK  status: ('A' for Active; 'I' for Inactive)
REMARK    1  A    between atoms: C_10  and  N_2 
REMARK       I    between atoms: N_3  and  C_6 
REMARK    2  A    between atoms: C_6  and  C_11 
REMARK    3  A    between atoms: C_11  and  C_10 
ROOT
ATOM      1  N   UNL d   1      32.813  19.362 -23.150  0.00  0.00    -0.275 N 
ATOM      2  C   UNL d   1      32.966  18.866 -22.510  0.00  0.00     0.067 A 
ATOM      3  C   UNL d   1      32.608  19.125 -23.908  0.00  0.00     0.266 C 
ATOM      4  C   UNL d   1      32.905  20.140 -22.883  0.00  0.00     0.067 A 
ATOM      5  C   UNL d   1      33.110  20.120 -22.095  0.00  0.00     0.018 A 
ATOM      6  C   UNL d   1      33.149  19.326 -21.858  0.00  0.00     0.019 A 
ATOM      7  O   UNL d   1      32.471  19.692 -24.493  0.00  0.00    -0.267 OA
ATOM      8  C   UNL d   1      32.938  18.030 -22.525  0.00  0.00     0.019 C 
ATOM      9  C   UNL d   1      32.824  20.866 -23.272  0.00  0.00     0.018 A 
ATOM     10  C   UNL d   1      33.240  20.807 -21.673  0.00  0.00     0.002 A 
ATOM     11  C   UNL d   1      32.951  21.564 -22.864  0.00  0.00     0.002 A 
ATOM     12  C   UNL d   1      33.161  21.547 -22.058  0.00  0.00     0.000 A 
ENDROOT
BRANCH   3  13
ATOM     13  C   UNL d   1      32.536  18.325 -24.092  0.00  0.00     0.080 C 
BRANCH  13  14
ATOM     14  C   UNL d   1      32.249  18.088 -24.825  0.00  0.00     0.088 C 
BRANCH  14  15
ATOM     15  N   UNL d   1      31.919  17.339 -24.919  0.00  0.00    -0.268 N 
ATOM     16  C   UNL d   1      32.333  16.634 -25.009  0.00  0.00     0.296 A 
ATOM     17  S   UNL d   1      31.746  16.015 -25.087  0.00  0.00    -0.025 SA
ATOM     18  O   UNL d   1      33.154  16.554 -25.020  0.00  0.00    -0.259 OA
ATOM     19  C   UNL d   1      31.030  16.353 -25.044  0.00  0.00     0.050 A 
ATOM     20  C   UNL d   1      30.274  16.015 -25.086  0.00  0.00     0.008 A 
ATOM     21  C   UNL d   1      31.111  17.168 -24.941  0.00  0.00     0.073 A 
ATOM     22  C   UNL d   1      29.600  16.494 -25.025  0.00  0.00     0.001 A 
ATOM     23  C   UNL d   1      29.693  17.307 -24.922  0.00  0.00     0.002 A 
ATOM     24  C   UNL d   1      30.449  17.642 -24.880  0.00  0.00     0.018 A 
ENDBRANCH  14  15
ENDBRANCH  13  14
ENDBRANCH   3  13
TORSDOF 3
ENDMDL
MODEL 2
REMARK VINA RESULT:      -1.4      1.342      2.456
REMARK  3 active torsions:
REMARK  status: ('A' for Active; 'I' for Inactive)
REMARK    1  A    between atoms: C_10  and  N_2 
REMARK       I    between atoms: N_3  and  C_6 
REMARK    2  A    between atoms: C_6  and  C_11 
REMARK    3  A    between atoms: C_11  and  C_10 
ROOT
ATOM      1  N   UNL d   1      33.094  20.988 -22.075  0.00  0.00    -0.275 N 
ATOM      2  C   UNL d   1      33.030  21.604 -22.619  0.00  0.00     0.067 A 
ATOM      3  C   UNL d   1      33.111  20.187 -22.252  0.00  0.00     0.266 C 
ATOM      4  C   UNL d   1      33.137  21.329 -21.323  0.00  0.00     0.067 A 
ATOM      5  C   UNL d   1      33.100  22.139 -21.403  0.00  0.00     0.018 A 
ATOM      6  C   UNL d   1      33.034  22.315 -22.211  0.00  0.00     0.019 A 
ATOM      7  O   UNL d   1      33.177  19.633 -21.643  0.00  0.00    -0.267 OA
ATOM      8  C   UNL d   1      32.972  21.518 -23.448  0.00  0.00     0.019 C 
ATOM      9  C   UNL d   1      33.205  20.991 -20.570  0.00  0.00     0.018 A 
ATOM     10  C   UNL d   1      33.129  22.632 -20.753  0.00  0.00     0.002 A 
ATOM     11  C   UNL d   1      33.236  21.470 -19.908  0.00  0.00     0.002 A 
ATOM     12  C   UNL d   1      33.199  22.298 -19.988  0.00  0.00     0.000 A 
ENDROOT
BRANCH   3  13
ATOM     13  C   UNL d   1      33.063  19.929 -23.034  0.00  0.00     0.080 C 
BRANCH  13  14
ATOM     14  C   UNL d   1      33.241  19.151 -23.230  0.00  0.00     0.088 C 
BRANCH  14  15
ATOM     15  N   UNL d   1      32.869  18.788 -23.868  0.00  0.00    -0.268 N 
ATOM     16  C   UNL d   1      32.867  19.055 -24.645  0.00  0.00     0.296 A 
ATOM     17  S   UNL d   1      32.408  18.489 -25.097  0.00  0.00    -0.025 SA
ATOM     18  O   UNL d   1      33.240  19.737 -24.922  0.00  0.00    -0.259 OA
ATOM     19  C   UNL d   1      32.160  17.926 -24.597  0.00  0.00     0.050 A 
ATOM     20  C   UNL d   1      31.699  17.251 -24.739  0.00  0.00     0.008 A 
ATOM     21  C   UNL d   1      32.431  18.088 -23.835  0.00  0.00     0.073 A 
ATOM     22  C   UNL d   1      31.511  16.738 -24.114  0.00  0.00     0.001 A 
ATOM     23  C   UNL d   1      31.788  16.910 -23.356  0.00  0.00     0.002 A 
ATOM     24  C   UNL d   1      32.247  17.585 -23.219  0.00  0.00     0.018 A 
ENDBRANCH  14  15
ENDBRANCH  13  14
ENDBRANCH   3  13
TORSDOF 3
ENDMDL
MODEL 3
REMARK VINA RESULT:      -0.9      1.778      4.792
REMARK  3 active torsions:
REMARK  status: ('A' for Active; 'I' for Inactive)
REMARK    1  A    between atoms: C_10  and  N_2 
REMARK       I    between atoms: N_3  and  C_6 
REMARK    2  A    between atoms: C_6  and  C_11 
REMARK    3  A    between atoms: C_11  and  C_10 
ROOT
ATOM      1  N   UNL d   1      32.461  17.880 -23.648  0.00  0.00    -0.275 N 
ATOM      2  C   UNL d   1      32.032  18.158 -24.294  0.00  0.00     0.067 A 
ATOM      3  C   UNL d   1      32.830  18.340 -23.078  0.00  0.00     0.266 C 
ATOM      4  C   UNL d   1      32.448  17.053 -23.684  0.00  0.00     0.067 A 
ATOM      5  C   UNL d   1      32.019  16.829 -24.340  0.00  0.00     0.018 A 
ATOM      6  C   UNL d   1      31.758  17.517 -24.724  0.00  0.00     0.019 A 
ATOM      7  O   UNL d   1      33.241  17.977 -22.460  0.00  0.00    -0.267 OA
ATOM      8  C   UNL d   1      31.899  18.962 -24.481  0.00  0.00     0.019 C 
ATOM      9  C   UNL d   1      32.780  16.478 -23.190  0.00  0.00     0.018 A 
ATOM     10  C   UNL d   1      31.907  16.042 -24.525  0.00  0.00     0.002 A 
ATOM     11  C   UNL d   1      32.677  15.684 -23.362  0.00  0.00     0.002 A 
ATOM     12  C   UNL d   1      32.239  15.453 -24.032  0.00  0.00     0.000 A 
ENDROOT
BRANCH   3  13
ATOM     13  C   UNL d   1      32.795  19.163 -23.116  0.00  0.00     0.080 C 
BRANCH  13  14
ATOM     14  C   UNL d   1      33.238  19.625 -22.601  0.00  0.00     0.088 C 
BRANCH  14  15
ATOM     15  N   UNL d   1      33.078  20.429 -22.521  0.00  0.00    -0.268 N 
ATOM     16  C   UNL d   1      33.079  20.986 -23.126  0.00  0.00     0.296 A 
ATOM     17  S   UNL d   1      32.882  21.738 -22.765  0.00  0.00    -0.025 SA
ATOM     18  O   UNL d   1      33.241  20.836 -23.921  0.00  0.00    -0.259 OA
ATOM     19  C   UNL d   1      32.773  21.613 -21.989  0.00  0.00     0.050 A 
ATOM     20  C   UNL d   1      32.574  22.144 -21.384  0.00  0.00     0.008 A 
ATOM     21  C   UNL d   1      32.889  20.814 -21.816  0.00  0.00     0.073 A 
ATOM     22  C   UNL d   1      32.492  21.873 -20.604  0.00  0.00     0.001 A 
ATOM     23  C   UNL d   1      32.610  21.072 -20.442  0.00  0.00     0.002 A 
ATOM     24  C   UNL d   1      32.809  20.545 -21.049  0.00  0.00     0.018 A 
ENDBRANCH  14  15
ENDBRANCH  13  14
ENDBRANCH   3  13
TORSDOF 3
ENDMDL
MODEL 4
REMARK VINA RESULT:      -0.9      1.751      4.700
REMARK  3 active torsions:
REMARK  status: ('A' for Active; 'I' for Inactive)
REMARK    1  A    between atoms: C_10  and  N_2 
REMARK       I    between atoms: N_3  and  C_6 
REMARK    2  A    between atoms: C_6  and  C_11 
REMARK    3  A    between atoms: C_11  and  C_10 
ROOT
ATOM      1  N   UNL d   1      29.510  16.541 -23.922  0.00  0.00    -0.275 N 
ATOM      2  C   UNL d   1      29.270  17.003 -24.560  0.00  0.00     0.067 A 
ATOM      3  C   UNL d   1      30.282  16.434 -23.665  0.00  0.00     0.266 C 
ATOM      4  C   UNL d   1      28.828  16.207 -23.591  0.00  0.00     0.067 A 
ATOM      5  C   UNL d   1      28.183  16.461 -24.020  0.00  0.00     0.018 A 
ATOM      6  C   UNL d   1      28.455  16.958 -24.626  0.00  0.00     0.019 A 
ATOM      7  O   UNL d   1      30.434  15.951 -23.013  0.00  0.00    -0.267 OA
ATOM      8  C   UNL d   1      29.775  17.445 -25.059  0.00  0.00     0.019 C 
ATOM      9  C   UNL d   1      28.724  15.700 -22.946  0.00  0.00     0.018 A 
ATOM     10  C   UNL d   1      27.426  16.223 -23.826  0.00  0.00     0.002 A 
ATOM     11  C   UNL d   1      27.972  15.453 -22.738  0.00  0.00     0.002 A 
ATOM     12  C   UNL d   1      27.311  15.710 -23.175  0.00  0.00     0.000 A 
ENDROOT
BRANCH   3  13
ATOM     13  C   UNL d   1      30.908  16.805 -24.053  0.00  0.00     0.080 C 
BRANCH  13  14
ATOM     14  C   UNL d   1      31.643  16.871 -23.692  0.00  0.00     0.088 C 
BRANCH  14  15
ATOM     15  N   UNL d   1      32.204  17.397 -23.985  0.00  0.00    -0.268 N 
ATOM     16  C   UNL d   1      32.702  17.269 -24.627  0.00  0.00     0.296 A 
ATOM     17  S   UNL d   1      33.180  17.977 -24.710  0.00  0.00    -0.025 SA
ATOM     18  O   UNL d   1      32.727  16.587 -25.091  0.00  0.00    -0.259 OA
ATOM     19  C   UNL d   1      32.962  18.484 -24.140  0.00  0.00     0.050 A 
ATOM     20  C   UNL d   1      33.241  19.245 -23.967  0.00  0.00     0.008 A 
ATOM     21  C   UNL d   1      32.363  18.149 -23.682  0.00  0.00     0.073 A 
ATOM     22  C   UNL d   1      32.918  19.671 -23.331  0.00  0.00     0.001 A 
ATOM     23  C   UNL d   1      32.320  19.326 -22.880  0.00  0.00     0.002 A 
ATOM     24  C   UNL d   1      32.044  18.566 -23.056  0.00  0.00     0.018 A 
ENDBRANCH  14  15
ENDBRANCH  13  14
ENDBRANCH   3  13
TORSDOF 3
ENDMDL
MODEL 5
REMARK VINA RESULT:      -0.4      2.085      3.642
REMARK  3 active torsions:
REMARK  status: ('A' for Active; 'I' for Inactive)
REMARK    1  A    between atoms: C_10  and  N_2 
REMARK       I    between atoms: N_3  and  C_6 
REMARK    2  A    between atoms: C_6  and  C_11 
REMARK    3  A    between atoms: C_11  and  C_10 
ROOT
ATOM      1  N   UNL d   1      32.660  21.967 -21.148  0.00  0.00    -0.275 N 
ATOM      2  C   UNL d   1      32.361  22.494 -21.707  0.00  0.00     0.067 A 
ATOM      3  C   UNL d   1      32.880  21.189 -21.285  0.00  0.00     0.266 C 
ATOM      4  C   UNL d   1      32.694  22.371 -20.426  0.00  0.00     0.067 A 
ATOM      5  C   UNL d   1      32.422  23.131 -20.541  0.00  0.00     0.018 A 
ATOM      6  C   UNL d   1      32.213  23.211 -21.340  0.00  0.00     0.019 A 
ATOM      7  O   UNL d   1      33.171  20.729 -20.664  0.00  0.00    -0.267 OA
ATOM      8  C   UNL d   1      32.231  22.324 -22.515  0.00  0.00     0.019 C 
ATOM      9  C   UNL d   1      32.945  22.130 -19.675  0.00  0.00     0.018 A 
ATOM     10  C   UNL d   1      32.390  23.667 -19.926  0.00  0.00     0.002 A 
ATOM     11  C   UNL d   1      32.918  22.655 -19.048  0.00  0.00     0.002 A 
ATOM     12  C   UNL d   1      32.641  23.432 -19.163  0.00  0.00     0.000 A 
ENDROOT
BRANCH   3  13
ATOM     13  C   UNL d   1      32.813  20.862 -22.039  0.00  0.00     0.080 C 
BRANCH  13  14
ATOM     14  C   UNL d   1      33.240  20.190 -22.242  0.00  0.00     0.088 C 
BRANCH  14  15
ATOM     15  N   UNL d   1      33.095  19.805 -22.955  0.00  0.00    -0.268 N 
ATOM     16  C   UNL d   1      33.095  20.150 -23.702  0.00  0.00     0.296 A 
ATOM     17  S   UNL d   1      32.915  19.524 -24.260  0.00  0.00    -0.025 SA
ATOM     18  O   UNL d   1      33.241  20.945 -23.867  0.00  0.00    -0.259 OA
ATOM     19  C   UNL d   1      32.817  18.853 -23.847  0.00  0.00     0.050 A 
ATOM     20  C   UNL d   1      32.636  18.087 -24.107  0.00  0.00     0.008 A 
ATOM     21  C   UNL d   1      32.923  19.001 -23.043  0.00  0.00     0.073 A 
ATOM     22  C   UNL d   1      32.562  17.469 -23.559  0.00  0.00     0.001 A 
ATOM     23  C   UNL d   1      32.670  17.628 -22.757  0.00  0.00     0.002 A 
ATOM     24  C   UNL d   1      32.851  18.395 -22.501  0.00  0.00     0.018 A 
ENDBRANCH  14  15
ENDBRANCH  13  14
ENDBRANCH   3  13
TORSDOF 3
ENDMDL
MODEL 6
REMARK VINA RESULT:       0.7      2.869      5.739
REMARK  3 active torsions:
REMARK  status: ('A' for Active; 'I' for Inactive)
REMARK    1  A    between atoms: C_10  and  N_2 
REMARK       I    between atoms: N_3  and  C_6 
REMARK    2  A    between atoms: C_6  and  C_11 
REMARK    3  A    between atoms: C_11  and  C_10 
ROOT
ATOM      1  N   UNL d   1      32.966  19.830 -22.577  0.00  0.00    -0.275 N 
ATOM      2  C   UNL d   1      32.870  20.190 -23.311  0.00  0.00     0.067 A 
ATOM      3  C   UNL d   1      32.975  20.208 -21.849  0.00  0.00     0.266 C 
ATOM      4  C   UNL d   1      33.050  19.017 -22.713  0.00  0.00     0.067 A 
ATOM      5  C   UNL d   1      33.007  18.884 -23.516  0.00  0.00     0.018 A 
ATOM      6  C   UNL d   1      32.894  19.614 -23.893  0.00  0.00     0.019 A 
ATOM      7  O   UNL d   1      33.077  19.767 -21.158  0.00  0.00    -0.267 OA
ATOM      8  C   UNL d   1      32.765  21.010 -23.441  0.00  0.00     0.019 C 
ATOM      9  C   UNL d   1      33.162  18.383 -22.193  0.00  0.00     0.018 A 
ATOM     10  C   UNL d   1      33.072  18.131 -23.824  0.00  0.00     0.002 A 
ATOM     11  C   UNL d   1      33.229  17.622 -22.486  0.00  0.00     0.002 A 
ATOM     12  C   UNL d   1      33.185  17.483 -23.306  0.00  0.00     0.000 A 
ENDROOT
BRANCH   3  13
ATOM     13  C   UNL d   1      32.884  21.026 -21.801  0.00  0.00     0.080 C 
BRANCH  13  14
ATOM     14  C   UNL d   1      33.240  21.452 -21.195  0.00  0.00     0.088 C 
BRANCH  14  15
ATOM     15  N   UNL d   1      32.928  22.176 -20.957  0.00  0.00    -0.268 N 
ATOM     16  C   UNL d   1      32.552  22.725 -21.441  0.00  0.00     0.296 A 
ATOM     17  S   UNL d   1      32.330  23.382 -20.937  0.00  0.00    -0.025 SA
ATOM     18  O   UNL d   1      32.419  22.644 -22.251  0.00  0.00    -0.259 OA
ATOM     19  C   UNL d   1      32.571  23.214 -20.201  0.00  0.00     0.050 A 
ATOM     20  C   UNL d   1      32.500  23.654 -19.501  0.00  0.00     0.008 A 
ATOM     21  C   UNL d   1      32.942  22.477 -20.188  0.00  0.00     0.073 A 
ATOM     22  C   UNL d   1      32.802  23.354 -18.789  0.00  0.00     0.001 A 
ATOM     23  C   UNL d   1      33.170  22.616 -18.789  0.00  0.00     0.002 A 
ATOM     24  C   UNL d   1      33.239  22.179 -19.489  0.00  0.00     0.018 A 
ENDBRANCH  14  15
ENDBRANCH  13  14
ENDBRANCH   3  13
TORSDOF 3
ENDMDL
