MODEL 1
REMARK VINA RESULT:      68.0      0.000      0.000
REMARK  5 active torsions:
REMARK  status: ('A' for Active; 'I' for Inactive)
REMARK    1  A    between atoms: C_11  and  C_5 
REMARK    2  A    between atoms: C_25  and  N_6 
REMARK    3  A    between atoms: N_14  and  C_27 
REMARK    4  A    between atoms: C_26  and  C_25 
REMARK    5  A    between atoms: C_27  and  C_26 
ROOT
ATOM      1  C   UNL d   1     -57.298 -98.876 -44.270  0.00  0.00     0.082 A 
ATOM      2  C   UNL d   1     -56.520 -98.908 -43.991  0.00  0.00     0.267 A 
ATOM      3  C   UNL d   1     -57.453 -98.806 -45.080  0.00  0.00     0.108 A 
ATOM      4  C   UNL d   1     -58.710 -98.883 -44.004  0.00  0.00     0.113 A 
ATOM      5  C   UNL d   1     -57.927 -98.915 -43.722  0.00  0.00     0.043 A 
ATOM      6  N   UNL d   1     -55.900 -98.869 -44.537  0.00  0.00    -0.273 N 
ATOM      7  C   UNL d   1     -58.861 -98.813 -44.811  0.00  0.00     0.213 A 
ATOM      8  O   UNL d   1     -58.230 -98.774 -45.350  0.00  0.00    -0.287 OA
ATOM      9  C   UNL d   1     -56.831 -98.768 -45.613  0.00  0.00     0.043 A 
ATOM     10  C   UNL d   1     -56.055 -98.799 -45.347  0.00  0.00     0.069 A 
ATOM     11  C   UNL d   1     -59.332 -98.921 -43.466  0.00  0.00     0.105 C 
ATOM     12  N   UNL d   1     -59.954 -98.960 -42.929  0.00  0.00    -0.191 NA
ATOM     13  O   UNL d   1     -56.365 -98.978 -43.180  0.00  0.00    -0.267 OA
ATOM     14  N   UNL d   1     -59.639 -98.781 -45.089  0.00  0.00    -0.120 N 
ATOM     15  C   UNL d   1     -55.420 -98.760 -45.888  0.00  0.00     0.019 C 
ENDROOT
BRANCH   5  16
ATOM     16  C   UNL d   1     -57.777 -98.985 -42.914  0.00  0.00     0.101 A 
ATOM     17  O   UNL d   1     -57.089 -99.267 -42.575  0.00  0.00    -0.305 OA
ATOM     18  C   UNL d   1     -57.176 -99.241 -41.754  0.00  0.00     0.123 A 
ATOM     19  C   UNL d   1     -57.927 -98.939 -41.592  0.00  0.00     0.029 A 
ATOM     20  C   UNL d   1     -58.304 -98.779 -42.304  0.00  0.00     0.027 A 
ENDBRANCH   5  16
BRANCH   6  21
ATOM     21  C   UNL d   1     -55.109 -98.901 -44.261  0.00  0.00     0.085 C 
BRANCH  21  22
ATOM     22  C   UNL d   1     -54.716 -99.626 -44.219  0.00  0.00     0.038 C 
BRANCH  22  23
ATOM     23  C   UNL d   1     -54.712-100.128 -44.873  0.00  0.00     0.083 C 
BRANCH  23  24
ATOM     24  N   UNL d   1     -54.739-100.948 -44.772  0.00  0.00    -0.285 N 
ATOM     25  C   UNL d   1     -54.798-101.512 -45.366  0.00  0.00     0.183 A 
ATOM     26  N   UNL d   1     -54.807-102.255 -45.013  0.00  0.00    -0.222 NA
ATOM     27  C   UNL d   1     -54.754-102.154 -44.198  0.00  0.00     0.120 A 
ATOM     28  C   UNL d   1     -54.712-101.353 -44.048  0.00  0.00     0.102 A 
ENDBRANCH  23  24
ENDBRANCH  22  23
ENDBRANCH  21  22
ENDBRANCH   6  21
TORSDOF 5
ENDMDL
