MODEL 1
REMARK VINA RESULT:      -7.4      0.000      0.000
REMARK  4 active torsions:
REMARK  status: ('A' for Active; 'I' for Inactive)
REMARK    1  A    between atoms: C_11  and  C_4 
REMARK    2  A    between atoms: N_10  and  C_5 
REMARK    3  A    between atoms: C_15  and  N_10 
REMARK    4  A    between atoms: C_16  and  C_15 
ROOT
ATOM      1  N   UNL d   1      51.648  34.400  53.379  0.00  0.00    -0.195 N 
ATOM      2  C   UNL d   1      52.236  33.888  53.634  0.00  0.00     0.167 A 
ATOM      3  N   UNL d   1      51.881  35.159  53.573  0.00  0.00    -0.163 NA
ATOM      4  C   UNL d   1      52.828  34.334  53.983  0.00  0.00     0.055 A 
ATOM      5  C   UNL d   1      50.981  34.100  53.004  0.00  0.00     0.167 A 
ATOM      6  C   UNL d   1      52.612  35.108  53.947  0.00  0.00     0.104 A 
ATOM      7  N   UNL d   1      52.159  33.075  53.515  0.00  0.00    -0.227 NA
ATOM      8  C   UNL d   1      50.901  33.281  52.883  0.00  0.00     0.058 A 
ATOM      9  C   UNL d   1      51.482  32.775  53.135  0.00  0.00     0.086 A 
ATOM     10  C   UNL d   1      53.057  35.743  54.238  0.00  0.00     0.023 C 
ATOM     11  C   UNL d   1      51.396  31.948  53.011  0.00  0.00     0.021 C 
ENDROOT
BRANCH   5  12
ATOM     12  N   UNL d   1      50.387  34.618  52.747  0.00  0.00    -0.224 NA
BRANCH  12  13
ATOM     13  C   UNL d   1      49.628  34.335  52.617  0.00  0.00     0.120 C 
BRANCH  13  14
ATOM     14  C   UNL d   1      49.017  34.864  52.437  0.00  0.00     0.101 A 
ATOM     15  N   UNL d   1      48.738  35.393  53.017  0.00  0.00    -0.242 NA
ATOM     16  C   UNL d   1      48.130  35.919  52.838  0.00  0.00     0.099 A 
ATOM     17  C   UNL d   1      47.797  35.920  52.077  0.00  0.00     0.021 A 
ATOM     18  C   UNL d   1      48.071  35.397  51.504  0.00  0.00     0.003 A 
ATOM     19  C   UNL d   1      48.680  34.871  51.684  0.00  0.00     0.021 A 
ENDBRANCH  13  14
ENDBRANCH  12  13
ENDBRANCH   5  12
BRANCH   4  20
ATOM     20  C   UNL d   1      53.550  34.120  54.337  0.00  0.00     0.004 A 
ATOM     21  C   UNL d   1      54.223  34.008  53.874  0.00  0.00     0.001 A 
ATOM     22  C   UNL d   1      54.940  33.796  54.222  0.00  0.00     0.011 A 
ATOM     23  C   UNL d   1      54.980  33.696  55.040  0.00  0.00     0.058 A 
ATOM     24  C   UNL d   1      54.302  33.808  55.507  0.00  0.00     0.011 A 
ATOM     25 CL   UNL d   1      55.711  33.480  55.392  0.00  0.00    -0.082 Cl
ATOM     26  C   UNL d   1      53.589  34.020  55.156  0.00  0.00     0.001 A 
ENDBRANCH   4  20
TORSDOF 4
ENDMDL
MODEL 2
REMARK VINA RESULT:      -6.9      2.464      3.785
REMARK  4 active torsions:
REMARK  status: ('A' for Active; 'I' for Inactive)
REMARK    1  A    between atoms: C_11  and  C_4 
REMARK    2  A    between atoms: N_10  and  C_5 
REMARK    3  A    between atoms: C_15  and  N_10 
REMARK    4  A    between atoms: C_16  and  C_15 
ROOT
ATOM      1  N   UNL d   1      52.924  32.016  53.273  0.00  0.00    -0.195 N 
ATOM      2  C   UNL d   1      53.292  31.531  53.822  0.00  0.00     0.167 A 
ATOM      3  N   UNL d   1      52.516  31.535  52.754  0.00  0.00    -0.163 NA
ATOM      4  C   UNL d   1      53.108  30.754  53.639  0.00  0.00     0.055 A 
ATOM      5  C   UNL d   1      53.015  32.831  53.324  0.00  0.00     0.167 A 
ATOM      6  C   UNL d   1      52.636  30.755  52.988  0.00  0.00     0.104 A 
ATOM      7  N   UNL d   1      53.750  31.859  54.425  0.00  0.00    -0.227 NA
ATOM      8  C   UNL d   1      53.477  33.165  53.930  0.00  0.00     0.058 A 
ATOM      9  C   UNL d   1      53.840  32.685  54.474  0.00  0.00     0.086 A 
ATOM     10  C   UNL d   1      52.325  30.082  52.621  0.00  0.00     0.023 C 
ATOM     11  C   UNL d   1      54.305  33.026  55.085  0.00  0.00     0.021 C 
ENDROOT
BRANCH   5  12
ATOM     12  N   UNL d   1      52.643  33.321  52.768  0.00  0.00    -0.224 NA
BRANCH  12  13
ATOM     13  C   UNL d   1      52.219  33.976  53.021  0.00  0.00     0.120 C 
BRANCH  13  14
ATOM     14  C   UNL d   1      51.500  34.167  52.657  0.00  0.00     0.101 A 
ATOM     15  N   UNL d   1      51.453  34.217  51.827  0.00  0.00    -0.242 NA
ATOM     16  C   UNL d   1      50.738  34.406  51.465  0.00  0.00     0.099 A 
ATOM     17  C   UNL d   1      50.065  34.547  51.930  0.00  0.00     0.021 A 
ATOM     18  C   UNL d   1      50.111  34.498  52.750  0.00  0.00     0.003 A 
ATOM     19  C   UNL d   1      50.827  34.308  53.112  0.00  0.00     0.021 A 
ENDBRANCH  13  14
ENDBRANCH  12  13
ENDBRANCH   5  12
BRANCH   4  20
ATOM     20  C   UNL d   1      53.320  30.033  53.997  0.00  0.00     0.004 A 
ATOM     21  C   UNL d   1      52.892  29.745  54.639  0.00  0.00     0.001 A 
ATOM     22  C   UNL d   1      53.100  29.031  54.996  0.00  0.00     0.011 A 
ATOM     23  C   UNL d   1      53.744  28.604  54.703  0.00  0.00     0.058 A 
ATOM     24  C   UNL d   1      54.175  28.894  54.056  0.00  0.00     0.011 A 
ATOM     25 CL   UNL d   1      53.954  27.878  55.067  0.00  0.00    -0.082 Cl
ATOM     26  C   UNL d   1      53.964  29.607  53.703  0.00  0.00     0.001 A 
ENDBRANCH   4  20
TORSDOF 4
ENDMDL
MODEL 3
REMARK VINA RESULT:      -6.5      2.581      5.859
REMARK  4 active torsions:
REMARK  status: ('A' for Active; 'I' for Inactive)
REMARK    1  A    between atoms: C_11  and  C_4 
REMARK    2  A    between atoms: N_10  and  C_5 
REMARK    3  A    between atoms: C_15  and  N_10 
REMARK    4  A    between atoms: C_16  and  C_15 
ROOT
ATOM      1  N   UNL d   1      49.067  35.215  52.886  0.00  0.00    -0.195 N 
ATOM      2  C   UNL d   1      48.362  35.252  52.467  0.00  0.00     0.167 A 
ATOM      3  N   UNL d   1      48.962  35.630  53.581  0.00  0.00    -0.163 NA
ATOM      4  C   UNL d   1      47.827  35.689  52.908  0.00  0.00     0.055 A 
ATOM      5  C   UNL d   1      49.706  34.807  52.571  0.00  0.00     0.167 A 
ATOM      6  C   UNL d   1      48.192  35.920  53.586  0.00  0.00     0.104 A 
ATOM      7  N   UNL d   1      48.294  34.880  51.733  0.00  0.00    -0.227 NA
ATOM      8  C   UNL d   1      49.641  34.431  51.832  0.00  0.00     0.058 A 
ATOM      9  C   UNL d   1      48.944  34.467  51.418  0.00  0.00     0.086 A 
ATOM     10  C   UNL d   1      47.844  36.374  54.186  0.00  0.00     0.023 C 
ATOM     11  C   UNL d   1      48.883  34.086  50.672  0.00  0.00     0.021 C 
ENDROOT
BRANCH   5  12
ATOM     12  N   UNL d   1      50.418  34.769  52.994  0.00  0.00    -0.224 NA
BRANCH  12  13
ATOM     13  C   UNL d   1      51.015  34.266  52.744  0.00  0.00     0.120 C 
BRANCH  13  14
ATOM     14  C   UNL d   1      51.728  34.232  53.163  0.00  0.00     0.101 A 
ATOM     15  N   UNL d   1      51.881  33.593  53.675  0.00  0.00    -0.242 NA
ATOM     16  C   UNL d   1      52.591  33.560  54.092  0.00  0.00     0.099 A 
ATOM     17  C   UNL d   1      53.152  34.165  54.001  0.00  0.00     0.021 A 
ATOM     18  C   UNL d   1      53.001  34.796  53.495  0.00  0.00     0.003 A 
ATOM     19  C   UNL d   1      52.291  34.830  53.078  0.00  0.00     0.021 A 
ENDBRANCH  13  14
ENDBRANCH  12  13
ENDBRANCH   5  12
BRANCH   4  20
ATOM     20  C   UNL d   1      47.037  35.907  52.765  0.00  0.00     0.004 A 
ATOM     21  C   UNL d   1      46.423  35.543  53.178  0.00  0.00     0.001 A 
ATOM     22  C   UNL d   1      45.639  35.757  53.039  0.00  0.00     0.011 A 
ATOM     23  C   UNL d   1      45.471  36.342  52.481  0.00  0.00     0.058 A 
ATOM     24  C   UNL d   1      46.089  36.709  52.065  0.00  0.00     0.011 A 
ATOM     25 CL   UNL d   1      44.672  36.558  52.341  0.00  0.00    -0.082 Cl
ATOM     26  C   UNL d   1      46.870  36.493  52.207  0.00  0.00     0.001 A 
ENDBRANCH   4  20
TORSDOF 4
ENDMDL
MODEL 4
REMARK VINA RESULT:      -6.3     10.129     11.284
REMARK  4 active torsions:
REMARK  status: ('A' for Active; 'I' for Inactive)
REMARK    1  A    between atoms: C_11  and  C_4 
REMARK    2  A    between atoms: N_10  and  C_5 
REMARK    3  A    between atoms: C_15  and  N_10 
REMARK    4  A    between atoms: C_16  and  C_15 
ROOT
ATOM      1  N   UNL d   1      44.613  29.309  59.735  0.00  0.00    -0.195 N 
ATOM      2  C   UNL d   1      44.777  29.123  58.953  0.00  0.00     0.167 A 
ATOM      3  N   UNL d   1      44.502  28.606  60.137  0.00  0.00    -0.163 NA
ATOM      4  C   UNL d   1      44.767  28.307  58.878  0.00  0.00     0.055 A 
ATOM      5  C   UNL d   1      44.587  30.095  59.970  0.00  0.00     0.167 A 
ATOM      6  C   UNL d   1      44.599  27.992  59.598  0.00  0.00     0.104 A 
ATOM      7  N   UNL d   1      44.917  29.723  58.404  0.00  0.00    -0.227 NA
ATOM      8  C   UNL d   1      44.728  30.703  59.418  0.00  0.00     0.058 A 
ATOM      9  C   UNL d   1      44.890  30.519  58.645  0.00  0.00     0.086 A 
ATOM     10  C   UNL d   1      44.537  27.183  59.764  0.00  0.00     0.023 C 
ATOM     11  C   UNL d   1      45.031  31.135  58.092  0.00  0.00     0.021 C 
ENDROOT
BRANCH   5  12
ATOM     12  N   UNL d   1      44.421  30.283  60.760  0.00  0.00    -0.224 NA
BRANCH  12  13
ATOM     13  C   UNL d   1      44.944  30.750  61.187  0.00  0.00     0.120 C 
BRANCH  13  14
ATOM     14  C   UNL d   1      44.734  31.018  61.942  0.00  0.00     0.101 A 
ATOM     15  N   UNL d   1      44.629  31.832  62.080  0.00  0.00    -0.242 NA
ATOM     16  C   UNL d   1      44.420  32.099  62.832  0.00  0.00     0.099 A 
ATOM     17  C   UNL d   1      44.315  31.553  63.448  0.00  0.00     0.021 A 
ATOM     18  C   UNL d   1      44.419  30.749  63.311  0.00  0.00     0.003 A 
ATOM     19  C   UNL d   1      44.628  30.482  62.560  0.00  0.00     0.021 A 
ENDBRANCH  13  14
ENDBRANCH  12  13
ENDBRANCH   5  12
BRANCH   4  20
ATOM     20  C   UNL d   1      44.893  27.808  58.224  0.00  0.00     0.004 A 
ATOM     21  C   UNL d   1      44.314  27.728  57.643  0.00  0.00     0.001 A 
ATOM     22  C   UNL d   1      44.436  27.233  56.994  0.00  0.00     0.011 A 
ATOM     23  C   UNL d   1      45.146  26.817  56.931  0.00  0.00     0.058 A 
ATOM     24  C   UNL d   1      45.730  26.896  57.516  0.00  0.00     0.011 A 
ATOM     25 CL   UNL d   1      45.269  26.314  56.269  0.00  0.00    -0.082 Cl
ATOM     26  C   UNL d   1      45.604  27.391  58.161  0.00  0.00     0.001 A 
ENDBRANCH   4  20
TORSDOF 4
ENDMDL
MODEL 5
REMARK VINA RESULT:      -5.5      2.382      4.727
REMARK  4 active torsions:
REMARK  status: ('A' for Active; 'I' for Inactive)
REMARK    1  A    between atoms: C_11  and  C_4 
REMARK    2  A    between atoms: N_10  and  C_5 
REMARK    3  A    between atoms: C_15  and  N_10 
REMARK    4  A    between atoms: C_16  and  C_15 
ROOT
ATOM      1  N   UNL d   1      53.314  32.216  53.691  0.00  0.00    -0.195 N 
ATOM      2  C   UNL d   1      52.963  32.957  53.686  0.00  0.00     0.167 A 
ATOM      3  N   UNL d   1      54.015  32.278  54.105  0.00  0.00    -0.163 NA
ATOM      4  C   UNL d   1      53.450  33.472  54.097  0.00  0.00     0.055 A 
ATOM      5  C   UNL d   1      52.942  31.587  53.316  0.00  0.00     0.167 A 
ATOM      6  C   UNL d   1      54.091  33.060  54.353  0.00  0.00     0.104 A 
ATOM      7  N   UNL d   1      52.239  33.072  53.305  0.00  0.00    -0.227 NA
ATOM      8  C   UNL d   1      52.213  31.699  52.932  0.00  0.00     0.058 A 
ATOM      9  C   UNL d   1      51.866  32.432  52.926  0.00  0.00     0.086 A 
ATOM     10  C   UNL d   1      54.719  33.375  54.791  0.00  0.00     0.023 C 
ATOM     11  C   UNL d   1      51.129  32.540  52.537  0.00  0.00     0.021 C 
ENDROOT
BRANCH   5  12
ATOM     12  N   UNL d   1      53.297  30.837  53.322  0.00  0.00    -0.224 NA
BRANCH  12  13
ATOM     13  C   UNL d   1      52.838  30.170  53.455  0.00  0.00     0.120 C 
BRANCH  13  14
ATOM     14  C   UNL d   1      53.139  29.549  53.914  0.00  0.00     0.101 A 
ATOM     15  N   UNL d   1      52.716  29.281  54.580  0.00  0.00    -0.242 NA
ATOM     16  C   UNL d   1      53.015  28.663  55.037  0.00  0.00     0.099 A 
ATOM     17  C   UNL d   1      53.738  28.310  54.830  0.00  0.00     0.021 A 
ATOM     18  C   UNL d   1      54.155  28.576  54.172  0.00  0.00     0.003 A 
ATOM     19  C   UNL d   1      53.856  29.193  53.716  0.00  0.00     0.021 A 
ENDBRANCH  13  14
ENDBRANCH  12  13
ENDBRANCH   5  12
BRANCH   4  20
ATOM     20  C   UNL d   1      53.381  34.283  54.270  0.00  0.00     0.004 A 
ATOM     21  C   UNL d   1      53.574  34.848  53.701  0.00  0.00     0.001 A 
ATOM     22  C   UNL d   1      53.507  35.653  53.869  0.00  0.00     0.011 A 
ATOM     23  C   UNL d   1      53.245  35.890  54.615  0.00  0.00     0.058 A 
ATOM     24  C   UNL d   1      53.051  35.321  55.188  0.00  0.00     0.011 A 
ATOM     25 CL   UNL d   1      53.177  36.709  54.785  0.00  0.00    -0.082 Cl
ATOM     26  C   UNL d   1      53.119  34.520  55.016  0.00  0.00     0.001 A 
ENDBRANCH   4  20
TORSDOF 4
ENDMDL
MODEL 6
REMARK VINA RESULT:      -5.3      1.590      2.479
REMARK  4 active torsions:
REMARK  status: ('A' for Active; 'I' for Inactive)
REMARK    1  A    between atoms: C_11  and  C_4 
REMARK    2  A    between atoms: N_10  and  C_5 
REMARK    3  A    between atoms: C_15  and  N_10 
REMARK    4  A    between atoms: C_16  and  C_15 
ROOT
ATOM      1  N   UNL d   1      51.161  33.354  53.205  0.00  0.00    -0.195 N 
ATOM      2  C   UNL d   1      51.941  33.100  53.215  0.00  0.00     0.167 A 
ATOM      3  N   UNL d   1      50.687  32.693  53.281  0.00  0.00    -0.163 NA
ATOM      4  C   UNL d   1      51.943  32.285  53.296  0.00  0.00     0.055 A 
ATOM      5  C   UNL d   1      50.994  34.154  53.129  0.00  0.00     0.167 A 
ATOM      6  C   UNL d   1      51.179  32.036  53.336  0.00  0.00     0.104 A 
ATOM      7  N   UNL d   1      52.557  33.646  53.148  0.00  0.00    -0.227 NA
ATOM      8  C   UNL d   1      51.612  34.707  53.062  0.00  0.00     0.058 A 
ATOM      9  C   UNL d   1      52.383  34.457  53.071  0.00  0.00     0.086 A 
ATOM     10  C   UNL d   1      50.936  31.249  53.419  0.00  0.00     0.023 C 
ATOM     11  C   UNL d   1      53.004  35.019  53.002  0.00  0.00     0.021 C 
ENDROOT
BRANCH   5  12
ATOM     12  N   UNL d   1      50.206  34.410  53.120  0.00  0.00    -0.224 NA
BRANCH  12  13
ATOM     13  C   UNL d   1      49.947  34.914  52.526  0.00  0.00     0.120 C 
BRANCH  13  14
ATOM     14  C   UNL d   1      49.180  35.224  52.554  0.00  0.00     0.101 A 
ATOM     15  N   UNL d   1      48.918  35.630  53.232  0.00  0.00    -0.242 NA
ATOM     16  C   UNL d   1      48.154  35.938  53.259  0.00  0.00     0.099 A 
ATOM     17  C   UNL d   1      47.648  35.841  52.608  0.00  0.00     0.021 A 
ATOM     18  C   UNL d   1      47.906  35.439  51.939  0.00  0.00     0.003 A 
ATOM     19  C   UNL d   1      48.670  35.131  51.911  0.00  0.00     0.021 A 
ENDBRANCH  13  14
ENDBRANCH  12  13
ENDBRANCH   5  12
BRANCH   4  20
ATOM     20  C   UNL d   1      52.563  31.732  53.338  0.00  0.00     0.004 A 
ATOM     21  C   UNL d   1      53.040  31.691  54.009  0.00  0.00     0.001 A 
ATOM     22  C   UNL d   1      53.656  31.144  54.054  0.00  0.00     0.011 A 
ATOM     23  C   UNL d   1      53.792  30.635  53.419  0.00  0.00     0.058 A 
ATOM     24  C   UNL d   1      53.312  30.675  52.742  0.00  0.00     0.011 A 
ATOM     25 CL   UNL d   1      54.419  30.078  53.466  0.00  0.00    -0.082 Cl
ATOM     26  C   UNL d   1      52.699  31.222  52.702  0.00  0.00     0.001 A 
ENDBRANCH   4  20
TORSDOF 4
ENDMDL
MODEL 7
REMARK VINA RESULT:      -5.1      9.906     11.164
REMARK  4 active torsions:
REMARK  status: ('A' for Active; 'I' for Inactive)
REMARK    1  A    between atoms: C_11  and  C_4 
REMARK    2  A    between atoms: N_10  and  C_5 
REMARK    3  A    between atoms: C_15  and  N_10 
REMARK    4  A    between atoms: C_16  and  C_15 
ROOT
ATOM      1  N   UNL d   1      44.792  28.387  58.766  0.00  0.00    -0.195 N 
ATOM      2  C   UNL d   1      44.853  28.121  57.993  0.00  0.00     0.167 A 
ATOM      3  N   UNL d   1      44.727  27.730  59.248  0.00  0.00    -0.163 NA
ATOM      4  C   UNL d   1      44.825  27.302  58.002  0.00  0.00     0.055 A 
ATOM      5  C   UNL d   1      44.805  29.193  58.922  0.00  0.00     0.167 A 
ATOM      6  C   UNL d   1      44.748  27.063  58.766  0.00  0.00     0.104 A 
ATOM      7  N   UNL d   1      44.927  28.660  57.373  0.00  0.00    -0.227 NA
ATOM      8  C   UNL d   1      44.879  29.740  58.299  0.00  0.00     0.058 A 
ATOM      9  C   UNL d   1      44.940  29.477  57.534  0.00  0.00     0.086 A 
ATOM     10  C   UNL d   1      44.699  26.276  59.019  0.00  0.00     0.023 C 
ATOM     11  C   UNL d   1      45.015  30.032  56.908  0.00  0.00     0.021 C 
ENDROOT
BRANCH   5  12
ATOM     12  N   UNL d   1      44.743  29.461  59.704  0.00  0.00    -0.224 NA
BRANCH  12  13
ATOM     13  C   UNL d   1      44.890  30.250  59.877  0.00  0.00     0.120 C 
BRANCH  13  14
ATOM     14  C   UNL d   1      44.749  30.537  60.641  0.00  0.00     0.101 A 
ATOM     15  N   UNL d   1      44.454  31.308  60.749  0.00  0.00    -0.242 NA
ATOM     16  C   UNL d   1      44.314  31.594  61.509  0.00  0.00     0.099 A 
ATOM     17  C   UNL d   1      44.468  31.109  62.166  0.00  0.00     0.021 A 
ATOM     18  C   UNL d   1      44.760  30.348  62.059  0.00  0.00     0.003 A 
ATOM     19  C   UNL d   1      44.900  30.062  61.299  0.00  0.00     0.021 A 
ENDBRANCH  13  14
ENDBRANCH  12  13
ENDBRANCH   5  12
BRANCH   4  20
ATOM     20  C   UNL d   1      44.862  26.737  57.392  0.00  0.00     0.004 A 
ATOM     21  C   UNL d   1      45.439  26.149  57.402  0.00  0.00     0.001 A 
ATOM     22  C   UNL d   1      45.478  25.589  56.799  0.00  0.00     0.011 A 
ATOM     23  C   UNL d   1      44.931  25.620  56.181  0.00  0.00     0.058 A 
ATOM     24  C   UNL d   1      44.349  26.212  56.170  0.00  0.00     0.011 A 
ATOM     25 CL   UNL d   1      44.972  25.048  55.567  0.00  0.00    -0.082 Cl
ATOM     26  C   UNL d   1      44.314  26.770  56.774  0.00  0.00     0.001 A 
ENDBRANCH   4  20
TORSDOF 4
ENDMDL
MODEL 8
REMARK VINA RESULT:      -4.7      2.211      5.017
REMARK  4 active torsions:
REMARK  status: ('A' for Active; 'I' for Inactive)
REMARK    1  A    between atoms: C_11  and  C_4 
REMARK    2  A    between atoms: N_10  and  C_5 
REMARK    3  A    between atoms: C_15  and  N_10 
REMARK    4  A    between atoms: C_16  and  C_15 
ROOT
ATOM      1  N   UNL d   1      52.705  33.271  53.052  0.00  0.00    -0.195 N 
ATOM      2  C   UNL d   1      51.933  33.137  52.808  0.00  0.00     0.167 A 
ATOM      3  N   UNL d   1      52.834  34.077  53.025  0.00  0.00    -0.163 NA
ATOM      4  C   UNL d   1      51.592  33.861  52.633  0.00  0.00     0.055 A 
ATOM      5  C   UNL d   1      53.181  32.637  53.264  0.00  0.00     0.167 A 
ATOM      6  C   UNL d   1      52.140  34.434  52.765  0.00  0.00     0.104 A 
ATOM      7  N   UNL d   1      51.635  32.368  52.776  0.00  0.00    -0.227 NA
ATOM      8  C   UNL d   1      52.884  31.860  53.232  0.00  0.00     0.058 A 
ATOM      9  C   UNL d   1      52.121  31.727  52.991  0.00  0.00     0.086 A 
ATOM     10  C   UNL d   1      52.020  35.246  52.655  0.00  0.00     0.023 C 
ATOM     11  C   UNL d   1      51.825  30.941  52.961  0.00  0.00     0.021 C 
ENDROOT
BRANCH   5  12
ATOM     12  N   UNL d   1      53.961  32.773  53.510  0.00  0.00    -0.224 NA
BRANCH  12  13
ATOM     13  C   UNL d   1      54.198  32.540  54.261  0.00  0.00     0.120 C 
BRANCH  13  14
ATOM     14  C   UNL d   1      54.677  33.040  54.715  0.00  0.00     0.101 A 
ATOM     15  N   UNL d   1      55.345  33.401  54.373  0.00  0.00    -0.242 NA
ATOM     16  C   UNL d   1      55.821  33.898  54.825  0.00  0.00     0.099 A 
ATOM     17  C   UNL d   1      55.633  34.038  55.621  0.00  0.00     0.021 A 
ATOM     18  C   UNL d   1      54.973  33.681  55.959  0.00  0.00     0.003 A 
ATOM     19  C   UNL d   1      54.496  33.183  55.507  0.00  0.00     0.021 A 
ENDBRANCH  13  14
ENDBRANCH  12  13
ENDBRANCH   5  12
BRANCH   4  20
ATOM     20  C   UNL d   1      50.832  34.067  52.364  0.00  0.00     0.004 A 
ATOM     21  C   UNL d   1      50.664  34.077  51.556  0.00  0.00     0.001 A 
ATOM     22  C   UNL d   1      49.912  34.281  51.287  0.00  0.00     0.011 A 
ATOM     23  C   UNL d   1      49.325  34.475  51.833  0.00  0.00     0.058 A 
ATOM     24  C   UNL d   1      49.493  34.465  52.646  0.00  0.00     0.011 A 
ATOM     25 CL   UNL d   1      48.560  34.682  51.556  0.00  0.00    -0.082 Cl
ATOM     26  C   UNL d   1      50.245  34.261  52.911  0.00  0.00     0.001 A 
ENDBRANCH   4  20
TORSDOF 4
ENDMDL
MODEL 9
REMARK VINA RESULT:      -4.6      2.247      5.141
REMARK  4 active torsions:
REMARK  status: ('A' for Active; 'I' for Inactive)
REMARK    1  A    between atoms: C_11  and  C_4 
REMARK    2  A    between atoms: N_10  and  C_5 
REMARK    3  A    between atoms: C_15  and  N_10 
REMARK    4  A    between atoms: C_16  and  C_15 
ROOT
ATOM      1  N   UNL d   1      51.279  33.685  52.778  0.00  0.00    -0.195 N 
ATOM      2  C   UNL d   1      50.939  34.399  52.994  0.00  0.00     0.167 A 
ATOM      3  N   UNL d   1      50.702  33.239  52.410  0.00  0.00    -0.163 NA
ATOM      4  C   UNL d   1      50.154  34.389  52.759  0.00  0.00     0.055 A 
ATOM      5  C   UNL d   1      52.070  33.543  52.947  0.00  0.00     0.167 A 
ATOM      6  C   UNL d   1      50.009  33.683  52.403  0.00  0.00     0.104 A 
ATOM      7  N   UNL d   1      51.388  34.974  53.382  0.00  0.00    -0.227 NA
ATOM      8  C   UNL d   1      52.526  34.120  53.338  0.00  0.00     0.058 A 
ATOM      9  C   UNL d   1      52.189  34.826  53.552  0.00  0.00     0.086 A 
ATOM     10  C   UNL d   1      49.282  33.448  52.084  0.00  0.00     0.023 C 
ATOM     11  C   UNL d   1      52.653  35.405  53.946  0.00  0.00     0.021 C 
ENDROOT
BRANCH   5  12
ATOM     12  N   UNL d   1      52.414  32.822  52.728  0.00  0.00    -0.224 NA
BRANCH  12  13
ATOM     13  C   UNL d   1      53.021  32.505  53.181  0.00  0.00     0.120 C 
BRANCH  13  14
ATOM     14  C   UNL d   1      53.129  31.684  53.208  0.00  0.00     0.101 A 
ATOM     15  N   UNL d   1      52.824  31.203  52.600  0.00  0.00    -0.242 NA
ATOM     16  C   UNL d   1      52.932  30.387  52.628  0.00  0.00     0.099 A 
ATOM     17  C   UNL d   1      53.344  30.046  53.263  0.00  0.00     0.021 A 
ATOM     18  C   UNL d   1      53.645  30.522  53.863  0.00  0.00     0.003 A 
ATOM     19  C   UNL d   1      53.538  31.338  53.836  0.00  0.00     0.021 A 
ENDBRANCH  13  14
ENDBRANCH  12  13
ENDBRANCH   5  12
BRANCH   4  20
ATOM     20  C   UNL d   1      49.545  34.952  52.830  0.00  0.00     0.004 A 
ATOM     21  C   UNL d   1      49.287  35.196  53.574  0.00  0.00     0.001 A 
ATOM     22  C   UNL d   1      48.684  35.753  53.647  0.00  0.00     0.011 A 
ATOM     23  C   UNL d   1      48.338  36.067  52.966  0.00  0.00     0.058 A 
ATOM     24  C   UNL d   1      48.597  35.821  52.216  0.00  0.00     0.011 A 
ATOM     25 CL   UNL d   1      47.724  36.634  53.043  0.00  0.00    -0.082 Cl
ATOM     26  C   UNL d   1      49.199  35.265  52.148  0.00  0.00     0.001 A 
ENDBRANCH   4  20
TORSDOF 4
ENDMDL
