MODEL 1
REMARK VINA RESULT:      11.4      0.000      0.000
REMARK  5 active torsions:
REMARK  status: ('A' for Active; 'I' for Inactive)
REMARK    1  A    between atoms: N_2  and  C_1 
REMARK    2  A    between atoms: C_4  and  C_8 
REMARK       I    between atoms: N_7  and  C_4 
REMARK    3  A    between atoms: C_9  and  C_6 
REMARK    4  A    between atoms: C_14  and  N_7 
REMARK    5  A    between atoms: C_8  and  C_9 
ROOT
ATOM      1  C   UNL d   1      46.176 -17.535  43.970  0.00  0.00     0.265 C 
ATOM      2  N   UNL d   1      46.277 -17.894  43.252  0.00  0.00    -0.272 N 
ATOM      3  O   UNL d   1      46.190 -17.949  44.683  0.00  0.00    -0.267 OA
ATOM      4  C   UNL d   1      46.259 -17.465  42.555  0.00  0.00     0.102 C 
ENDROOT
BRANCH   1   5
ATOM      5  C   UNL d   1      46.053 -16.719  43.988  0.00  0.00     0.062 C 
BRANCH   5   6
ATOM      6  C   UNL d   1      45.671 -16.385  44.664  0.00  0.00     0.011 C 
BRANCH   6   7
ATOM      7  C   UNL d   1      45.459 -15.554  44.679  0.00  0.00     0.031 A 
ATOM      8  S   UNL d   1      45.916 -14.932  44.419  0.00  0.00    -0.064 SA
ATOM      9  C   UNL d   1      45.506 -14.219  44.532  0.00  0.00     0.156 A 
ATOM     10  C   UNL d   1      44.774 -14.430  44.873  0.00  0.00     0.031 A 
ATOM     11  C   UNL d   1      44.758 -15.223  44.955  0.00  0.00     0.009 A 
BRANCH   9  12
ATOM     12  N   UNL d   1      45.750 -13.449  44.352  0.00  0.00    -0.107 N 
ATOM     13  O   UNL d   1      45.597 -13.108  43.576  0.00  0.00    -0.531 OA
ATOM     14  O   UNL d   1      46.163 -12.938  44.899  0.00  0.00    -0.531 OA
ENDBRANCH   9  12
ENDBRANCH   6   7
ENDBRANCH   5   6
ENDBRANCH   1   5
BRANCH   2  15
ATOM     15  C   UNL d   1      46.400 -18.709  43.221  0.00  0.00     0.067 A 
ATOM     16  C   UNL d   1      46.512 -19.135  43.902  0.00  0.00     0.018 A 
ATOM     17  C   UNL d   1      46.633 -19.945  43.840  0.00  0.00     0.002 A 
ATOM     18  C   UNL d   1      46.642 -20.330  43.113  0.00  0.00     0.000 A 
ATOM     19  C   UNL d   1      46.523 -19.860  42.423  0.00  0.00     0.002 A 
ATOM     20  C   UNL d   1      46.404 -19.069  42.472  0.00  0.00     0.018 A 
ENDBRANCH   2  15
TORSDOF 5
ENDMDL
