MODEL 1
REMARK VINA RESULT:      52.6      0.000      0.000
REMARK  3 active torsions:
REMARK  status: ('A' for Active; 'I' for Inactive)
REMARK    1  A    between atoms: N_10  and  C_3 
REMARK    2  A    between atoms: C_11  and  C_4 
REMARK    3  A    between atoms: C_12  and  N_10 
ROOT
ATOM      1  C   UNL d   1      59.109  49.692  50.634  0.00  0.00     0.167 A 
ATOM      2  N   UNL d   1      59.683  49.698  51.233  0.00  0.00    -0.195 N 
ATOM      3  C   UNL d   1      60.480  49.702  51.034  0.00  0.00     0.167 A 
ATOM      4  C   UNL d   1      58.377  49.690  50.996  0.00  0.00     0.057 A 
ATOM      5  N   UNL d   1      59.291  49.700  51.950  0.00  0.00    -0.161 NA
ATOM      6  N   UNL d   1      59.342  49.689  49.847  0.00  0.00    -0.227 NA
ATOM      7  C   UNL d   1      60.708  49.699  50.238  0.00  0.00     0.058 A 
ATOM      8  C   UNL d   1      58.496  49.695  51.813  0.00  0.00     0.124 A 
ATOM      9  C   UNL d   1      60.147  49.693  49.652  0.00  0.00     0.086 A 
ATOM     10  C   UNL d   1      60.392  49.690  48.859  0.00  0.00     0.021 C 
ENDROOT
BRANCH   3  11
ATOM     11  N   UNL d   1      61.053  49.708  51.632  0.00  0.00    -0.227 NA
BRANCH  11  12
ATOM     12  C   UNL d   1      61.247  49.009  52.018  0.00  0.00     0.083 A 
ATOM     13  C   UNL d   1      61.178  48.219  51.795  0.00  0.00     0.019 A 
ATOM     14  C   UNL d   1      61.465  47.756  52.414  0.00  0.00     0.002 A 
ATOM     15  C   UNL d   1      61.712  48.249  53.016  0.00  0.00     0.002 A 
ATOM     16  C   UNL d   1      61.581  49.032  52.781  0.00  0.00     0.019 A 
ENDBRANCH  11  12
ENDBRANCH   3  11
BRANCH   4  17
ATOM     17  C   UNL d   1      57.686  49.684  50.541  0.00  0.00     0.004 A 
ATOM     18  C   UNL d   1      57.732  49.707  49.727  0.00  0.00     0.000 A 
ATOM     19  C   UNL d   1      57.042  49.701  49.269  0.00  0.00     0.000 A 
ATOM     20  C   UNL d   1      56.303  49.671  49.647  0.00  0.00     0.000 A 
ATOM     21  C   UNL d   1      56.264  49.648  50.469  0.00  0.00     0.000 A 
ATOM     22  C   UNL d   1      56.950  49.654  50.912  0.00  0.00     0.000 A 
ENDBRANCH   4  17
TORSDOF 3
ENDMDL
