MODEL 1
REMARK VINA RESULT:      -5.8      0.000      0.000
REMARK  1 active torsions:
REMARK  status: ('A' for Active; 'I' for Inactive)
REMARK    1  A    between atoms: C_7  and  C_1 
ROOT
ATOM      1  C   UNL d   1     -41.638-122.457 -52.075  0.00  0.00     0.062 A 
ATOM      2  C   UNL d   1     -41.843-122.899 -52.735  0.00  0.00     0.202 A 
ATOM      3  C   UNL d   1     -41.809-122.591 -53.489  0.00  0.00     0.101 A 
ATOM      4  C   UNL d   1     -41.386-121.666 -52.180  0.00  0.00     0.103 A 
ATOM      5  C   UNL d   1     -41.557-121.801 -53.594  0.00  0.00     0.109 A 
ATOM      6  O   UNL d   1     -41.346-121.339 -52.943  0.00  0.00    -0.307 OA
ATOM      7  C   UNL d   1     -42.011-123.032 -54.126  0.00  0.00     0.204 A 
ATOM      8  C   UNL d   1     -41.514-121.471 -54.334  0.00  0.00     0.067 A 
ATOM      9  C   UNL d   1     -41.977-122.724 -54.883  0.00  0.00     0.084 A 
ATOM     10  O   UNL d   1     -42.093-123.685 -52.630  0.00  0.00    -0.286 OA
ATOM     11  C   UNL d   1     -41.725-121.933 -54.988  0.00  0.00     0.201 A 
ATOM     12  O   UNL d   1     -42.261-123.817 -54.021  0.00  0.00    -0.286 OA
ATOM     13  C   UNL d   1     -41.175-121.204 -51.525  0.00  0.00     0.027 C 
ATOM     14  O   UNL d   1     -41.685-121.605 -55.745  0.00  0.00    -0.286 OA
ENDROOT
BRANCH   1  15
ATOM     15  C   UNL d   1     -41.678-122.784 -51.314  0.00  0.00     0.007 A 
ATOM     16  C   UNL d   1     -42.269-122.541 -50.815  0.00  0.00     0.027 A 
ATOM     17  C   UNL d   1     -42.306-122.867 -50.059  0.00  0.00     0.123 A 
ATOM     18  O   UNL d   1     -42.937-122.553 -49.645  0.00  0.00    -0.303 OA
ATOM     19  C   UNL d   1     -41.762-123.420 -49.824  0.00  0.00     0.123 A 
ATOM     20  C   UNL d   1     -43.175-122.719 -48.885  0.00  0.00     0.125 A 
ATOM     21  C   UNL d   1     -42.839-123.245 -48.349  0.00  0.00     0.053 A 
ATOM     22  C   UNL d   1     -42.175-123.734 -48.452  0.00  0.00     0.125 A 
ATOM     23  O   UNL d   1     -41.698-123.810 -49.108  0.00  0.00    -0.303 OA
ATOM     24  C   UNL d   1     -41.163-123.663 -50.337  0.00  0.00     0.027 A 
ATOM     25  C   UNL d   1     -41.124-123.335 -51.097  0.00  0.00     0.002 A 
ENDBRANCH   1  15
TORSDOF 1
ENDMDL
