MODEL 1
REMARK VINA RESULT:      62.3      0.000      0.000
REMARK  8 active torsions:
REMARK  status: ('A' for Active; 'I' for Inactive)
REMARK    1  A    between atoms: C_11  and  N_1 
REMARK    2  A    between atoms: S_10  and  C_2 
REMARK    3  A    between atoms: N_8  and  C_9 
REMARK    4  A    between atoms: C_18  and  S_10 
REMARK    5  A    between atoms: C_19  and  C_11 
REMARK    6  A    between atoms: C_13  and  C_18 
REMARK    7  A    between atoms: O_20  and  C_13 
REMARK    8  A    between atoms: C_25  and  O_20 
ROOT
ATOM      1  N   UNL d   1      13.818  12.527  -2.968  0.00  0.00    -0.253 N 
ATOM      2  C   UNL d   1      13.323  12.548  -3.616  0.00  0.00     0.182 A 
ATOM      3  C   UNL d   1      14.179  13.228  -2.694  0.00  0.00     0.268 A 
ATOM      4  C   UNL d   1      14.024  13.957  -3.097  0.00  0.00     0.076 A 
ATOM      5  N   UNL d   1      13.170  13.276  -4.019  0.00  0.00    -0.222 NA
ATOM      6  C   UNL d   1      13.521  13.973  -3.755  0.00  0.00     0.088 A 
ATOM      7  C   UNL d   1      14.389  14.657  -2.818  0.00  0.00     0.024 A 
ATOM      8  C   UNL d   1      14.236  15.365  -3.213  0.00  0.00     0.065 A 
ATOM      9  O   UNL d   1      14.681  13.214  -2.038  0.00  0.00    -0.267 OA
ATOM     10  C   UNL d   1      13.381  14.688  -4.135  0.00  0.00     0.021 A 
ATOM     11  C   UNL d   1      13.733  15.386  -3.872  0.00  0.00     0.019 A 
ENDROOT
BRANCH   1  12
ATOM     12  C   UNL d   1      13.968  11.819  -2.577  0.00  0.00     0.085 C 
BRANCH  12  13
ATOM     13  C   UNL d   1      14.048  11.810  -1.757  0.00  0.00     0.018 A 
ATOM     14  C   UNL d   1      14.795  11.794  -1.422  0.00  0.00     0.002 A 
ATOM     15  C   UNL d   1      14.868  11.785  -0.598  0.00  0.00     0.000 A 
ATOM     16  C   UNL d   1      14.195  11.793  -0.126  0.00  0.00     0.000 A 
ATOM     17  C   UNL d   1      13.448  11.809  -0.464  0.00  0.00     0.000 A 
ATOM     18  C   UNL d   1      13.376  11.818  -1.285  0.00  0.00     0.002 A 
ENDBRANCH  12  13
ENDBRANCH   1  12
BRANCH   2  19
ATOM     19  S   UNL d   1      12.969  11.860  -3.886  0.00  0.00    -0.044 SA
BRANCH  19  20
ATOM     20  C   UNL d   1      12.769  11.782  -4.678  0.00  0.00     0.107 C 
BRANCH  20  21
ATOM     21  C   UNL d   1      13.298  12.018  -5.273  0.00  0.00     0.307 C 
ATOM     22  O   UNL d   1      13.043  12.482  -5.899  0.00  0.00    -0.258 OA
BRANCH  21  23
ATOM     23  O   UNL d   1      14.081  11.783  -5.230  0.00  0.00    -0.271 OA
BRANCH  23  24
ATOM     24  C   UNL d   1      14.595  11.949  -5.851  0.00  0.00     0.126 C 
ATOM     25  C   UNL d   1      14.437  12.581  -6.366  0.00  0.00     0.029 C 
ENDBRANCH  23  24
ENDBRANCH  21  23
ENDBRANCH  20  21
ENDBRANCH  19  20
ENDBRANCH   2  19
BRANCH   8  26
ATOM     26  N   UNL d   1      14.589  16.060  -2.948  0.00  0.00    -0.300 N 
ATOM     27  C   UNL d   1      14.781  16.148  -2.154  0.00  0.00     0.107 A 
ATOM     28  C   UNL d   1      15.136  16.848  -1.887  0.00  0.00     0.142 A 
ATOM     29  O   UNL d   1      15.296  17.453  -2.420  0.00  0.00    -0.300 OA
ATOM     30  C   UNL d   1      15.104  17.366  -3.212  0.00  0.00     0.142 A 
ATOM     31  C   UNL d   1      14.753  16.676  -3.478  0.00  0.00     0.107 A 
ENDBRANCH   8  26
TORSDOF 8
ENDMDL
MODEL 2
REMARK VINA RESULT:      62.3      1.679      3.556
REMARK  8 active torsions:
REMARK  status: ('A' for Active; 'I' for Inactive)
REMARK    1  A    between atoms: C_11  and  N_1 
REMARK    2  A    between atoms: S_10  and  C_2 
REMARK    3  A    between atoms: N_8  and  C_9 
REMARK    4  A    between atoms: C_18  and  S_10 
REMARK    5  A    between atoms: C_19  and  C_11 
REMARK    6  A    between atoms: C_13  and  C_18 
REMARK    7  A    between atoms: O_20  and  C_13 
REMARK    8  A    between atoms: C_25  and  O_20 
ROOT
ATOM      1  N   UNL d   1      13.509  14.344  -3.598  0.00  0.00    -0.253 N 
ATOM      2  C   UNL d   1      14.119  14.352  -3.055  0.00  0.00     0.182 A 
ATOM      3  C   UNL d   1      13.417  14.978  -4.134  0.00  0.00     0.268 A 
ATOM      4  C   UNL d   1      13.961  15.625  -4.106  0.00  0.00     0.076 A 
ATOM      5  N   UNL d   1      14.663  15.000  -3.028  0.00  0.00    -0.222 NA
ATOM      6  C   UNL d   1      14.579  15.629  -3.553  0.00  0.00     0.088 A 
ATOM      7  C   UNL d   1      13.864  16.257  -4.645  0.00  0.00     0.024 A 
ATOM      8  C   UNL d   1      14.397  16.887  -4.615  0.00  0.00     0.065 A 
ATOM      9  O   UNL d   1      12.802  14.974  -4.685  0.00  0.00    -0.267 OA
ATOM     10  C   UNL d   1      15.100  16.265  -3.538  0.00  0.00     0.021 A 
ATOM     11  C   UNL d   1      15.016  16.896  -4.063  0.00  0.00     0.019 A 
ENDROOT
BRANCH   1  12
ATOM     12  C   UNL d   1      12.981  13.715  -3.624  0.00  0.00     0.085 C 
BRANCH  12  13
ATOM     13  C   UNL d   1      13.069  13.126  -4.194  0.00  0.00     0.018 A 
ATOM     14  C   UNL d   1      13.449  13.296  -4.900  0.00  0.00     0.002 A 
ATOM     15  C   UNL d   1      13.533  12.700  -5.466  0.00  0.00     0.000 A 
ATOM     16  C   UNL d   1      13.238  11.947  -5.319  0.00  0.00     0.000 A 
ATOM     17  C   UNL d   1      12.858  11.779  -4.612  0.00  0.00     0.000 A 
ATOM     18  C   UNL d   1      12.774  12.373  -4.047  0.00  0.00     0.002 A 
ENDBRANCH  12  13
ENDBRANCH   1  12
BRANCH   2  19
ATOM     19  S   UNL d   1      14.211  13.731  -2.529  0.00  0.00    -0.044 SA
BRANCH  19  20
ATOM     20  C   UNL d   1      14.427  13.878  -1.752  0.00  0.00     0.107 C 
BRANCH  20  21
ATOM     21  C   UNL d   1      14.674  13.257  -1.258  0.00  0.00     0.307 C 
ATOM     22  O   UNL d   1      14.754  13.374  -0.450  0.00  0.00    -0.258 OA
BRANCH  21  23
ATOM     23  O   UNL d   1      14.838  12.525  -1.585  0.00  0.00    -0.271 OA
BRANCH  23  24
ATOM     24  C   UNL d   1      14.972  11.877  -1.094  0.00  0.00     0.126 C 
ATOM     25  C   UNL d   1      15.708  11.781  -0.722  0.00  0.00     0.029 C 
ENDBRANCH  23  24
ENDBRANCH  21  23
ENDBRANCH  20  21
ENDBRANCH  19  20
ENDBRANCH   2  19
BRANCH   8  26
ATOM     26  N   UNL d   1      14.311  17.515  -5.141  0.00  0.00    -0.300 N 
ATOM     27  C   UNL d   1      14.606  18.257  -4.950  0.00  0.00     0.107 A 
ATOM     28  C   UNL d   1      14.518  18.888  -5.481  0.00  0.00     0.142 A 
ATOM     29  O   UNL d   1      14.135  18.768  -6.198  0.00  0.00    -0.300 OA
ATOM     30  C   UNL d   1      13.839  18.028  -6.389  0.00  0.00     0.142 A 
ATOM     31  C   UNL d   1      13.925  17.403  -5.866  0.00  0.00     0.107 A 
ENDBRANCH   8  26
TORSDOF 8
ENDMDL
