MODEL 1
REMARK VINA RESULT:      38.2      0.000      0.000
REMARK  8 active torsions:
REMARK  status: ('A' for Active; 'I' for Inactive)
REMARK    1  A    between atoms: C_11  and  C_3 
REMARK    2  A    between atoms: C_10  and  C_4 
REMARK    3  A    between atoms: O_18  and  C_10 
REMARK    4  A    between atoms: N_17  and  C_11 
REMARK    5  A    between atoms: C_12  and  C_15 
REMARK    6  A    between atoms: C_15  and  C_23 
REMARK    7  A    between atoms: C_23  and  N_17 
REMARK    8  A    between atoms: C_24  and  O_18 
ROOT
ATOM      1  C   UNL d   1      14.147  13.121  -2.273  0.00  0.00     0.035 A 
ATOM      2  C   UNL d   1      13.798  12.439  -2.591  0.00  0.00     0.100 A 
ATOM      3  C   UNL d   1      14.203  13.809  -2.728  0.00  0.00     0.060 A 
ATOM      4  C   UNL d   1      14.382  12.956  -1.510  0.00  0.00     0.088 A 
ATOM      5  O   UNL d   1      13.824  11.876  -2.030  0.00  0.00    -0.307 OA
ATOM      6  C   UNL d   1      14.175  12.175  -1.370  0.00  0.00     0.105 A 
ATOM      7  C   UNL d   1      13.910  13.810  -3.499  0.00  0.00     0.197 A 
ATOM      8  C   UNL d   1      13.518  12.461  -3.347  0.00  0.00     0.026 A 
ATOM      9  C   UNL d   1      13.574  13.149  -3.802  0.00  0.00     0.041 A 
ATOM     10  O   UNL d   1      13.967  14.513  -3.964  0.00  0.00    -0.286 OA
ATOM     11  C   UNL d   1      14.312  11.779  -0.664  0.00  0.00     0.027 C 
ATOM     12  C   UNL d   1      13.169  11.779  -3.666  0.00  0.00     0.002 A 
ATOM     13  C   UNL d   1      13.281  13.150  -4.573  0.00  0.00     0.003 A 
ATOM     14  C   UNL d   1      12.937  12.480  -4.890  0.00  0.00     0.000 A 
ATOM     15  C   UNL d   1      12.881  11.792  -4.435  0.00  0.00     0.000 A 
ENDROOT
BRANCH   3  16
ATOM     16  C   UNL d   1      14.563  14.515  -2.402  0.00  0.00     0.102 C 
BRANCH  16  17
ATOM     17  N   UNL d   1      14.203  15.266  -2.516  0.00  0.00    -0.242 NA
BRANCH  17  18
ATOM     18  C   UNL d   1      14.635  15.896  -2.766  0.00  0.00     0.105 C 
BRANCH  18  19
ATOM     19  C   UNL d   1      14.527  16.642  -2.429  0.00  0.00     0.091 C 
BRANCH  19  20
ATOM     20  C   UNL d   1      15.056  16.918  -1.851  0.00  0.00     0.213 C 
ATOM     21  O   UNL d   1      14.784  17.090  -1.090  0.00  0.00    -0.644 OA
ATOM     22  O   UNL d   1      15.849  17.017  -2.042  0.00  0.00    -0.644 OA
ENDBRANCH  19  20
ENDBRANCH  18  19
ENDBRANCH  17  18
ENDBRANCH  16  17
ENDBRANCH   3  16
BRANCH   4  23
ATOM     23  C   UNL d   1      14.758  13.446  -0.953  0.00  0.00     0.302 C 
ATOM     24  O   UNL d   1      14.299  13.905  -0.423  0.00  0.00    -0.259 OA
BRANCH  23  25
ATOM     25  O   UNL d   1      15.570  13.487  -0.913  0.00  0.00    -0.271 OA
BRANCH  25  26
ATOM     26  C   UNL d   1      15.924  14.127  -0.565  0.00  0.00     0.126 C 
ATOM     27  C   UNL d   1      16.519  13.984  -0.030  0.00  0.00     0.029 C 
ENDBRANCH  25  26
ENDBRANCH  23  25
ENDBRANCH   4  23
TORSDOF 8
ENDMDL
MODEL 2
REMARK VINA RESULT:      39.5      0.915      1.029
REMARK  8 active torsions:
REMARK  status: ('A' for Active; 'I' for Inactive)
REMARK    1  A    between atoms: C_11  and  C_3 
REMARK    2  A    between atoms: C_10  and  C_4 
REMARK    3  A    between atoms: O_18  and  C_10 
REMARK    4  A    between atoms: N_17  and  C_11 
REMARK    5  A    between atoms: C_12  and  C_15 
REMARK    6  A    between atoms: C_15  and  C_23 
REMARK    7  A    between atoms: C_23  and  N_17 
REMARK    8  A    between atoms: C_24  and  O_18 
ROOT
ATOM      1  C   UNL d   1      14.181  13.287  -2.485  0.00  0.00     0.035 A 
ATOM      2  C   UNL d   1      13.835  12.574  -2.731  0.00  0.00     0.100 A 
ATOM      3  C   UNL d   1      14.166  13.947  -2.983  0.00  0.00     0.060 A 
ATOM      4  C   UNL d   1      14.491  13.178  -1.740  0.00  0.00     0.088 A 
ATOM      5  O   UNL d   1      13.937  12.048  -2.142  0.00  0.00    -0.307 OA
ATOM      6  C   UNL d   1      14.332  12.400  -1.537  0.00  0.00     0.105 A 
ATOM      7  C   UNL d   1      13.805  13.890  -3.722  0.00  0.00     0.197 A 
ATOM      8  C   UNL d   1      13.487  12.539  -3.457  0.00  0.00     0.026 A 
ATOM      9  C   UNL d   1      13.472  13.199  -3.954  0.00  0.00     0.041 A 
ATOM     10  O   UNL d   1      13.789  14.565  -4.230  0.00  0.00    -0.286 OA
ATOM     11  C   UNL d   1      14.549  12.054  -0.824  0.00  0.00     0.027 C 
ATOM     12  C   UNL d   1      13.142  11.826  -3.702  0.00  0.00     0.002 A 
ATOM     13  C   UNL d   1      13.111  13.142  -4.694  0.00  0.00     0.003 A 
ATOM     14  C   UNL d   1      12.769  12.441  -4.938  0.00  0.00     0.000 A 
ATOM     15  C   UNL d   1      12.785  11.781  -4.441  0.00  0.00     0.000 A 
ENDROOT
BRANCH   3  16
ATOM     16  C   UNL d   1      14.522  14.686  -2.733  0.00  0.00     0.102 C 
BRANCH  16  17
ATOM     17  N   UNL d   1      14.264  15.414  -3.063  0.00  0.00    -0.242 NA
BRANCH  17  18
ATOM     18  C   UNL d   1      14.771  15.878  -3.480  0.00  0.00     0.105 C 
BRANCH  18  19
ATOM     19  C   UNL d   1      15.005  16.615  -3.190  0.00  0.00     0.091 C 
BRANCH  19  20
ATOM     20  C   UNL d   1      15.328  17.182  -3.704  0.00  0.00     0.213 C 
ATOM     21  O   UNL d   1      14.964  17.918  -3.789  0.00  0.00    -0.644 OA
ATOM     22  O   UNL d   1      16.011  17.003  -4.125  0.00  0.00    -0.644 OA
ENDBRANCH  19  20
ENDBRANCH  18  19
ENDBRANCH  17  18
ENDBRANCH  16  17
ENDBRANCH   3  16
BRANCH   4  23
ATOM     23  C   UNL d   1      14.893  13.715  -1.249  0.00  0.00     0.302 C 
ATOM     24  O   UNL d   1      15.730  13.702  -1.212  0.00  0.00    -0.259 OA
BRANCH  23  25
ATOM     25  O   UNL d   1      14.485  14.258  -0.800  0.00  0.00    -0.271 OA
BRANCH  25  26
ATOM     26  C   UNL d   1      14.776  14.485  -0.078  0.00  0.00     0.126 C 
ATOM     27  C   UNL d   1      15.099  15.228  -0.019  0.00  0.00     0.029 C 
ENDBRANCH  25  26
ENDBRANCH  23  25
ENDBRANCH   4  23
TORSDOF 8
ENDMDL
MODEL 3
REMARK VINA RESULT:      41.2      1.415      4.057
REMARK  8 active torsions:
REMARK  status: ('A' for Active; 'I' for Inactive)
REMARK    1  A    between atoms: C_11  and  C_3 
REMARK    2  A    between atoms: C_10  and  C_4 
REMARK    3  A    between atoms: O_18  and  C_10 
REMARK    4  A    between atoms: N_17  and  C_11 
REMARK    5  A    between atoms: C_12  and  C_15 
REMARK    6  A    between atoms: C_15  and  C_23 
REMARK    7  A    between atoms: C_23  and  N_17 
REMARK    8  A    between atoms: C_24  and  O_18 
ROOT
ATOM      1  C   UNL d   1      14.153  13.892  -2.347  0.00  0.00     0.035 A 
ATOM      2  C   UNL d   1      14.586  13.885  -1.639  0.00  0.00     0.100 A 
ATOM      3  C   UNL d   1      13.810  13.194  -2.629  0.00  0.00     0.060 A 
ATOM      4  C   UNL d   1      14.156  14.651  -2.642  0.00  0.00     0.088 A 
ATOM      5  O   UNL d   1      14.843  14.627  -1.513  0.00  0.00    -0.307 OA
ATOM      6  C   UNL d   1      14.591  15.101  -2.111  0.00  0.00     0.105 A 
ATOM      7  C   UNL d   1      13.903  12.495  -2.202  0.00  0.00     0.197 A 
ATOM      8  C   UNL d   1      14.664  13.191  -1.236  0.00  0.00     0.026 A 
ATOM      9  C   UNL d   1      14.322  12.493  -1.519  0.00  0.00     0.041 A 
ATOM     10  O   UNL d   1      13.552  11.782  -2.491  0.00  0.00    -0.286 OA
ATOM     11  C   UNL d   1      14.734  15.905  -2.196  0.00  0.00     0.027 C 
ATOM     12  C   UNL d   1      15.097  13.184  -0.529  0.00  0.00     0.002 A 
ATOM     13  C   UNL d   1      14.414  11.794  -1.092  0.00  0.00     0.003 A 
ATOM     14  C   UNL d   1      14.840  11.783  -0.395  0.00  0.00     0.000 A 
ATOM     15  C   UNL d   1      15.182  12.481  -0.112  0.00  0.00     0.000 A 
ENDROOT
BRANCH   3  16
ATOM     16  C   UNL d   1      13.362  13.197  -3.360  0.00  0.00     0.102 C 
BRANCH  16  17
ATOM     17  N   UNL d   1      13.046  12.482  -3.667  0.00  0.00    -0.242 NA
BRANCH  17  18
ATOM     18  C   UNL d   1      12.769  12.445  -4.420  0.00  0.00     0.105 C 
BRANCH  18  19
ATOM     19  C   UNL d   1      12.954  11.804  -4.908  0.00  0.00     0.091 C 
BRANCH  19  20
ATOM     20  C   UNL d   1      13.351  11.929  -5.626  0.00  0.00     0.213 C 
ATOM     21  O   UNL d   1      12.936  12.202  -6.286  0.00  0.00    -0.644 OA
ATOM     22  O   UNL d   1      14.158  11.780  -5.674  0.00  0.00    -0.644 OA
ENDBRANCH  19  20
ENDBRANCH  18  19
ENDBRANCH  17  18
ENDBRANCH  16  17
ENDBRANCH   3  16
BRANCH   4  23
ATOM     23  C   UNL d   1      13.806  14.954  -3.332  0.00  0.00     0.302 C 
ATOM     24  O   UNL d   1      13.045  15.303  -3.296  0.00  0.00    -0.259 OA
BRANCH  23  25
ATOM     25  O   UNL d   1      14.192  14.916  -4.048  0.00  0.00    -0.271 OA
BRANCH  25  26
ATOM     26  C   UNL d   1      14.449  15.597  -4.404  0.00  0.00     0.126 C 
ATOM     27  C   UNL d   1      14.302  15.685  -5.198  0.00  0.00     0.029 C 
ENDBRANCH  25  26
ENDBRANCH  23  25
ENDBRANCH   4  23
TORSDOF 8
ENDMDL
