MODEL 1
REMARK VINA RESULT:      78.2      0.000      0.000
REMARK  5 active torsions:
REMARK  status: ('A' for Active; 'I' for Inactive)
REMARK    1  A    between atoms: S_5  and  C_2 
REMARK    2  A    between atoms: C_12  and  S_5 
REMARK    3  A    between atoms: N_11  and  C_8 
REMARK    4  A    between atoms: C_19  and  N_11 
REMARK    5  A    between atoms: C_32  and  C_26 
ROOT
ATOM      1  C   UNL d   1      14.546  15.752  -2.751  0.00  0.00     0.197 A 
ATOM      2  C   UNL d   1      14.261  15.572  -3.502  0.00  0.00     0.227 A 
ATOM      3  N   UNL d   1      14.816  16.534  -2.759  0.00  0.00    -0.192 N 
ATOM      4  N   UNL d   1      14.596  15.304  -2.055  0.00  0.00    -0.206 NA
ATOM      5  N   UNL d   1      14.354  16.247  -3.983  0.00  0.00    -0.115 NA
ATOM      6  N   UNL d   1      14.699  16.840  -3.516  0.00  0.00    -0.058 NA
ATOM      7  C   UNL d   1      14.916  15.635  -1.363  0.00  0.00     0.166 A 
ATOM      8  C   UNL d   1      15.184  16.418  -1.381  0.00  0.00     0.054 A 
ATOM      9  C   UNL d   1      15.138  16.870  -2.069  0.00  0.00     0.089 A 
ATOM     10  C   UNL d   1      15.406  17.651  -2.083  0.00  0.00     0.020 A 
ATOM     11  C   UNL d   1      15.505  16.757  -0.694  0.00  0.00     0.016 A 
ATOM     12  C   UNL d   1      15.774  17.538  -0.707  0.00  0.00     0.058 A 
ATOM     13  C   UNL d   1      15.724  17.983  -1.399  0.00  0.00     0.013 A 
ATOM     14 CL   UNL d   1      16.092  17.868  -0.022  0.00  0.00    -0.082 Cl
ENDROOT
BRANCH   2  15
ATOM     15  S   UNL d   1      13.938  14.854  -3.747  0.00  0.00     0.231 S 
ATOM     16  O   UNL d   1      13.179  15.086  -3.529  0.00  0.00    -0.215 OA
ATOM     17  O   UNL d   1      14.698  14.626  -3.965  0.00  0.00    -0.215 OA
BRANCH  15  18
ATOM     18  C   UNL d   1      13.675  14.120  -4.010  0.00  0.00     0.090 A 
ATOM     19  C   UNL d   1      14.036  13.434  -3.756  0.00  0.00     0.011 A 
ATOM     20  C   UNL d   1      13.775  12.703  -4.016  0.00  0.00     0.001 A 
ATOM     21  C   UNL d   1      13.136  12.660  -4.546  0.00  0.00     0.000 A 
ATOM     22  C   UNL d   1      12.771  13.357  -4.803  0.00  0.00     0.001 A 
ATOM     23  C   UNL d   1      13.036  14.083  -4.539  0.00  0.00     0.011 A 
BRANCH  21  24
ATOM     24  C   UNL d   1      12.873  11.933  -4.808  0.00  0.00     0.000 C 
ATOM     25  C   UNL d   1      12.773  11.790  -5.618  0.00  0.00     0.000 C 
ENDBRANCH  21  24
ENDBRANCH  15  18
ENDBRANCH   2  15
BRANCH   7  26
ATOM     26  N   UNL d   1      14.966  15.190  -0.671  0.00  0.00    -0.227 NA
BRANCH  26  27
ATOM     27  C   UNL d   1      14.911  14.365  -0.707  0.00  0.00     0.083 A 
ATOM     28  C   UNL d   1      15.567  13.917  -0.919  0.00  0.00     0.021 A 
ATOM     29  C   UNL d   1      15.518  13.100  -0.955  0.00  0.00     0.031 A 
ATOM     30  C   UNL d   1      14.796  12.724  -0.776  0.00  0.00     0.140 A 
ATOM     31  C   UNL d   1      14.133  13.183  -0.562  0.00  0.00     0.031 A 
ATOM     32  F   UNL d   1      14.746  11.908  -0.813  0.00  0.00    -0.204 F 
ATOM     33  C   UNL d   1      14.202  14.000  -0.530  0.00  0.00     0.021 A 
ENDBRANCH  26  27
ENDBRANCH   7  26
TORSDOF 5
ENDMDL
MODEL 2
REMARK VINA RESULT:      80.8      1.579      2.825
REMARK  5 active torsions:
REMARK  status: ('A' for Active; 'I' for Inactive)
REMARK    1  A    between atoms: S_5  and  C_2 
REMARK    2  A    between atoms: C_12  and  S_5 
REMARK    3  A    between atoms: N_11  and  C_8 
REMARK    4  A    between atoms: C_19  and  N_11 
REMARK    5  A    between atoms: C_32  and  C_26 
ROOT
ATOM      1  C   UNL d   1      14.710  14.618  -1.762  0.00  0.00     0.197 A 
ATOM      2  C   UNL d   1      14.505  13.821  -1.760  0.00  0.00     0.227 A 
ATOM      3  N   UNL d   1      15.091  14.787  -1.047  0.00  0.00    -0.192 N 
ATOM      4  N   UNL d   1      14.598  15.217  -2.323  0.00  0.00    -0.206 NA
ATOM      5  N   UNL d   1      14.760  13.489  -1.039  0.00  0.00    -0.115 NA
ATOM      6  N   UNL d   1      15.124  14.093  -0.601  0.00  0.00    -0.058 NA
ATOM      7  C   UNL d   1      14.868  15.989  -2.174  0.00  0.00     0.166 A 
ATOM      8  C   UNL d   1      15.249  16.149  -1.457  0.00  0.00     0.054 A 
ATOM      9  C   UNL d   1      15.364  15.558  -0.893  0.00  0.00     0.089 A 
ATOM     10  C   UNL d   1      15.744  15.721  -0.179  0.00  0.00     0.020 A 
ATOM     11  C   UNL d   1      15.522  16.917  -1.300  0.00  0.00     0.016 A 
ATOM     12  C   UNL d   1      15.903  17.082  -0.586  0.00  0.00     0.058 A 
ATOM     13  C   UNL d   1      16.014  16.485  -0.027  0.00  0.00     0.013 A 
ATOM     14 CL   UNL d   1      16.171  17.847  -0.436  0.00  0.00    -0.082 Cl
ENDROOT
BRANCH   2  15
ATOM     15  S   UNL d   1      14.115  13.411  -2.359  0.00  0.00     0.231 S 
ATOM     16  O   UNL d   1      13.394  13.458  -1.965  0.00  0.00    -0.215 OA
ATOM     17  O   UNL d   1      14.837  13.366  -2.752  0.00  0.00    -0.215 OA
BRANCH  15  18
ATOM     18  C   UNL d   1      13.782  12.998  -2.989  0.00  0.00     0.090 A 
ATOM     19  C   UNL d   1      13.965  12.214  -3.114  0.00  0.00     0.011 A 
ATOM     20  C   UNL d   1      13.634  11.802  -3.741  0.00  0.00     0.001 A 
ATOM     21  C   UNL d   1      13.108  12.190  -4.253  0.00  0.00     0.000 A 
ATOM     22  C   UNL d   1      12.924  12.986  -4.125  0.00  0.00     0.001 A 
ATOM     23  C   UNL d   1      13.257  13.391  -3.499  0.00  0.00     0.011 A 
BRANCH  21  24
ATOM     24  C   UNL d   1      12.776  11.782  -4.880  0.00  0.00     0.000 C 
ATOM     25  C   UNL d   1      13.144  11.783  -5.622  0.00  0.00     0.000 C 
ENDBRANCH  21  24
ENDBRANCH  15  18
ENDBRANCH   2  15
BRANCH   7  26
ATOM     26  N   UNL d   1      14.758  16.586  -2.733  0.00  0.00    -0.227 NA
BRANCH  26  27
ATOM     27  C   UNL d   1      14.764  16.402  -3.539  0.00  0.00     0.083 A 
ATOM     28  C   UNL d   1      14.065  16.187  -3.918  0.00  0.00     0.021 A 
ATOM     29  C   UNL d   1      14.066  16.004  -4.716  0.00  0.00     0.031 A 
ATOM     30  C   UNL d   1      14.780  16.035  -5.144  0.00  0.00     0.140 A 
ATOM     31  C   UNL d   1      15.485  16.253  -4.756  0.00  0.00     0.031 A 
ATOM     32  F   UNL d   1      14.781  15.852  -5.942  0.00  0.00    -0.204 F 
ATOM     33  C   UNL d   1      15.466  16.434  -3.956  0.00  0.00     0.021 A 
ENDBRANCH  26  27
ENDBRANCH   7  26
TORSDOF 5
ENDMDL
