MODEL 1
REMARK VINA RESULT:      51.5      0.000      0.000
REMARK  5 active torsions:
REMARK  status: ('A' for Active; 'I' for Inactive)
REMARK    1  A    between atoms: N_3  and  S_1 
REMARK    2  A    between atoms: C_11  and  S_1 
REMARK    3  A    between atoms: C_9  and  C_2 
REMARK    4  A    between atoms: C_4  and  N_7 
REMARK       I    between atoms: N_7  and  C_10 
REMARK    5  A    between atoms: C_10  and  C_14 
ROOT
ATOM      1  C   UNL d   1      45.618 -16.530  44.262  0.00  0.00     0.104 A 
ATOM      2  C   UNL d   1      45.897 -18.164  44.266  0.00  0.00     0.058 A 
ATOM      3  C   UNL d   1      45.061 -17.043  43.966  0.00  0.00     0.013 A 
ATOM      4  C   UNL d   1      46.325 -16.844  44.565  0.00  0.00     0.013 A 
ATOM      5  C   UNL d   1      45.193 -17.857  43.965  0.00  0.00     0.005 A 
ATOM      6  C   UNL d   1      46.457 -17.658  44.563  0.00  0.00     0.005 A 
ENDROOT
BRANCH   2   7
ATOM      7  C   UNL d   1      46.038 -18.997  44.267  0.00  0.00     0.282 C 
ATOM      8  N   UNL d   1      46.294 -19.378  43.579  0.00  0.00    -0.165 NA
ATOM      9  O   UNL d   1      45.919 -19.414  44.949  0.00  0.00    -0.265 OA
BRANCH   8  10
ATOM     10  C   UNL d   1      46.410 -18.954  42.900  0.00  0.00     0.297 A 
ATOM     11  O   UNL d   1      46.341 -19.329  42.159  0.00  0.00    -0.253 OA
ATOM     12  C   UNL d   1      46.489 -18.759  41.588  0.00  0.00     0.207 A 
ATOM     13  N   UNL d   1      46.644 -18.054  41.964  0.00  0.00    -0.119 NA
ATOM     14  N   UNL d   1      46.597 -18.169  42.778  0.00  0.00    -0.101 NA
BRANCH  12  15
ATOM     15  C   UNL d   1      46.465 -18.947  40.781  0.00  0.00     0.054 A 
ATOM     16  C   UNL d   1      46.262 -18.361  40.241  0.00  0.00     0.061 A 
ATOM     17 CL   UNL d   1      46.086 -17.598  40.502  0.00  0.00    -0.082 Cl
ATOM     18  C   UNL d   1      46.238 -18.546  39.436  0.00  0.00     0.011 A 
ATOM     19  C   UNL d   1      46.414 -19.307  39.166  0.00  0.00     0.001 A 
ATOM     20  C   UNL d   1      46.615 -19.888  39.700  0.00  0.00     0.000 A 
ATOM     21  C   UNL d   1      46.641 -19.711  40.507  0.00  0.00     0.004 A 
ENDBRANCH  12  15
ENDBRANCH   8  10
ENDBRANCH   2   7
BRANCH   1  22
ATOM     22  S   UNL d   1      45.473 -15.709  44.259  0.00  0.00     0.271 S 
ATOM     23  O   UNL d   1      44.908 -15.799  43.660  0.00  0.00    -0.200 OA
ATOM     24  O   UNL d   1      46.037 -15.619  44.855  0.00  0.00    -0.200 OA
BRANCH  22  25
ATOM     25  N   UNL d   1      45.347 -14.898  44.272  0.00  0.00    -0.231 N 
ATOM     26  C   UNL d   1      45.717 -14.425  43.699  0.00  0.00     0.075 A 
ATOM     27  C   UNL d   1      46.200 -14.766  43.128  0.00  0.00     0.020 C 
ATOM     28  C   UNL d   1      45.597 -13.609  43.704  0.00  0.00     0.018 A 
ATOM     29  C   UNL d   1      45.113 -13.268  44.275  0.00  0.00     0.003 A 
ATOM     30  C   UNL d   1      44.749 -13.743  44.841  0.00  0.00     0.020 A 
ATOM     31  C   UNL d   1      44.869 -14.560  44.837  0.00  0.00     0.092 A 
ENDBRANCH  22  25
ENDBRANCH   1  22
TORSDOF 5
ENDMDL
