MODEL 1
REMARK VINA RESULT:      -9.1      0.000      0.000
REMARK  6 active torsions:
REMARK  status: ('A' for Active; 'I' for Inactive)
REMARK    1  A    between atoms: C_7  and  C_1 
REMARK    2  A    between atoms: O_11  and  C_2 
REMARK    3  A    between atoms: O_13  and  C_10 
REMARK    4  A    between atoms: C_20  and  O_11 
REMARK    5  A    between atoms: C_21  and  C_12 
REMARK    6  A    between atoms: C_14  and  O_13 
ROOT
ATOM      1  C   UNL d   1      54.057  32.548  54.452  0.00  0.00     0.197 A 
ATOM      2  C   UNL d   1      53.698  32.810  53.732  0.00  0.00     0.165 A 
ATOM      3  O   UNL d   1      54.036  31.745  54.651  0.00  0.00    -0.301 OA
ATOM      4  C   UNL d   1      53.334  32.250  53.246  0.00  0.00     0.222 A 
ATOM      5  C   UNL d   1      53.312  31.448  53.444  0.00  0.00     0.064 A 
ATOM      6  C   UNL d   1      53.675  31.202  54.164  0.00  0.00     0.105 A 
ATOM      7  C   UNL d   1      52.951  30.909  52.957  0.00  0.00     0.007 A 
ATOM      8  C   UNL d   1      53.655  30.400  54.365  0.00  0.00     0.050 A 
ATOM      9  C   UNL d   1      53.289  29.860  53.871  0.00  0.00     0.105 A 
ATOM     10  C   UNL d   1      52.932  30.111  53.157  0.00  0.00     0.023 A 
ATOM     11  O   UNL d   1      52.975  32.521  52.524  0.00  0.00    -0.284 OA
ENDROOT
BRANCH   2  12
ATOM     12  O   UNL d   1      53.710  33.608  53.517  0.00  0.00    -0.302 OA
BRANCH  12  13
ATOM     13  C   UNL d   1      53.005  34.010  53.424  0.00  0.00     0.100 A 
ATOM     14  C   UNL d   1      52.479  34.115  54.058  0.00  0.00     0.025 A 
ATOM     15  C   UNL d   1      51.790  34.515  53.941  0.00  0.00     0.002 A 
ATOM     16  C   UNL d   1      51.593  34.826  53.201  0.00  0.00     0.000 A 
ATOM     17  C   UNL d   1      52.108  34.721  52.592  0.00  0.00     0.002 A 
ATOM     18  C   UNL d   1      52.808  34.321  52.683  0.00  0.00     0.025 A 
ENDBRANCH  12  13
ENDBRANCH   2  12
BRANCH   1  19
ATOM     19  C   UNL d   1      54.431  33.077  54.964  0.00  0.00     0.442 C 
ATOM     20  F   UNL d   1      54.805  33.614  55.489  0.00  0.00    -0.164 F 
ATOM     21  F   UNL d   1      55.059  33.174  54.416  0.00  0.00    -0.164 F 
ATOM     22  F   UNL d   1      53.799  32.977  55.513  0.00  0.00    -0.164 F 
ENDBRANCH   1  19
BRANCH  10  23
ATOM     23  C   UNL d   1      52.558  29.582  52.645  0.00  0.00     0.002 C 
ATOM     24  C   UNL d   1      52.738  29.562  51.975  0.00  0.00     0.000 C 
ENDBRANCH  10  23
BRANCH   9  25
ATOM     25  O   UNL d   1      53.278  29.066  54.084  0.00  0.00    -0.273 OA
BRANCH  25  26
ATOM     26  C   UNL d   1      53.255  28.841  54.875  0.00  0.00     0.300 C 
ATOM     27  O   UNL d   1      52.586  29.008  55.343  0.00  0.00    -0.259 OA
ATOM     28  C   UNL d   1      53.880  28.453  55.217  0.00  0.00     0.074 C 
ENDBRANCH  25  26
ENDBRANCH   9  25
TORSDOF 6
ENDMDL
MODEL 2
REMARK VINA RESULT:      -8.1      1.884      4.500
REMARK  6 active torsions:
REMARK  status: ('A' for Active; 'I' for Inactive)
REMARK    1  A    between atoms: C_7  and  C_1 
REMARK    2  A    between atoms: O_11  and  C_2 
REMARK    3  A    between atoms: O_13  and  C_10 
REMARK    4  A    between atoms: C_20  and  O_11 
REMARK    5  A    between atoms: C_21  and  C_12 
REMARK    6  A    between atoms: C_14  and  O_13 
ROOT
ATOM      1  C   UNL d   1      52.214  32.676  53.074  0.00  0.00     0.197 A 
ATOM      2  C   UNL d   1      52.866  32.137  53.088  0.00  0.00     0.165 A 
ATOM      3  O   UNL d   1      52.262  33.386  53.496  0.00  0.00    -0.301 OA
ATOM      4  C   UNL d   1      53.536  32.339  53.527  0.00  0.00     0.222 A 
ATOM      5  C   UNL d   1      53.585  33.048  53.948  0.00  0.00     0.064 A 
ATOM      6  C   UNL d   1      52.928  33.575  53.925  0.00  0.00     0.105 A 
ATOM      7  C   UNL d   1      54.249  33.233  54.375  0.00  0.00     0.007 A 
ATOM      8  C   UNL d   1      52.973  34.285  54.346  0.00  0.00     0.050 A 
ATOM      9  C   UNL d   1      53.646  34.469  54.775  0.00  0.00     0.105 A 
ATOM     10  C   UNL d   1      54.294  33.940  54.794  0.00  0.00     0.023 A 
ATOM     11  O   UNL d   1      54.188  31.792  53.536  0.00  0.00    -0.284 OA
ENDROOT
BRANCH   2  12
ATOM     12  O   UNL d   1      52.836  31.423  52.673  0.00  0.00    -0.302 OA
BRANCH  12  13
ATOM     13  C   UNL d   1      52.871  30.717  53.082  0.00  0.00     0.100 A 
ATOM     14  C   UNL d   1      52.201  30.400  53.457  0.00  0.00     0.025 A 
ATOM     15  C   UNL d   1      52.261  29.703  53.854  0.00  0.00     0.002 A 
ATOM     16  C   UNL d   1      52.977  29.292  53.898  0.00  0.00     0.000 A 
ATOM     17  C   UNL d   1      53.621  29.605  53.533  0.00  0.00     0.002 A 
ATOM     18  C   UNL d   1      53.587  30.306  53.126  0.00  0.00     0.025 A 
ENDBRANCH  12  13
ENDBRANCH   2  12
BRANCH   1  19
ATOM     19  C   UNL d   1      51.528  32.510  52.648  0.00  0.00     0.442 C 
ATOM     20  F   UNL d   1      50.825  32.340  52.220  0.00  0.00    -0.164 F 
ATOM     21  F   UNL d   1      51.933  32.652  51.927  0.00  0.00    -0.164 F 
ATOM     22  F   UNL d   1      51.122  32.369  53.373  0.00  0.00    -0.164 F 
ENDBRANCH   1  19
BRANCH  10  23
ATOM     23  C   UNL d   1      54.981  34.106  55.220  0.00  0.00     0.002 C 
ATOM     24  C   UNL d   1      55.558  33.737  55.107  0.00  0.00     0.000 C 
ENDBRANCH  10  23
BRANCH   9  25
ATOM     25  O   UNL d   1      53.676  35.178  55.189  0.00  0.00    -0.273 OA
BRANCH  25  26
ATOM     26  C   UNL d   1      53.232  35.828  54.947  0.00  0.00     0.300 C 
ATOM     27  O   UNL d   1      53.524  36.345  54.363  0.00  0.00    -0.259 OA
ATOM     28  C   UNL d   1      52.503  35.978  55.270  0.00  0.00     0.074 C 
ENDBRANCH  25  26
ENDBRANCH   9  25
TORSDOF 6
ENDMDL
MODEL 3
REMARK VINA RESULT:      -8.0      1.330      4.222
REMARK  6 active torsions:
REMARK  status: ('A' for Active; 'I' for Inactive)
REMARK    1  A    between atoms: C_7  and  C_1 
REMARK    2  A    between atoms: O_11  and  C_2 
REMARK    3  A    between atoms: O_13  and  C_10 
REMARK    4  A    between atoms: C_20  and  O_11 
REMARK    5  A    between atoms: C_21  and  C_12 
REMARK    6  A    between atoms: C_14  and  O_13 
ROOT
ATOM      1  C   UNL d   1      54.164  32.746  53.415  0.00  0.00     0.197 A 
ATOM      2  C   UNL d   1      53.580  32.264  53.037  0.00  0.00     0.165 A 
ATOM      3  O   UNL d   1      53.958  33.499  53.690  0.00  0.00    -0.301 OA
ATOM      4  C   UNL d   1      52.815  32.564  52.955  0.00  0.00     0.222 A 
ATOM      5  C   UNL d   1      52.608  33.316  53.229  0.00  0.00     0.064 A 
ATOM      6  C   UNL d   1      53.200  33.784  53.603  0.00  0.00     0.105 A 
ATOM      7  C   UNL d   1      51.852  33.597  53.141  0.00  0.00     0.007 A 
ATOM      8  C   UNL d   1      52.997  34.536  53.879  0.00  0.00     0.050 A 
ATOM      9  C   UNL d   1      52.233  34.817  53.788  0.00  0.00     0.105 A 
ATOM     10  C   UNL d   1      51.650  34.346  53.416  0.00  0.00     0.023 A 
ATOM     11  O   UNL d   1      52.232  32.074  52.574  0.00  0.00    -0.284 OA
ENDROOT
BRANCH   2  12
ATOM     12  O   UNL d   1      53.768  31.510  52.756  0.00  0.00    -0.302 OA
BRANCH  12  13
ATOM     13  C   UNL d   1      53.430  30.854  53.107  0.00  0.00     0.100 A 
ATOM     14  C   UNL d   1      53.601  30.646  53.892  0.00  0.00     0.025 A 
ATOM     15  C   UNL d   1      53.256  29.995  54.215  0.00  0.00     0.002 A 
ATOM     16  C   UNL d   1      52.731  29.526  53.781  0.00  0.00     0.000 A 
ATOM     17  C   UNL d   1      52.570  29.733  53.021  0.00  0.00     0.002 A 
ATOM     18  C   UNL d   1      52.905  30.385  52.673  0.00  0.00     0.025 A 
ENDBRANCH  12  13
ENDBRANCH   2  12
BRANCH   1  19
ATOM     19  C   UNL d   1      54.939  32.482  53.516  0.00  0.00     0.442 C 
ATOM     20  F   UNL d   1      55.729  32.215  53.612  0.00  0.00    -0.164 F 
ATOM     21  F   UNL d   1      54.806  32.385  54.338  0.00  0.00    -0.164 F 
ATOM     22  F   UNL d   1      55.071  32.580  52.689  0.00  0.00    -0.164 F 
ENDBRANCH   1  19
BRANCH  10  23
ATOM     23  C   UNL d   1      50.874  34.610  53.315  0.00  0.00     0.002 C 
ATOM     24  C   UNL d   1      50.478  34.341  52.812  0.00  0.00     0.000 C 
ENDBRANCH  10  23
BRANCH   9  25
ATOM     25  O   UNL d   1      52.046  35.567  54.067  0.00  0.00    -0.273 OA
BRANCH  25  26
ATOM     26  C   UNL d   1      52.576  35.989  54.534  0.00  0.00     0.300 C 
ATOM     27  O   UNL d   1      53.161  36.465  54.183  0.00  0.00    -0.259 OA
ATOM     28  C   UNL d   1      52.541  35.950  55.344  0.00  0.00     0.074 C 
ENDBRANCH  25  26
ENDBRANCH   9  25
TORSDOF 6
ENDMDL
MODEL 4
REMARK VINA RESULT:      -7.7      1.779      4.583
REMARK  6 active torsions:
REMARK  status: ('A' for Active; 'I' for Inactive)
REMARK    1  A    between atoms: C_7  and  C_1 
REMARK    2  A    between atoms: O_11  and  C_2 
REMARK    3  A    between atoms: O_13  and  C_10 
REMARK    4  A    between atoms: C_20  and  O_11 
REMARK    5  A    between atoms: C_21  and  C_12 
REMARK    6  A    between atoms: C_14  and  O_13 
ROOT
ATOM      1  C   UNL d   1      52.808  30.868  52.879  0.00  0.00     0.197 A 
ATOM      2  C   UNL d   1      53.423  30.888  53.460  0.00  0.00     0.165 A 
ATOM      3  O   UNL d   1      52.385  31.558  52.708  0.00  0.00    -0.301 OA
ATOM      4  C   UNL d   1      53.583  31.603  53.841  0.00  0.00     0.222 A 
ATOM      5  C   UNL d   1      53.161  32.293  53.670  0.00  0.00     0.064 A 
ATOM      6  C   UNL d   1      52.552  32.257  53.090  0.00  0.00     0.105 A 
ATOM      7  C   UNL d   1      53.329  32.988  54.052  0.00  0.00     0.007 A 
ATOM      8  C   UNL d   1      52.128  32.946  52.916  0.00  0.00     0.050 A 
ATOM      9  C   UNL d   1      52.300  33.646  53.305  0.00  0.00     0.105 A 
ATOM     10  C   UNL d   1      52.907  33.673  53.880  0.00  0.00     0.023 A 
ATOM     11  O   UNL d   1      54.203  31.615  54.424  0.00  0.00    -0.284 OA
ENDROOT
BRANCH   2  12
ATOM     12  O   UNL d   1      53.855  30.208  53.643  0.00  0.00    -0.302 OA
BRANCH  12  13
ATOM     13  C   UNL d   1      53.641  29.757  54.290  0.00  0.00     0.100 A 
ATOM     14  C   UNL d   1      53.341  30.106  54.981  0.00  0.00     0.025 A 
ATOM     15  C   UNL d   1      53.137  29.641  55.605  0.00  0.00     0.002 A 
ATOM     16  C   UNL d   1      53.220  28.818  55.574  0.00  0.00     0.000 A 
ATOM     17  C   UNL d   1      53.511  28.488  54.902  0.00  0.00     0.002 A 
ATOM     18  C   UNL d   1      53.724  28.935  54.259  0.00  0.00     0.025 A 
ENDBRANCH  12  13
ENDBRANCH   2  12
BRANCH   1  19
ATOM     19  C   UNL d   1      52.618  30.173  52.477  0.00  0.00     0.442 C 
ATOM     20  F   UNL d   1      52.431  29.467  52.063  0.00  0.00    -0.164 F 
ATOM     21  F   UNL d   1      51.901  30.112  52.906  0.00  0.00    -0.164 F 
ATOM     22  F   UNL d   1      53.340  30.237  52.046  0.00  0.00    -0.164 F 
ENDBRANCH   1  19
BRANCH  10  23
ATOM     23  C   UNL d   1      53.097  34.368  54.282  0.00  0.00     0.002 C 
ATOM     24  C   UNL d   1      53.491  34.343  54.854  0.00  0.00     0.000 C 
ENDBRANCH  10  23
BRANCH   9  25
ATOM     25  O   UNL d   1      51.870  34.322  53.122  0.00  0.00    -0.273 OA
BRANCH  25  26
ATOM     26  C   UNL d   1      51.267  34.301  52.563  0.00  0.00     0.300 C 
ATOM     27  O   UNL d   1      51.443  34.334  51.749  0.00  0.00    -0.259 OA
ATOM     28  C   UNL d   1      50.490  34.249  52.790  0.00  0.00     0.074 C 
ENDBRANCH  25  26
ENDBRANCH   9  25
TORSDOF 6
ENDMDL
MODEL 5
REMARK VINA RESULT:      -7.1      2.450      4.902
REMARK  6 active torsions:
REMARK  status: ('A' for Active; 'I' for Inactive)
REMARK    1  A    between atoms: C_7  and  C_1 
REMARK    2  A    between atoms: O_11  and  C_2 
REMARK    3  A    between atoms: O_13  and  C_10 
REMARK    4  A    between atoms: C_20  and  O_11 
REMARK    5  A    between atoms: C_21  and  C_12 
REMARK    6  A    between atoms: C_14  and  O_13 
ROOT
ATOM      1  C   UNL d   1      51.999  34.693  53.644  0.00  0.00     0.197 A 
ATOM      2  C   UNL d   1      52.174  34.204  52.975  0.00  0.00     0.165 A 
ATOM      3  O   UNL d   1      51.239  35.007  53.732  0.00  0.00    -0.301 OA
ATOM      4  C   UNL d   1      51.574  34.056  52.427  0.00  0.00     0.222 A 
ATOM      5  C   UNL d   1      50.815  34.369  52.515  0.00  0.00     0.064 A 
ATOM      6  C   UNL d   1      50.655  34.854  53.185  0.00  0.00     0.105 A 
ATOM      7  C   UNL d   1      50.236  34.215  51.968  0.00  0.00     0.007 A 
ATOM      8  C   UNL d   1      49.896  35.169  53.276  0.00  0.00     0.050 A 
ATOM      9  C   UNL d   1      49.314  35.011  52.722  0.00  0.00     0.105 A 
ATOM     10  C   UNL d   1      49.480  34.529  52.059  0.00  0.00     0.023 A 
ATOM     11  O   UNL d   1      51.758  33.564  51.758  0.00  0.00    -0.284 OA
ENDROOT
BRANCH   2  12
ATOM     12  O   UNL d   1      52.927  33.882  52.871  0.00  0.00    -0.302 OA
BRANCH  12  13
ATOM     13  C   UNL d   1      53.057  33.094  53.046  0.00  0.00     0.100 A 
ATOM     14  C   UNL d   1      52.488  32.514  52.875  0.00  0.00     0.025 A 
ATOM     15  C   UNL d   1      52.638  31.744  53.057  0.00  0.00     0.002 A 
ATOM     16  C   UNL d   1      53.349  31.517  53.412  0.00  0.00     0.000 A 
ATOM     17  C   UNL d   1      53.895  32.085  53.575  0.00  0.00     0.002 A 
ATOM     18  C   UNL d   1      53.768  32.867  53.401  0.00  0.00     0.025 A 
ENDBRANCH  12  13
ENDBRANCH   2  12
BRANCH   1  19
ATOM     19  C   UNL d   1      52.571  34.864  54.213  0.00  0.00     0.442 C 
ATOM     20  F   UNL d   1      53.156  35.044  54.787  0.00  0.00    -0.164 F 
ATOM     21  F   UNL d   1      52.199  34.343  54.754  0.00  0.00    -0.164 F 
ATOM     22  F   UNL d   1      52.943  35.388  53.667  0.00  0.00    -0.164 F 
ENDBRANCH   1  19
BRANCH  10  23
ATOM     23  C   UNL d   1      48.908  34.357  51.489  0.00  0.00     0.002 C 
ATOM     24  C   UNL d   1      49.070  34.383  50.815  0.00  0.00     0.000 C 
ENDBRANCH  10  23
BRANCH   9  25
ATOM     25  O   UNL d   1      48.565  35.332  52.826  0.00  0.00    -0.273 OA
BRANCH  25  26
ATOM     26  C   UNL d   1      48.424  35.899  53.406  0.00  0.00     0.300 C 
ATOM     27  O   UNL d   1      48.664  36.688  53.291  0.00  0.00    -0.259 OA
ATOM     28  C   UNL d   1      48.049  35.703  54.098  0.00  0.00     0.074 C 
ENDBRANCH  25  26
ENDBRANCH   9  25
TORSDOF 6
ENDMDL
MODEL 6
REMARK VINA RESULT:      -6.3      2.083      4.455
REMARK  6 active torsions:
REMARK  status: ('A' for Active; 'I' for Inactive)
REMARK    1  A    between atoms: C_7  and  C_1 
REMARK    2  A    between atoms: O_11  and  C_2 
REMARK    3  A    between atoms: O_13  and  C_10 
REMARK    4  A    between atoms: C_20  and  O_11 
REMARK    5  A    between atoms: C_21  and  C_12 
REMARK    6  A    between atoms: C_14  and  O_13 
ROOT
ATOM      1  C   UNL d   1      52.414  32.096  52.993  0.00  0.00     0.197 A 
ATOM      2  C   UNL d   1      52.645  32.513  53.693  0.00  0.00     0.165 A 
ATOM      3  O   UNL d   1      51.811  32.401  52.516  0.00  0.00    -0.301 OA
ATOM      4  C   UNL d   1      52.256  33.217  53.878  0.00  0.00     0.222 A 
ATOM      5  C   UNL d   1      51.653  33.522  53.402  0.00  0.00     0.064 A 
ATOM      6  C   UNL d   1      51.435  33.096  52.709  0.00  0.00     0.105 A 
ATOM      7  C   UNL d   1      51.279  34.215  53.597  0.00  0.00     0.007 A 
ATOM      8  C   UNL d   1      50.832  33.398  52.230  0.00  0.00     0.050 A 
ATOM      9  C   UNL d   1      50.457  34.098  52.430  0.00  0.00     0.105 A 
ATOM     10  C   UNL d   1      50.679  34.516  53.120  0.00  0.00     0.023 A 
ATOM     11  O   UNL d   1      52.493  33.631  54.583  0.00  0.00    -0.284 OA
ENDROOT
BRANCH   2  12
ATOM     12  O   UNL d   1      53.245  32.224  54.181  0.00  0.00    -0.302 OA
BRANCH  12  13
ATOM     13  C   UNL d   1      53.909  32.682  54.318  0.00  0.00     0.100 A 
ATOM     14  C   UNL d   1      54.421  32.897  53.701  0.00  0.00     0.025 A 
ATOM     15  C   UNL d   1      55.068  33.349  53.861  0.00  0.00     0.002 A 
ATOM     16  C   UNL d   1      55.235  33.604  54.629  0.00  0.00     0.000 A 
ATOM     17  C   UNL d   1      54.734  33.391  55.221  0.00  0.00     0.002 A 
ATOM     18  C   UNL d   1      54.076  32.937  55.086  0.00  0.00     0.025 A 
ENDBRANCH  12  13
ENDBRANCH   2  12
BRANCH   1  19
ATOM     19  C   UNL d   1      52.779  31.389  52.774  0.00  0.00     0.442 C 
ATOM     20  F   UNL d   1      53.146  30.666  52.556  0.00  0.00    -0.164 F 
ATOM     21  F   UNL d   1      53.220  31.791  52.185  0.00  0.00    -0.164 F 
ATOM     22  F   UNL d   1      52.335  30.987  53.366  0.00  0.00    -0.164 F 
ENDBRANCH   1  19
BRANCH  10  23
ATOM     23  C   UNL d   1      50.314  35.223  53.339  0.00  0.00     0.002 C 
ATOM     24  C   UNL d   1      49.924  35.249  53.913  0.00  0.00     0.000 C 
ENDBRANCH  10  23
BRANCH   9  25
ATOM     25  O   UNL d   1      49.859  34.385  51.944  0.00  0.00    -0.273 OA
BRANCH  25  26
ATOM     26  C   UNL d   1      49.894  34.287  51.128  0.00  0.00     0.300 C 
ATOM     27  O   UNL d   1      50.593  34.462  50.711  0.00  0.00    -0.259 OA
ATOM     28  C   UNL d   1      49.251  34.018  50.713  0.00  0.00     0.074 C 
ENDBRANCH  25  26
ENDBRANCH   9  25
TORSDOF 6
ENDMDL
MODEL 7
REMARK VINA RESULT:      -6.2      2.452      4.014
REMARK  6 active torsions:
REMARK  status: ('A' for Active; 'I' for Inactive)
REMARK    1  A    between atoms: C_7  and  C_1 
REMARK    2  A    between atoms: O_11  and  C_2 
REMARK    3  A    between atoms: O_13  and  C_10 
REMARK    4  A    between atoms: C_20  and  O_11 
REMARK    5  A    between atoms: C_21  and  C_12 
REMARK    6  A    between atoms: C_14  and  O_13 
ROOT
ATOM      1  C   UNL d   1      52.312  32.807  53.036  0.00  0.00     0.197 A 
ATOM      2  C   UNL d   1      51.985  33.495  52.667  0.00  0.00     0.165 A 
ATOM      3  O   UNL d   1      52.851  32.893  53.657  0.00  0.00    -0.301 OA
ATOM      4  C   UNL d   1      52.218  34.238  52.943  0.00  0.00     0.222 A 
ATOM      5  C   UNL d   1      52.756  34.325  53.563  0.00  0.00     0.064 A 
ATOM      6  C   UNL d   1      53.073  33.631  53.920  0.00  0.00     0.105 A 
ATOM      7  C   UNL d   1      52.975  35.061  53.824  0.00  0.00     0.007 A 
ATOM      8  C   UNL d   1      53.612  33.714  54.542  0.00  0.00     0.050 A 
ATOM      9  C   UNL d   1      53.831  34.459  54.802  0.00  0.00     0.105 A 
ATOM     10  C   UNL d   1      53.512  35.144  54.442  0.00  0.00     0.023 A 
ATOM     11  O   UNL d   1      51.885  34.926  52.567  0.00  0.00    -0.284 OA
ENDROOT
BRANCH   2  12
ATOM     12  O   UNL d   1      51.445  33.428  52.045  0.00  0.00    -0.302 OA
BRANCH  12  13
ATOM     13  C   UNL d   1      50.726  33.812  52.093  0.00  0.00     0.100 A 
ATOM     14  C   UNL d   1      50.293  33.834  52.801  0.00  0.00     0.025 A 
ATOM     15  C   UNL d   1      49.586  34.218  52.824  0.00  0.00     0.002 A 
ATOM     16  C   UNL d   1      49.279  34.594  52.154  0.00  0.00     0.000 A 
ATOM     17  C   UNL d   1      49.704  34.569  51.472  0.00  0.00     0.002 A 
ATOM     18  C   UNL d   1      50.419  34.188  51.423  0.00  0.00     0.025 A 
ENDBRANCH  12  13
ENDBRANCH   2  12
BRANCH   1  19
ATOM     19  C   UNL d   1      52.104  32.047  52.789  0.00  0.00     0.442 C 
ATOM     20  F   UNL d   1      51.898  31.275  52.532  0.00  0.00    -0.164 F 
ATOM     21  F   UNL d   1      51.553  31.986  53.418  0.00  0.00    -0.164 F 
ATOM     22  F   UNL d   1      52.659  32.111  52.157  0.00  0.00    -0.164 F 
ENDBRANCH   1  19
BRANCH  10  23
ATOM     23  C   UNL d   1      53.719  35.904  54.689  0.00  0.00     0.002 C 
ATOM     24  C   UNL d   1      53.234  36.398  54.739  0.00  0.00     0.000 C 
ENDBRANCH  10  23
BRANCH   9  25
ATOM     25  O   UNL d   1      54.367  34.526  55.421  0.00  0.00    -0.273 OA
BRANCH  25  26
ATOM     26  C   UNL d   1      54.945  33.952  55.543  0.00  0.00     0.300 C 
ATOM     27  O   UNL d   1      55.675  33.996  55.145  0.00  0.00    -0.259 OA
ATOM     28  C   UNL d   1      54.817  33.334  56.053  0.00  0.00     0.074 C 
ENDBRANCH  25  26
ENDBRANCH   9  25
TORSDOF 6
ENDMDL
