MODEL 1
REMARK VINA RESULT:      -6.9      0.000      0.000
REMARK  6 active torsions:
REMARK  status: ('A' for Active; 'I' for Inactive)
REMARK    1  A    between atoms: C_18  and  N_1 
REMARK    2  A    between atoms: S_7  and  C_2 
REMARK    3  A    between atoms: C_20  and  S_7 
REMARK    4  A    between atoms: C_10  and  C_20 
REMARK       I    between atoms: N_13  and  C_10 
REMARK    5  A    between atoms: C_16  and  N_13 
REMARK    6  A    between atoms: C_21  and  C_18 
ROOT
ATOM      1  N   UNL d   1      52.687  33.746  54.036  0.00  0.00    -0.253 N 
ATOM      2  C   UNL d   1      53.069  33.009  53.757  0.00  0.00     0.182 A 
ATOM      3  C   UNL d   1      53.090  34.243  54.520  0.00  0.00     0.268 A 
ATOM      4  N   UNL d   1      53.808  32.852  53.993  0.00  0.00    -0.222 NA
ATOM      5  C   UNL d   1      53.847  34.067  54.752  0.00  0.00     0.074 A 
ATOM      6  C   UNL d   1      54.218  33.359  54.486  0.00  0.00     0.088 A 
ATOM      7  O   UNL d   1      52.685  34.957  54.775  0.00  0.00    -0.267 OA
ATOM      8  C   UNL d   1      54.254  34.581  55.248  0.00  0.00     0.006 A 
ATOM      9  C   UNL d   1      54.982  33.194  54.728  0.00  0.00     0.019 A 
ATOM     10  C   UNL d   1      55.009  34.408  55.481  0.00  0.00     0.000 A 
ATOM     11  C   UNL d   1      55.387  33.712  55.226  0.00  0.00     0.002 A 
ENDROOT
BRANCH   2  12
ATOM     12  S   UNL d   1      52.661  32.481  53.252  0.00  0.00    -0.044 SA
BRANCH  12  13
ATOM     13  C   UNL d   1      52.903  31.657  53.179  0.00  0.00     0.101 C 
BRANCH  13  14
ATOM     14  C   UNL d   1      52.649  31.219  52.522  0.00  0.00     0.286 C 
ATOM     15  N   UNL d   1      52.726  30.411  52.500  0.00  0.00    -0.207 NA
ATOM     16  O   UNL d   1      52.313  31.614  51.879  0.00  0.00    -0.265 OA
BRANCH  15  17
ATOM     17  C   UNL d   1      53.067  30.003  53.150  0.00  0.00     0.087 A 
ATOM     18  C   UNL d   1      52.553  29.701  53.727  0.00  0.00     0.045 A 
ATOM     19  C   UNL d   1      52.872  29.296  54.376  0.00  0.00     0.121 A 
ATOM     20  O   UNL d   1      52.513  28.938  55.028  0.00  0.00    -0.299 OA
ATOM     21  C   UNL d   1      53.680  29.200  54.435  0.00  0.00     0.119 A 
ATOM     22  C   UNL d   1      53.133  28.623  55.484  0.00  0.00     0.304 A 
ATOM     23  O   UNL d   1      53.838  28.769  55.147  0.00  0.00    -0.300 OA
ATOM     24  C   UNL d   1      54.190  29.507  53.851  0.00  0.00     0.028 A 
ATOM     25  C   UNL d   1      53.870  29.908  53.209  0.00  0.00     0.021 A 
ENDBRANCH  15  17
ENDBRANCH  13  14
ENDBRANCH  12  13
ENDBRANCH   2  12
BRANCH   1  26
ATOM     26  C   UNL d   1      51.897  33.960  53.812  0.00  0.00     0.085 C 
BRANCH  26  27
ATOM     27  C   UNL d   1      51.762  34.522  53.220  0.00  0.00     0.019 C 
ATOM     28  C   UNL d   1      51.013  34.657  52.947  0.00  0.00     0.002 C 
ENDBRANCH  26  27
ENDBRANCH   1  26
TORSDOF 6
ENDMDL
MODEL 2
REMARK VINA RESULT:      -6.2      1.392      2.777
REMARK  6 active torsions:
REMARK  status: ('A' for Active; 'I' for Inactive)
REMARK    1  A    between atoms: C_18  and  N_1 
REMARK    2  A    between atoms: S_7  and  C_2 
REMARK    3  A    between atoms: C_20  and  S_7 
REMARK    4  A    between atoms: C_10  and  C_20 
REMARK       I    between atoms: N_13  and  C_10 
REMARK    5  A    between atoms: C_16  and  N_13 
REMARK    6  A    between atoms: C_21  and  C_18 
ROOT
ATOM      1  N   UNL d   1      52.305  34.485  53.820  0.00  0.00    -0.253 N 
ATOM      2  C   UNL d   1      52.622  33.812  53.357  0.00  0.00     0.182 A 
ATOM      3  C   UNL d   1      51.579  34.778  53.646  0.00  0.00     0.268 A 
ATOM      4  N   UNL d   1      52.179  33.509  52.776  0.00  0.00    -0.222 NA
ATOM      5  C   UNL d   1      51.138  34.455  53.046  0.00  0.00     0.074 A 
ATOM      6  C   UNL d   1      51.439  33.808  52.599  0.00  0.00     0.088 A 
ATOM      7  O   UNL d   1      51.298  35.438  54.119  0.00  0.00    -0.267 OA
ATOM      8  C   UNL d   1      50.394  34.761  52.873  0.00  0.00     0.006 A 
ATOM      9  C   UNL d   1      50.984  33.493  51.996  0.00  0.00     0.019 A 
ATOM     10  C   UNL d   1      49.953  34.442  52.275  0.00  0.00     0.000 A 
ATOM     11  C   UNL d   1      50.238  33.802  51.826  0.00  0.00     0.002 A 
ENDROOT
BRANCH   2  12
ATOM     12  S   UNL d   1      53.378  33.495  53.527  0.00  0.00    -0.044 SA
BRANCH  12  13
ATOM     13  C   UNL d   1      53.564  32.670  53.363  0.00  0.00     0.101 C 
BRANCH  13  14
ATOM     14  C   UNL d   1      54.357  32.429  53.351  0.00  0.00     0.286 C 
ATOM     15  N   UNL d   1      54.558  31.643  53.332  0.00  0.00    -0.207 NA
ATOM     16  O   UNL d   1      54.952  33.002  53.358  0.00  0.00    -0.265 OA
BRANCH  15  17
ATOM     17  C   UNL d   1      53.958  31.056  53.325  0.00  0.00     0.087 A 
ATOM     18  C   UNL d   1      53.848  30.610  54.017  0.00  0.00     0.045 A 
ATOM     19  C   UNL d   1      53.260  30.026  54.028  0.00  0.00     0.121 A 
ATOM     20  O   UNL d   1      53.021  29.502  54.619  0.00  0.00    -0.299 OA
ATOM     21  C   UNL d   1      52.804  29.899  53.364  0.00  0.00     0.119 A 
ATOM     22  C   UNL d   1      52.404  29.054  54.289  0.00  0.00     0.304 A 
ATOM     23  O   UNL d   1      52.258  29.276  53.539  0.00  0.00    -0.300 OA
ATOM     24  C   UNL d   1      52.921  30.351  52.673  0.00  0.00     0.028 A 
ATOM     25  C   UNL d   1      53.504  30.930  52.666  0.00  0.00     0.021 A 
ENDBRANCH  15  17
ENDBRANCH  13  14
ENDBRANCH  12  13
ENDBRANCH   2  12
BRANCH   1  26
ATOM     26  C   UNL d   1      52.739  34.845  54.453  0.00  0.00     0.085 C 
BRANCH  26  27
ATOM     27  C   UNL d   1      53.057  35.604  54.370  0.00  0.00     0.019 C 
ATOM     28  C   UNL d   1      53.472  35.943  54.976  0.00  0.00     0.002 C 
ENDBRANCH  26  27
ENDBRANCH   1  26
TORSDOF 6
ENDMDL
MODEL 3
REMARK VINA RESULT:      -5.9      1.500      4.661
REMARK  6 active torsions:
REMARK  status: ('A' for Active; 'I' for Inactive)
REMARK    1  A    between atoms: C_18  and  N_1 
REMARK    2  A    between atoms: S_7  and  C_2 
REMARK    3  A    between atoms: C_20  and  S_7 
REMARK    4  A    between atoms: C_10  and  C_20 
REMARK       I    between atoms: N_13  and  C_10 
REMARK    5  A    between atoms: C_16  and  N_13 
REMARK    6  A    between atoms: C_21  and  C_18 
ROOT
ATOM      1  N   UNL d   1      53.645  32.385  54.438  0.00  0.00    -0.253 N 
ATOM      2  C   UNL d   1      53.405  32.726  53.668  0.00  0.00     0.182 A 
ATOM      3  C   UNL d   1      53.612  31.591  54.547  0.00  0.00     0.268 A 
ATOM      4  N   UNL d   1      53.161  32.237  53.096  0.00  0.00    -0.222 NA
ATOM      5  C   UNL d   1      53.359  31.104  53.950  0.00  0.00     0.074 A 
ATOM      6  C   UNL d   1      53.128  31.428  53.208  0.00  0.00     0.088 A 
ATOM      7  O   UNL d   1      53.854  31.289  55.315  0.00  0.00    -0.267 OA
ATOM      8  C   UNL d   1      53.328  30.291  54.069  0.00  0.00     0.006 A 
ATOM      9  C   UNL d   1      52.875  30.925  52.614  0.00  0.00     0.019 A 
ATOM     10  C   UNL d   1      53.076  29.803  53.475  0.00  0.00     0.000 A 
ATOM     11  C   UNL d   1      52.845  30.110  52.737  0.00  0.00     0.002 A 
ENDROOT
BRANCH   2  12
ATOM     12  S   UNL d   1      53.434  33.552  53.539  0.00  0.00    -0.044 SA
BRANCH  12  13
ATOM     13  C   UNL d   1      52.746  33.984  53.249  0.00  0.00     0.101 C 
BRANCH  13  14
ATOM     14  C   UNL d   1      52.785  34.810  53.184  0.00  0.00     0.286 C 
ATOM     15  N   UNL d   1      52.135  35.245  52.971  0.00  0.00    -0.207 NA
ATOM     16  O   UNL d   1      53.500  35.193  53.340  0.00  0.00    -0.265 OA
BRANCH  15  17
ATOM     17  C   UNL d   1      51.406  34.862  52.812  0.00  0.00     0.087 A 
ATOM     18  C   UNL d   1      51.189  34.763  52.017  0.00  0.00     0.045 A 
ATOM     19  C   UNL d   1      50.471  34.387  51.840  0.00  0.00     0.121 A 
ATOM     20  O   UNL d   1      50.109  34.210  51.120  0.00  0.00    -0.299 OA
ATOM     21  C   UNL d   1      49.994  34.123  52.447  0.00  0.00     0.119 A 
ATOM     22  C   UNL d   1      49.396  33.829  51.312  0.00  0.00     0.304 A 
ATOM     23  O   UNL d   1      49.308  33.767  52.101  0.00  0.00    -0.300 OA
ATOM     24  C   UNL d   1      50.219  34.226  53.243  0.00  0.00     0.028 A 
ATOM     25  C   UNL d   1      50.931  34.600  53.414  0.00  0.00     0.021 A 
ENDBRANCH  15  17
ENDBRANCH  13  14
ENDBRANCH  12  13
ENDBRANCH   2  12
BRANCH   1  26
ATOM     26  C   UNL d   1      53.914  32.865  55.083  0.00  0.00     0.085 C 
BRANCH  26  27
ATOM     27  C   UNL d   1      54.721  33.008  55.196  0.00  0.00     0.019 C 
ATOM     28  C   UNL d   1      54.969  33.533  55.760  0.00  0.00     0.002 C 
ENDBRANCH  26  27
ENDBRANCH   1  26
TORSDOF 6
ENDMDL
MODEL 4
REMARK VINA RESULT:      -4.8      9.569     10.457
REMARK  6 active torsions:
REMARK  status: ('A' for Active; 'I' for Inactive)
REMARK    1  A    between atoms: C_18  and  N_1 
REMARK    2  A    between atoms: S_7  and  C_2 
REMARK    3  A    between atoms: C_20  and  S_7 
REMARK    4  A    between atoms: C_10  and  C_20 
REMARK       I    between atoms: N_13  and  C_10 
REMARK    5  A    between atoms: C_16  and  N_13 
REMARK    6  A    between atoms: C_21  and  C_18 
ROOT
ATOM      1  N   UNL d   1      44.633  29.949  59.111  0.00  0.00    -0.253 N 
ATOM      2  C   UNL d   1      44.502  29.151  58.774  0.00  0.00     0.182 A 
ATOM      3  C   UNL d   1      44.649  30.586  58.624  0.00  0.00     0.268 A 
ATOM      4  N   UNL d   1      44.402  29.081  57.992  0.00  0.00    -0.222 NA
ATOM      5  C   UNL d   1      44.544  30.496  57.825  0.00  0.00     0.074 A 
ATOM      6  C   UNL d   1      44.418  29.731  57.497  0.00  0.00     0.088 A 
ATOM      7  O   UNL d   1      44.780  31.354  58.987  0.00  0.00    -0.267 OA
ATOM      8  C   UNL d   1      44.562  31.154  57.332  0.00  0.00     0.006 A 
ATOM      9  C   UNL d   1      44.314  29.654  56.689  0.00  0.00     0.019 A 
ATOM     10  C   UNL d   1      44.458  31.068  56.534  0.00  0.00     0.000 A 
ATOM     11  C   UNL d   1      44.333  30.317  56.198  0.00  0.00     0.002 A 
ENDROOT
BRANCH   2  12
ATOM     12  S   UNL d   1      44.483  28.476  59.269  0.00  0.00    -0.044 SA
BRANCH  12  13
ATOM     13  C   UNL d   1      44.649  27.689  58.958  0.00  0.00     0.101 C 
BRANCH  13  14
ATOM     14  C   UNL d   1      44.687  27.048  59.483  0.00  0.00     0.286 C 
ATOM     15  N   UNL d   1      44.886  26.305  59.224  0.00  0.00    -0.207 NA
ATOM     16  O   UNL d   1      44.518  27.170  60.282  0.00  0.00    -0.265 OA
BRANCH  15  17
ATOM     17  C   UNL d   1      45.058  26.174  58.413  0.00  0.00     0.087 A 
ATOM     18  C   UNL d   1      44.555  25.667  57.990  0.00  0.00     0.045 A 
ATOM     19  C   UNL d   1      44.710  25.526  57.188  0.00  0.00     0.121 A 
ATOM     20  O   UNL d   1      44.321  25.060  56.629  0.00  0.00    -0.299 OA
ATOM     21  C   UNL d   1      45.350  25.884  56.831  0.00  0.00     0.119 A 
ATOM     22  C   UNL d   1      44.747  25.149  55.922  0.00  0.00     0.304 A 
ATOM     23  O   UNL d   1      45.366  25.638  56.021  0.00  0.00    -0.300 OA
ATOM     24  C   UNL d   1      45.851  26.392  57.263  0.00  0.00     0.028 A 
ATOM     25  C   UNL d   1      45.694  26.530  58.058  0.00  0.00     0.021 A 
ENDBRANCH  15  17
ENDBRANCH  13  14
ENDBRANCH  12  13
ENDBRANCH   2  12
BRANCH   1  26
ATOM     26  C   UNL d   1      44.746  30.078  59.941  0.00  0.00     0.085 C 
BRANCH  26  27
ATOM     27  C   UNL d   1      44.464  30.766  60.304  0.00  0.00     0.019 C 
ATOM     28  C   UNL d   1      44.635  30.919  61.080  0.00  0.00     0.002 C 
ENDBRANCH  26  27
ENDBRANCH   1  26
TORSDOF 6
ENDMDL
MODEL 5
REMARK VINA RESULT:      -4.1      2.300      5.116
REMARK  6 active torsions:
REMARK  status: ('A' for Active; 'I' for Inactive)
REMARK    1  A    between atoms: C_18  and  N_1 
REMARK    2  A    between atoms: S_7  and  C_2 
REMARK    3  A    between atoms: C_20  and  S_7 
REMARK    4  A    between atoms: C_10  and  C_20 
REMARK       I    between atoms: N_13  and  C_10 
REMARK    5  A    between atoms: C_16  and  N_13 
REMARK    6  A    between atoms: C_21  and  C_18 
ROOT
ATOM      1  N   UNL d   1      52.390  33.266  53.497  0.00  0.00    -0.253 N 
ATOM      2  C   UNL d   1      51.999  33.943  53.103  0.00  0.00     0.182 A 
ATOM      3  C   UNL d   1      52.909  33.401  54.094  0.00  0.00     0.268 A 
ATOM      4  N   UNL d   1      52.171  34.675  53.349  0.00  0.00    -0.222 NA
ATOM      5  C   UNL d   1      53.072  34.158  54.333  0.00  0.00     0.074 A 
ATOM      6  C   UNL d   1      52.699  34.812  53.957  0.00  0.00     0.088 A 
ATOM      7  O   UNL d   1      53.274  32.714  54.459  0.00  0.00    -0.267 OA
ATOM      8  C   UNL d   1      53.605  34.288  54.946  0.00  0.00     0.006 A 
ATOM      9  C   UNL d   1      52.874  35.571  54.209  0.00  0.00     0.019 A 
ATOM     10  C   UNL d   1      53.771  35.042  55.187  0.00  0.00     0.000 A 
ATOM     11  C   UNL d   1      53.409  35.697  54.824  0.00  0.00     0.002 A 
ENDROOT
BRANCH   2  12
ATOM     12  S   UNL d   1      51.456  33.819  52.479  0.00  0.00    -0.044 SA
BRANCH  12  13
ATOM     13  C   UNL d   1      50.752  34.309  52.395  0.00  0.00     0.101 C 
BRANCH  13  14
ATOM     14  C   UNL d   1      50.347  34.313  51.671  0.00  0.00     0.286 C 
ATOM     15  N   UNL d   1      49.595  34.614  51.612  0.00  0.00    -0.207 NA
ATOM     16  O   UNL d   1      50.716  34.005  51.000  0.00  0.00    -0.265 OA
BRANCH  15  17
ATOM     17  C   UNL d   1      49.214  34.929  52.290  0.00  0.00     0.087 A 
ATOM     18  C   UNL d   1      48.837  35.664  52.213  0.00  0.00     0.045 A 
ATOM     19  C   UNL d   1      48.455  35.990  52.872  0.00  0.00     0.121 A 
ATOM     20  O   UNL d   1      48.039  36.697  52.970  0.00  0.00    -0.299 OA
ATOM     21  C   UNL d   1      48.455  35.586  53.580  0.00  0.00     0.119 A 
ATOM     22  C   UNL d   1      47.789  36.706  53.762  0.00  0.00     0.304 A 
ATOM     23  O   UNL d   1      48.027  36.051  54.144  0.00  0.00    -0.300 OA
ATOM     24  C   UNL d   1      48.836  34.847  53.650  0.00  0.00     0.028 A 
ATOM     25  C   UNL d   1      49.214  34.527  52.994  0.00  0.00     0.021 A 
ENDBRANCH  15  17
ENDBRANCH  13  14
ENDBRANCH  12  13
ENDBRANCH   2  12
BRANCH   1  26
ATOM     26  C   UNL d   1      52.241  32.462  53.272  0.00  0.00     0.085 C 
BRANCH  26  27
ATOM     27  C   UNL d   1      52.830  32.008  52.908  0.00  0.00     0.019 C 
ATOM     28  C   UNL d   1      52.748  31.206  52.845  0.00  0.00     0.002 C 
ENDBRANCH  26  27
ENDBRANCH   1  26
TORSDOF 6
ENDMDL
MODEL 6
REMARK VINA RESULT:      -3.9      1.411      4.479
REMARK  6 active torsions:
REMARK  status: ('A' for Active; 'I' for Inactive)
REMARK    1  A    between atoms: C_18  and  N_1 
REMARK    2  A    between atoms: S_7  and  C_2 
REMARK    3  A    between atoms: C_20  and  S_7 
REMARK    4  A    between atoms: C_10  and  C_20 
REMARK       I    between atoms: N_13  and  C_10 
REMARK    5  A    between atoms: C_16  and  N_13 
REMARK    6  A    between atoms: C_21  and  C_18 
ROOT
ATOM      1  N   UNL d   1      52.707  31.224  53.118  0.00  0.00    -0.253 N 
ATOM      2  C   UNL d   1      53.559  31.316  53.300  0.00  0.00     0.182 A 
ATOM      3  C   UNL d   1      52.327  30.552  53.333  0.00  0.00     0.268 A 
ATOM      4  N   UNL d   1      53.933  30.727  53.674  0.00  0.00    -0.222 NA
ATOM      5  C   UNL d   1      52.725  29.958  53.716  0.00  0.00     0.074 A 
ATOM      6  C   UNL d   1      53.544  30.042  53.893  0.00  0.00     0.088 A 
ATOM      7  O   UNL d   1      51.491  30.494  53.140  0.00  0.00    -0.267 OA
ATOM      8  C   UNL d   1      52.328  29.271  53.934  0.00  0.00     0.006 A 
ATOM      9  C   UNL d   1      53.934  29.435  54.280  0.00  0.00     0.019 A 
ATOM     10  C   UNL d   1      52.722  28.678  54.316  0.00  0.00     0.000 A 
ATOM     11  C   UNL d   1      53.532  28.748  54.496  0.00  0.00     0.002 A 
ENDROOT
BRANCH   2  12
ATOM     12  S   UNL d   1      53.970  32.011  53.082  0.00  0.00    -0.044 SA
BRANCH  12  13
ATOM     13  C   UNL d   1      54.299  32.541  53.677  0.00  0.00     0.101 C 
BRANCH  13  14
ATOM     14  C   UNL d   1      55.011  32.936  53.518  0.00  0.00     0.286 C 
ATOM     15  N   UNL d   1      55.163  33.669  53.829  0.00  0.00    -0.207 NA
ATOM     16  O   UNL d   1      55.574  32.573  53.034  0.00  0.00    -0.265 OA
BRANCH  15  17
ATOM     17  C   UNL d   1      54.596  34.044  54.321  0.00  0.00     0.087 A 
ATOM     18  C   UNL d   1      54.152  34.663  53.994  0.00  0.00     0.045 A 
ATOM     19  C   UNL d   1      53.587  35.045  54.466  0.00  0.00     0.121 A 
ATOM     20  O   UNL d   1      53.069  35.667  54.304  0.00  0.00    -0.299 OA
ATOM     21  C   UNL d   1      53.479  34.807  55.238  0.00  0.00     0.119 A 
ATOM     22  C   UNL d   1      52.643  35.797  55.006  0.00  0.00     0.304 A 
ATOM     23  O   UNL d   1      52.873  35.293  55.577  0.00  0.00    -0.300 OA
ATOM     24  C   UNL d   1      53.930  34.183  55.561  0.00  0.00     0.028 A 
ATOM     25  C   UNL d   1      54.488  33.808  55.089  0.00  0.00     0.021 A 
ENDBRANCH  15  17
ENDBRANCH  13  14
ENDBRANCH  12  13
ENDBRANCH   2  12
BRANCH   1  26
ATOM     26  C   UNL d   1      52.261  31.825  52.719  0.00  0.00     0.085 C 
BRANCH  26  27
ATOM     27  C   UNL d   1      51.644  32.220  53.104  0.00  0.00     0.019 C 
ATOM     28  C   UNL d   1      51.276  32.847  52.750  0.00  0.00     0.002 C 
ENDBRANCH  26  27
ENDBRANCH   1  26
TORSDOF 6
ENDMDL
