MODEL 1
REMARK VINA RESULT:      -6.8      0.000      0.000
REMARK  5 active torsions:
REMARK  status: ('A' for Active; 'I' for Inactive)
REMARK    1  A    between atoms: N_7  and  C_4 
REMARK    2  A    between atoms: N_9  and  N_7 
REMARK       I    between atoms: C_8  and  N_9 
REMARK    3  A    between atoms: C_11  and  C_8 
REMARK    4  A    between atoms: C_14  and  C_11 
REMARK    5  A    between atoms: C_15  and  C_11 
ROOT
ATOM      1  C   UNL d   1     -48.565  13.006  23.103  0.00  0.00     0.297 C 
ATOM      2  N   UNL d   1     -47.760  13.046  22.928  0.00  0.00    -0.104 NA
ATOM      3  O   UNL d   1     -48.835  12.501  23.698  0.00  0.00    -0.264 OA
ENDROOT
BRANCH   1   4
ATOM      4  C   UNL d   1     -49.100  13.471  22.681  0.00  0.00     0.059 C 
BRANCH   4   5
ATOM      5  C   UNL d   1     -49.589  13.127  22.109  0.00  0.00     0.005 A 
ATOM      6  C   UNL d   1     -50.325  12.845  22.330  0.00  0.00     0.000 A 
ATOM      7  C   UNL d   1     -50.815  12.503  21.770  0.00  0.00     0.000 A 
ATOM      8  C   UNL d   1     -50.547  12.451  20.985  0.00  0.00     0.000 A 
ATOM      9  C   UNL d   1     -49.811  12.735  20.770  0.00  0.00     0.000 A 
ATOM     10  C   UNL d   1     -49.340  13.069  21.333  0.00  0.00     0.000 A 
ENDBRANCH   4   5
BRANCH   4  11
ATOM     11  C   UNL d   1     -49.146  14.282  22.830  0.00  0.00     0.005 A 
ATOM     12  C   UNL d   1     -49.614  14.547  23.441  0.00  0.00     0.000 A 
ATOM     13  C   UNL d   1     -49.665  15.356  23.597  0.00  0.00     0.000 A 
ATOM     14  C   UNL d   1     -49.239  15.889  23.131  0.00  0.00     0.000 A 
ATOM     15  C   UNL d   1     -48.760  15.604  22.505  0.00  0.00     0.000 A 
ATOM     16  C   UNL d   1     -48.722  14.798  22.365  0.00  0.00     0.000 A 
ENDBRANCH   4  11
ENDBRANCH   1   4
BRANCH   2  17
ATOM     17  N   UNL d   1     -47.225  12.581  23.350  0.00  0.00    -0.127 NA
BRANCH  17  18
ATOM     18  C   UNL d   1     -46.437  12.523  23.097  0.00  0.00     0.178 A 
ATOM     19  N   UNL d   1     -45.995  11.851  23.270  0.00  0.00    -0.240 N 
ATOM     20  C   UNL d   1     -45.217  11.794  23.020  0.00  0.00     0.343 A 
ATOM     21  C   UNL d   1     -46.338  11.231  23.697  0.00  0.00     0.105 C 
ATOM     22  N   UNL d   1     -44.874  12.414  22.593  0.00  0.00    -0.224 N 
ATOM     23  O   UNL d   1     -44.773  11.116  23.195  0.00  0.00    -0.245 OA
ATOM     24  C   UNL d   1     -45.306  13.096  22.412  0.00  0.00     0.271 A 
ATOM     25  C   UNL d   1     -44.087  12.356  22.341  0.00  0.00     0.107 C 
ATOM     26  C   UNL d   1     -46.094  13.143  22.670  0.00  0.00     0.101 A 
ATOM     27  O   UNL d   1     -44.966  13.709  21.989  0.00  0.00    -0.266 OA
ENDBRANCH  17  18
ENDBRANCH   2  17
TORSDOF 5
ENDMDL
MODEL 2
REMARK VINA RESULT:      -6.3      7.937     10.044
REMARK  5 active torsions:
REMARK  status: ('A' for Active; 'I' for Inactive)
REMARK    1  A    between atoms: N_7  and  C_4 
REMARK    2  A    between atoms: N_9  and  N_7 
REMARK       I    between atoms: C_8  and  N_9 
REMARK    3  A    between atoms: C_11  and  C_8 
REMARK    4  A    between atoms: C_14  and  C_11 
REMARK    5  A    between atoms: C_15  and  C_11 
ROOT
ATOM      1  C   UNL d   1     -38.762  15.196  20.281  0.00  0.00     0.297 C 
ATOM      2  N   UNL d   1     -38.747  14.785  19.565  0.00  0.00    -0.104 NA
ATOM      3  O   UNL d   1     -38.317  15.886  20.372  0.00  0.00    -0.264 OA
ENDROOT
BRANCH   1   4
ATOM      4  C   UNL d   1     -39.223  14.916  20.905  0.00  0.00     0.059 C 
BRANCH   4   5
ATOM      5  C   UNL d   1     -38.868  14.512  21.533  0.00  0.00     0.005 A 
ATOM      6  C   UNL d   1     -38.587  14.936  22.174  0.00  0.00     0.000 A 
ATOM      7  C   UNL d   1     -38.235  14.543  22.800  0.00  0.00     0.000 A 
ATOM      8  C   UNL d   1     -38.173  13.715  22.766  0.00  0.00     0.000 A 
ATOM      9  C   UNL d   1     -38.456  13.296  22.123  0.00  0.00     0.000 A 
ATOM     10  C   UNL d   1     -38.800  13.697  21.514  0.00  0.00     0.000 A 
ENDBRANCH   4   5
BRANCH   4  11
ATOM     11  C   UNL d   1     -40.039  15.039  20.900  0.00  0.00     0.005 A 
ATOM     12  C   UNL d   1     -40.329  15.782  21.066  0.00  0.00     0.000 A 
ATOM     13  C   UNL d   1     -41.143  15.914  21.063  0.00  0.00     0.000 A 
ATOM     14  C   UNL d   1     -41.658  15.290  20.891  0.00  0.00     0.000 A 
ATOM     15  C   UNL d   1     -41.347  14.529  20.722  0.00  0.00     0.000 A 
ATOM     16  C   UNL d   1     -40.535  14.417  20.730  0.00  0.00     0.000 A 
ENDBRANCH   4  11
ENDBRANCH   1   4
BRANCH   2  17
ATOM     17  N   UNL d   1     -38.285  15.066  18.941  0.00  0.00    -0.127 NA
BRANCH  17  18
ATOM     18  C   UNL d   1     -38.291  14.670  18.212  0.00  0.00     0.178 A 
ATOM     19  N   UNL d   1     -38.252  15.097  17.509  0.00  0.00    -0.240 N 
ATOM     20  C   UNL d   1     -38.258  14.706  16.789  0.00  0.00     0.343 A 
ATOM     21  C   UNL d   1     -38.207  15.922  17.531  0.00  0.00     0.105 C 
ATOM     22  N   UNL d   1     -38.303  13.880  16.767  0.00  0.00    -0.224 N 
ATOM     23  O   UNL d   1     -38.218  15.137  16.082  0.00  0.00    -0.245 OA
ATOM     24  C   UNL d   1     -38.342  13.438  17.466  0.00  0.00     0.271 A 
ATOM     25  C   UNL d   1     -38.308  13.486  16.039  0.00  0.00     0.107 C 
ATOM     26  C   UNL d   1     -38.336  13.845  18.191  0.00  0.00     0.101 A 
ATOM     27  O   UNL d   1     -38.387  12.621  17.444  0.00  0.00    -0.266 OA
ENDBRANCH  17  18
ENDBRANCH   2  17
TORSDOF 5
ENDMDL
MODEL 3
REMARK VINA RESULT:      -6.2      1.054      1.661
REMARK  5 active torsions:
REMARK  status: ('A' for Active; 'I' for Inactive)
REMARK    1  A    between atoms: N_7  and  C_4 
REMARK    2  A    between atoms: N_9  and  N_7 
REMARK       I    between atoms: C_8  and  N_9 
REMARK    3  A    between atoms: C_11  and  C_8 
REMARK    4  A    between atoms: C_14  and  C_11 
REMARK    5  A    between atoms: C_15  and  C_11 
ROOT
ATOM      1  C   UNL d   1     -48.455  13.739  22.224  0.00  0.00     0.297 C 
ATOM      2  N   UNL d   1     -47.785  13.501  22.644  0.00  0.00    -0.104 NA
ATOM      3  O   UNL d   1     -48.390  13.956  21.430  0.00  0.00    -0.264 OA
ENDROOT
BRANCH   1   4
ATOM      4  C   UNL d   1     -49.189  13.758  22.601  0.00  0.00     0.059 C 
BRANCH   4   5
ATOM      5  C   UNL d   1     -49.591  13.054  22.763  0.00  0.00     0.005 A 
ATOM      6  C   UNL d   1     -49.926  12.633  22.146  0.00  0.00     0.000 A 
ATOM      7  C   UNL d   1     -50.325  11.934  22.299  0.00  0.00     0.000 A 
ATOM      8  C   UNL d   1     -50.379  11.671  23.086  0.00  0.00     0.000 A 
ATOM      9  C   UNL d   1     -50.042  12.096  23.698  0.00  0.00     0.000 A 
ATOM     10  C   UNL d   1     -49.653  12.781  23.532  0.00  0.00     0.000 A 
ENDBRANCH   4   5
BRANCH   4  11
ATOM     11  C   UNL d   1     -49.522  14.483  22.814  0.00  0.00     0.005 A 
ATOM     12  C   UNL d   1     -49.212  14.891  23.447  0.00  0.00     0.000 A 
ATOM     13  C   UNL d   1     -49.539  15.616  23.666  0.00  0.00     0.000 A 
ATOM     14  C   UNL d   1     -50.178  15.922  23.241  0.00  0.00     0.000 A 
ATOM     15  C   UNL d   1     -50.488  15.492  22.591  0.00  0.00     0.000 A 
ATOM     16  C   UNL d   1     -50.151  14.774  22.387  0.00  0.00     0.000 A 
ENDBRANCH   4  11
ENDBRANCH   1   4
BRANCH   2  17
ATOM     17  N   UNL d   1     -47.051  13.482  22.268  0.00  0.00    -0.127 NA
BRANCH  17  18
ATOM     18  C   UNL d   1     -46.474  12.940  22.515  0.00  0.00     0.178 A 
ATOM     19  N   UNL d   1     -45.688  13.043  22.296  0.00  0.00    -0.240 N 
ATOM     20  C   UNL d   1     -45.118  12.508  22.539  0.00  0.00     0.343 A 
ATOM     21  C   UNL d   1     -45.473  13.691  21.828  0.00  0.00     0.105 C 
ATOM     22  N   UNL d   1     -45.333  11.860  23.007  0.00  0.00    -0.224 N 
ATOM     23  O   UNL d   1     -44.326  12.614  22.317  0.00  0.00    -0.245 OA
ATOM     24  C   UNL d   1     -46.120  11.742  23.235  0.00  0.00     0.271 A 
ATOM     25  C   UNL d   1     -44.756  11.319  23.253  0.00  0.00     0.107 C 
ATOM     26  C   UNL d   1     -46.689  12.292  22.982  0.00  0.00     0.101 A 
ATOM     27  O   UNL d   1     -46.332  11.102  23.698  0.00  0.00    -0.266 OA
ENDBRANCH  17  18
ENDBRANCH   2  17
TORSDOF 5
ENDMDL
MODEL 4
REMARK VINA RESULT:      -5.9      0.122      2.153
REMARK  5 active torsions:
REMARK  status: ('A' for Active; 'I' for Inactive)
REMARK    1  A    between atoms: N_7  and  C_4 
REMARK    2  A    between atoms: N_9  and  N_7 
REMARK       I    between atoms: C_8  and  N_9 
REMARK    3  A    between atoms: C_11  and  C_8 
REMARK    4  A    between atoms: C_14  and  C_11 
REMARK    5  A    between atoms: C_15  and  C_11 
ROOT
ATOM      1  C   UNL d   1     -48.607  12.997  23.109  0.00  0.00     0.297 C 
ATOM      2  N   UNL d   1     -47.806  13.054  22.920  0.00  0.00    -0.104 NA
ATOM      3  O   UNL d   1     -48.858  12.475  23.698  0.00  0.00    -0.264 OA
ENDROOT
BRANCH   1   4
ATOM      4  C   UNL d   1     -49.157  13.464  22.709  0.00  0.00     0.059 C 
BRANCH   4   5
ATOM      5  C   UNL d   1     -49.175  14.282  22.832  0.00  0.00     0.005 A 
ATOM      6  C   UNL d   1     -48.726  14.768  22.350  0.00  0.00     0.000 A 
ATOM      7  C   UNL d   1     -48.739  15.579  22.466  0.00  0.00     0.000 A 
ATOM      8  C   UNL d   1     -49.212  15.887  23.076  0.00  0.00     0.000 A 
ATOM      9  C   UNL d   1     -49.658  15.396  23.554  0.00  0.00     0.000 A 
ATOM     10  C   UNL d   1     -49.636  14.600  23.428  0.00  0.00     0.000 A 
ENDBRANCH   4   5
BRANCH   4  11
ATOM     11  C   UNL d   1     -49.690  13.113  22.185  0.00  0.00     0.005 A 
ATOM     12  C   UNL d   1     -49.454  12.961  21.421  0.00  0.00     0.000 A 
ATOM     13  C   UNL d   1     -49.981  12.609  20.892  0.00  0.00     0.000 A 
ATOM     14  C   UNL d   1     -50.744  12.415  21.143  0.00  0.00     0.000 A 
ATOM     15  C   UNL d   1     -50.975  12.577  21.933  0.00  0.00     0.000 A 
ATOM     16  C   UNL d   1     -50.439  12.926  22.444  0.00  0.00     0.000 A 
ENDBRANCH   4  11
ENDBRANCH   1   4
BRANCH   2  17
ATOM     17  N   UNL d   1     -47.256  12.586  23.320  0.00  0.00    -0.127 NA
BRANCH  17  18
ATOM     18  C   UNL d   1     -46.472  12.550  23.053  0.00  0.00     0.178 A 
ATOM     19  N   UNL d   1     -46.001  11.902  23.241  0.00  0.00    -0.240 N 
ATOM     20  C   UNL d   1     -45.226  11.865  22.976  0.00  0.00     0.343 A 
ATOM     21  C   UNL d   1     -46.310  11.287  23.698  0.00  0.00     0.105 C 
ATOM     22  N   UNL d   1     -44.916  12.481  22.519  0.00  0.00    -0.224 N 
ATOM     23  O   UNL d   1     -44.753  11.212  23.167  0.00  0.00    -0.245 OA
ATOM     24  C   UNL d   1     -45.378  13.139  22.322  0.00  0.00     0.271 A 
ATOM     25  C   UNL d   1     -44.133  12.443  22.252  0.00  0.00     0.107 C 
ATOM     26  C   UNL d   1     -46.162  13.165  22.595  0.00  0.00     0.101 A 
ATOM     27  O   UNL d   1     -45.071  13.748  21.869  0.00  0.00    -0.266 OA
ENDBRANCH  17  18
ENDBRANCH   2  17
TORSDOF 5
ENDMDL
