MODEL 1
REMARK VINA RESULT:      -3.9      0.000      0.000
REMARK  5 active torsions:
REMARK  status: ('A' for Active; 'I' for Inactive)
REMARK    1  A    between atoms: C_4  and  S_1 
REMARK    2  A    between atoms: N_5  and  S_1 
REMARK    3  A    between atoms: C_2  and  C_8 
REMARK       I    between atoms: N_3  and  C_2 
REMARK    4  A    between atoms: C_16  and  N_5 
REMARK    5  A    between atoms: C_17  and  N_5 
ROOT
ATOM      1  C   UNL d   1      57.266  -0.098  31.323  0.00  0.00     0.104 A 
ATOM      2  C   UNL d   1      58.175   0.007  29.947  0.00  0.00     0.057 A 
ATOM      3  C   UNL d   1      57.347   0.629  30.932  0.00  0.00     0.013 A 
ATOM      4  C   UNL d   1      57.638  -0.769  31.027  0.00  0.00     0.013 A 
ATOM      5  C   UNL d   1      57.800   0.681  30.247  0.00  0.00     0.005 A 
ATOM      6  C   UNL d   1      58.094  -0.719  30.338  0.00  0.00     0.005 A 
ENDROOT
BRANCH   1   7
ATOM      7  S   UNL d   1      56.809  -0.146  32.015  0.00  0.00     0.271 S 
ATOM      8  O   UNL d   1      57.365   0.306  32.544  0.00  0.00    -0.200 OA
ATOM      9  O   UNL d   1      56.172  -0.633  31.514  0.00  0.00    -0.200 OA
BRANCH   7  10
ATOM     10  N   UNL d   1      56.357  -0.194  32.698  0.00  0.00    -0.229 N 
BRANCH  10  11
ATOM     11  C   UNL d   1      56.313   0.458  33.207  0.00  0.00     0.092 C 
ATOM     12  C   UNL d   1      55.639   0.577  33.668  0.00  0.00     0.021 C 
ENDBRANCH  10  11
BRANCH  10  13
ATOM     13  C   UNL d   1      55.945  -0.884  32.884  0.00  0.00     0.092 C 
ATOM     14  C   UNL d   1      55.960  -1.170  33.659  0.00  0.00     0.021 C 
ENDBRANCH  10  13
ENDBRANCH   7  10
ENDBRANCH   1   7
BRANCH   2  15
ATOM     15  C   UNL d   1      58.629   0.066  29.257  0.00  0.00     0.265 C 
ATOM     16  N   UNL d   1      59.427   0.260  29.315  0.00  0.00    -0.272 N 
ATOM     17  C   UNL d   1      59.768   0.393  30.054  0.00  0.00     0.083 A 
ATOM     18  C   UNL d   1      59.884   0.320  28.632  0.00  0.00     0.083 A 
ATOM     19  C   UNL d   1      60.566   0.587  30.110  0.00  0.00     0.019 A 
ATOM     20  C   UNL d   1      61.023   0.647  29.429  0.00  0.00     0.003 A 
ATOM     21  C   UNL d   1      60.682   0.514  28.690  0.00  0.00     0.019 A 
ATOM     22  O   UNL d   1      58.284  -0.068  28.520  0.00  0.00    -0.267 OA
ENDBRANCH   2  15
TORSDOF 5
ENDMDL
MODEL 2
REMARK VINA RESULT:      -3.7      1.226      4.736
REMARK  5 active torsions:
REMARK  status: ('A' for Active; 'I' for Inactive)
REMARK    1  A    between atoms: C_4  and  S_1 
REMARK    2  A    between atoms: N_5  and  S_1 
REMARK    3  A    between atoms: C_2  and  C_8 
REMARK       I    between atoms: N_3  and  C_2 
REMARK    4  A    between atoms: C_16  and  N_5 
REMARK    5  A    between atoms: C_17  and  N_5 
ROOT
ATOM      1  C   UNL d   1      57.397  -0.056  31.302  0.00  0.00     0.104 A 
ATOM      2  C   UNL d   1      56.250  -0.022  32.491  0.00  0.00     0.057 A 
ATOM      3  C   UNL d   1      57.161  -0.759  31.673  0.00  0.00     0.013 A 
ATOM      4  C   UNL d   1      57.060   0.662  31.525  0.00  0.00     0.013 A 
ATOM      5  C   UNL d   1      56.590  -0.741  32.265  0.00  0.00     0.005 A 
ATOM      6  C   UNL d   1      56.485   0.681  32.120  0.00  0.00     0.005 A 
ENDROOT
BRANCH   1   7
ATOM      7  S   UNL d   1      57.974  -0.077  30.705  0.00  0.00     0.271 S 
ATOM      8  O   UNL d   1      57.574  -0.684  30.190  0.00  0.00    -0.200 OA
ATOM      9  O   UNL d   1      58.456   0.569  31.199  0.00  0.00    -0.200 OA
BRANCH   7  10
ATOM     10  N   UNL d   1      58.544  -0.099  30.115  0.00  0.00    -0.229 N 
BRANCH  10  11
ATOM     11  C   UNL d   1      58.485  -0.660  29.509  0.00  0.00     0.092 C 
ATOM     12  C   UNL d   1      58.752  -0.475  28.750  0.00  0.00     0.021 C 
ENDBRANCH  10  11
BRANCH  10  13
ATOM     13  C   UNL d   1      59.176   0.432  30.120  0.00  0.00     0.092 C 
ATOM     14  C   UNL d   1      59.929   0.168  29.909  0.00  0.00     0.021 C 
ENDBRANCH  10  13
ENDBRANCH   7  10
ENDBRANCH   1   7
BRANCH   2  15
ATOM     15  C   UNL d   1      55.675  -0.011  33.087  0.00  0.00     0.265 C 
ATOM     16  N   UNL d   1      55.888   0.220  33.848  0.00  0.00    -0.272 N 
ATOM     17  C   UNL d   1      56.667   0.438  34.012  0.00  0.00     0.083 A 
ATOM     18  C   UNL d   1      55.321   0.233  34.446  0.00  0.00     0.083 A 
ATOM     19  C   UNL d   1      56.879   0.669  34.773  0.00  0.00     0.019 A 
ATOM     20  C   UNL d   1      56.313   0.682  35.370  0.00  0.00     0.003 A 
ATOM     21  C   UNL d   1      55.534   0.464  35.207  0.00  0.00     0.019 A 
ATOM     22  O   UNL d   1      54.898  -0.230  32.920  0.00  0.00    -0.267 OA
ENDBRANCH   2  15
TORSDOF 5
ENDMDL
MODEL 3
REMARK VINA RESULT:      -1.4      1.528      2.325
REMARK  5 active torsions:
REMARK  status: ('A' for Active; 'I' for Inactive)
REMARK    1  A    between atoms: C_4  and  S_1 
REMARK    2  A    between atoms: N_5  and  S_1 
REMARK    3  A    between atoms: C_2  and  C_8 
REMARK       I    between atoms: N_3  and  C_2 
REMARK    4  A    between atoms: C_16  and  N_5 
REMARK    5  A    between atoms: C_17  and  N_5 
ROOT
ATOM      1  C   UNL d   1      55.831  -0.077  32.990  0.00  0.00     0.104 A 
ATOM      2  C   UNL d   1      56.790  -0.504  31.714  0.00  0.00     0.057 A 
ATOM      3  C   UNL d   1      55.943   0.449  32.359  0.00  0.00     0.013 A 
ATOM      4  C   UNL d   1      56.197  -0.814  32.982  0.00  0.00     0.013 A 
ATOM      5  C   UNL d   1      56.421   0.236  31.724  0.00  0.00     0.005 A 
ATOM      6  C   UNL d   1      56.678  -1.030  32.344  0.00  0.00     0.005 A 
ENDROOT
BRANCH   1   7
ATOM      7  S   UNL d   1      55.348   0.141  33.629  0.00  0.00     0.271 S 
ATOM      8  O   UNL d   1      56.001   0.254  34.224  0.00  0.00    -0.200 OA
ATOM      9  O   UNL d   1      54.605   0.042  33.054  0.00  0.00    -0.200 OA
BRANCH   7  10
ATOM     10  N   UNL d   1      54.871   0.357  34.261  0.00  0.00    -0.229 N 
BRANCH  10  11
ATOM     11  C   UNL d   1      54.051   0.251  34.210  0.00  0.00     0.092 C 
ATOM     12  C   UNL d   1      53.555   0.603  34.768  0.00  0.00     0.021 C 
ENDBRANCH  10  11
BRANCH  10  13
ATOM     13  C   UNL d   1      55.199   0.679  34.946  0.00  0.00     0.092 C 
ATOM     14  C   UNL d   1      54.862   0.503  35.679  0.00  0.00     0.021 C 
ENDBRANCH  10  13
ENDBRANCH   7  10
ENDBRANCH   1   7
BRANCH   2  15
ATOM     15  C   UNL d   1      57.270  -0.712  31.072  0.00  0.00     0.265 C 
ATOM     16  N   UNL d   1      57.981  -0.316  30.955  0.00  0.00    -0.272 N 
ATOM     17  C   UNL d   1      58.212   0.283  31.474  0.00  0.00     0.083 A 
ATOM     18  C   UNL d   1      58.463  -0.518  30.318  0.00  0.00     0.083 A 
ATOM     19  C   UNL d   1      58.924   0.679  31.356  0.00  0.00     0.019 A 
ATOM     20  C   UNL d   1      59.405   0.477  30.720  0.00  0.00     0.003 A 
ATOM     21  C   UNL d   1      59.175  -0.122  30.201  0.00  0.00     0.019 A 
ATOM     22  O   UNL d   1      57.036  -1.311  30.555  0.00  0.00    -0.267 OA
ENDBRANCH   2  15
TORSDOF 5
ENDMDL
