MODEL 1
REMARK VINA RESULT:      15.7      0.000      0.000
REMARK  5 active torsions:
REMARK  status: ('A' for Active; 'I' for Inactive)
REMARK    1  A    between atoms: C_16  and  N_5 
REMARK    2  A    between atoms: C_15  and  C_6 
REMARK    3  A    between atoms: C_19  and  C_16 
REMARK    4  A    between atoms: O_20  and  C_17 
REMARK    5  A    between atoms: C_22  and  C_19 
ROOT
ATOM      1  O   UNL d   1     -45.304-121.238 -49.986  0.00  0.00    -0.326 OA
ATOM      2  C   UNL d   1     -44.688-121.783 -50.106  0.00  0.00     0.118 C 
ATOM      3  C   UNL d   1     -45.919-120.698 -49.864  0.00  0.00     0.181 C 
ENDROOT
BRANCH   2   4
ATOM      4  C   UNL d   1     -44.015-121.799 -50.594  0.00  0.00     0.045 C 
BRANCH   4   5
ATOM      5  C   UNL d   1     -43.256-122.142 -50.538  0.00  0.00     0.086 C 
BRANCH   5   6
ATOM      6  N   UNL d   1     -42.795-122.228 -51.231  0.00  0.00    -0.258 N 
ATOM      7  C   UNL d   1     -43.096-121.994 -51.960  0.00  0.00     0.272 A 
ATOM      8  C   UNL d   1     -42.637-122.081 -52.639  0.00  0.00     0.137 A 
ATOM      9  O   UNL d   1     -43.852-121.675 -52.013  0.00  0.00    -0.266 OA
ATOM     10  C   UNL d   1     -41.876-122.401 -52.590  0.00  0.00     0.192 A 
ATOM     11  C   UNL d   1     -42.937-121.847 -53.372  0.00  0.00     0.205 A 
ATOM     12  N   UNL d   1     -41.574-122.634 -51.866  0.00  0.00    -0.204 NA
ATOM     13  O   UNL d   1     -41.424-122.484 -53.270  0.00  0.00    -0.289 OA
ATOM     14  C   UNL d   1     -42.034-122.548 -51.178  0.00  0.00     0.152 A 
ATOM     15  C   UNL d   1     -41.729-122.249 -54.000  0.00  0.00     0.107 A 
ATOM     16  C   UNL d   1     -42.486-121.931 -54.044  0.00  0.00     0.062 A 
ATOM     17  C   UNL d   1     -41.268-122.335 -54.687  0.00  0.00     0.049 A 
ATOM     18  C   UNL d   1     -42.791-121.696 -54.777  0.00  0.00     0.007 A 
ATOM     19  C   UNL d   1     -42.331-121.783 -55.457  0.00  0.00     0.024 A 
ATOM     20  C   UNL d   1     -41.574-122.100 -55.413  0.00  0.00     0.096 A 
ATOM     21  O   UNL d   1     -43.694-121.529 -53.417  0.00  0.00    -0.286 OA
BRANCH  14  22
ATOM     22  C   UNL d   1     -41.729-122.783 -50.448  0.00  0.00     0.035 A 
ATOM     23  C   UNL d   1     -41.585-123.586 -50.310  0.00  0.00     0.003 A 
ATOM     24  C   UNL d   1     -41.282-123.817 -49.584  0.00  0.00     0.000 A 
ATOM     25  C   UNL d   1     -41.123-123.261 -48.999  0.00  0.00     0.000 A 
ATOM     26  C   UNL d   1     -41.268-122.461 -49.141  0.00  0.00     0.000 A 
ATOM     27  C   UNL d   1     -41.571-122.227 -49.864  0.00  0.00     0.003 A 
ENDBRANCH  14  22
BRANCH  20  28
ATOM     28  O   UNL d   1     -41.130-122.181 -56.093  0.00  0.00    -0.328 OA
ATOM     29  C   UNL d   1     -41.185-121.611 -56.684  0.00  0.00     0.181 C 
ENDBRANCH  20  28
ENDBRANCH   5   6
ENDBRANCH   4   5
ENDBRANCH   2   4
TORSDOF 5
ENDMDL
