MODEL 1
REMARK VINA RESULT:     117.7      0.000      0.000
REMARK  8 active torsions:
REMARK  status: ('A' for Active; 'I' for Inactive)
REMARK    1  A    between atoms: C_3  and  N_1 
REMARK    2  A    between atoms: C_8  and  N_2 
REMARK    3  A    between atoms: C_6  and  C_3 
REMARK    4  A    between atoms: C_9  and  C_3 
REMARK       I    between atoms: C_4  and  N_7 
REMARK    5  A    between atoms: C_5  and  C_4 
REMARK       I    between atoms: N_10  and  C_5 
REMARK    6  A    between atoms: N_7  and  C_9 
REMARK    7  A    between atoms: C_22  and  N_10 
REMARK    8  A    between atoms: C_24  and  C_22 
ROOT
ATOM      1  C   UNL d   1      61.154  47.820  50.656  0.00  0.00     0.106 C 
ENDROOT
BRANCH   1   2
ATOM      2  N   UNL d   1      61.331  47.010  50.718  0.00  0.00    -0.298 N 
ATOM      3  C   UNL d   1      61.330  46.544  50.037  0.00  0.00     0.100 A 
ATOM      4  C   UNL d   1      61.505  45.739  50.085  0.00  0.00     0.100 A 
ATOM      5  N   UNL d   1      61.681  45.399  50.816  0.00  0.00    -0.299 N 
ATOM      6  C   UNL d   1      61.682  45.867  51.494  0.00  0.00     0.100 A 
ATOM      7  C   UNL d   1      61.508  46.670  51.449  0.00  0.00     0.100 A 
BRANCH   5   8
ATOM      8  C   UNL d   1      61.854  44.600  50.864  0.00  0.00     0.092 A 
ATOM      9  C   UNL d   1      61.470  44.123  51.414  0.00  0.00     0.156 A 
ATOM     10  F   UNL d   1      60.908  44.452  51.919  0.00  0.00    -0.203 F 
ATOM     11  C   UNL d   1      61.643  43.319  51.463  0.00  0.00     0.031 A 
ATOM     12  C   UNL d   1      62.205  42.990  50.958  0.00  0.00     0.002 A 
ATOM     13  C   UNL d   1      62.593  43.469  50.403  0.00  0.00     0.002 A 
ATOM     14  C   UNL d   1      62.417  44.271  50.358  0.00  0.00     0.020 A 
ENDBRANCH   5   8
ENDBRANCH   1   2
BRANCH   1  15
ATOM     15  C   UNL d   1      61.297  48.330  51.290  0.00  0.00     0.118 A 
ATOM     16  O   UNL d   1      61.172  48.258  52.108  0.00  0.00    -0.304 OA
ATOM     17  C   UNL d   1      61.423  48.946  52.469  0.00  0.00     0.123 A 
ATOM     18  C   UNL d   1      61.706  49.454  51.884  0.00  0.00     0.029 A 
ATOM     19  C   UNL d   1      61.626  49.066  51.157  0.00  0.00     0.028 A 
ENDBRANCH   1  15
BRANCH   1  20
ATOM     20  C   UNL d   1      60.829  48.118  49.949  0.00  0.00     0.122 C 
BRANCH  20  21
ATOM     21  N   UNL d   1      60.038  48.351  49.925  0.00  0.00    -0.201 NA
ATOM     22  C   UNL d   1      59.814  49.045  49.532  0.00  0.00     0.337 C 
ATOM     23  O   UNL d   1      60.392  49.502  49.164  0.00  0.00    -0.260 OA
BRANCH  22  24
ATOM     24  C   UNL d   1      59.031  49.272  49.511  0.00  0.00     0.337 C 
ATOM     25  N   UNL d   1      58.526  49.068  50.131  0.00  0.00    -0.202 NA
ATOM     26  O   UNL d   1      58.744  49.705  48.870  0.00  0.00    -0.260 OA
BRANCH  25  27
ATOM     27  C   UNL d   1      57.733  49.298  50.110  0.00  0.00     0.102 C 
BRANCH  27  28
ATOM     28  C   UNL d   1      57.318  49.412  50.809  0.00  0.00     0.019 A 
ATOM     29  C   UNL d   1      56.503  49.539  50.790  0.00  0.00     0.002 A 
ATOM     30  C   UNL d   1      56.088  49.653  51.485  0.00  0.00     0.000 A 
ATOM     31  C   UNL d   1      56.487  49.640  52.217  0.00  0.00     0.000 A 
ATOM     32  C   UNL d   1      57.302  49.513  52.235  0.00  0.00     0.000 A 
ATOM     33  C   UNL d   1      57.717  49.398  51.531  0.00  0.00     0.002 A 
ENDBRANCH  27  28
ENDBRANCH  25  27
ENDBRANCH  22  24
ENDBRANCH  20  21
ENDBRANCH   1  20
TORSDOF 8
ENDMDL
