MODEL 1
REMARK VINA RESULT:      82.1      0.000      0.000
REMARK  5 active torsions:
REMARK  status: ('A' for Active; 'I' for Inactive)
REMARK       I    between atoms: C_5  and  N_1 
REMARK    1  A    between atoms: S_13  and  C_2 
REMARK    2  A    between atoms: S_3  and  C_9 
REMARK    3  A    between atoms: N_7  and  S_3 
REMARK    4  A    between atoms: C_12  and  C_5 
REMARK    5  A    between atoms: C_23  and  S_13 
ROOT
ATOM      1  C   UNL d   1     -50.671  26.075  33.701  0.00  0.00     0.104 A 
ATOM      2  C   UNL d   1     -49.704  27.397  33.896  0.00  0.00     0.057 A 
ATOM      3  C   UNL d   1     -50.998  26.833  33.691  0.00  0.00     0.013 A 
ATOM      4  C   UNL d   1     -49.853  25.979  33.811  0.00  0.00     0.013 A 
ATOM      5  C   UNL d   1     -49.367  26.641  33.908  0.00  0.00     0.005 A 
ATOM      6  C   UNL d   1     -50.514  27.490  33.788  0.00  0.00     0.005 A 
ENDROOT
BRANCH   2   7
ATOM      7  C   UNL d   1     -49.222  28.051  33.993  0.00  0.00     0.266 C 
ATOM      8  N   UNL d   1     -48.944  28.267  34.744  0.00  0.00    -0.253 N 
ATOM      9  C   UNL d   1     -49.112  27.870  35.448  0.00  0.00     0.182 A 
ATOM     10  C   UNL d   1     -48.456  28.911  34.916  0.00  0.00     0.086 A 
ATOM     11  N   UNL d   1     -48.725  28.271  36.060  0.00  0.00    -0.221 NA
ATOM     12  C   UNL d   1     -48.322  28.911  35.735  0.00  0.00     0.100 A 
ATOM     13  C   UNL d   1     -47.852  29.493  36.068  0.00  0.00     0.021 A 
ATOM     14  C   UNL d   1     -47.513  30.076  35.596  0.00  0.00     0.002 A 
ATOM     15  C   UNL d   1     -47.649  30.074  34.778  0.00  0.00     0.002 A 
ATOM     16  C   UNL d   1     -48.122  29.488  34.445  0.00  0.00     0.019 A 
ATOM     17  O   UNL d   1     -49.007  28.504  33.334  0.00  0.00    -0.267 OA
BRANCH   9  18
ATOM     18  S   UNL d   1     -49.579  27.200  35.518  0.00  0.00    -0.049 SA
BRANCH  18  19
ATOM     19  C   UNL d   1     -49.881  26.862  36.419  0.00  0.00     0.038 C 
ATOM     20  C   UNL d   1     -50.662  27.130  36.877  0.00  0.00     0.008 C 
ENDBRANCH  18  19
ENDBRANCH   9  18
ENDBRANCH   2   7
BRANCH   1  21
ATOM     21  S   UNL d   1     -51.160  25.416  33.603  0.00  0.00     0.271 S 
ATOM     22  O   UNL d   1     -51.816  25.854  33.862  0.00  0.00    -0.200 OA
ATOM     23  O   UNL d   1     -50.514  24.970  33.343  0.00  0.00    -0.200 OA
BRANCH  21  24
ATOM     24  N   UNL d   1     -51.648  24.753  33.504  0.00  0.00    -0.229 N 
ATOM     25  C   UNL d   1     -51.320  23.991  33.487  0.00  0.00     0.092 A 
ATOM     26  C   UNL d   1     -51.799  23.338  33.389  0.00  0.00     0.020 A 
ATOM     27  C   UNL d   1     -52.608  23.435  33.307  0.00  0.00     0.003 A 
ATOM     28  C   UNL d   1     -52.949  24.189  33.321  0.00  0.00     0.020 A 
ATOM     29  C   UNL d   1     -52.458  24.846  33.420  0.00  0.00     0.092 A 
ENDBRANCH  21  24
ENDBRANCH   1  21
TORSDOF 5
ENDMDL
