MODEL 1
REMARK VINA RESULT:      -4.9      0.000      0.000
REMARK  2 active torsions:
REMARK  status: ('A' for Active; 'I' for Inactive)
REMARK       I    between atoms: N_2  and  C_1 
REMARK    1  A    between atoms: C_6  and  C_1 
REMARK    2  A    between atoms: C_4  and  N_2 
ROOT
ATOM      1  C   UNL d   1     -41.146-122.737 -53.362  0.00  0.00     0.085 A 
ATOM      2  C   UNL d   1     -41.176-123.554 -53.210  0.00  0.00     0.019 A 
ATOM      3  C   UNL d   1     -41.123-122.192 -52.742  0.00  0.00     0.019 A 
ATOM      4  C   UNL d   1     -41.128-122.454 -51.959  0.00  0.00     0.002 A 
ATOM      5  C   UNL d   1     -41.182-123.817 -52.428  0.00  0.00     0.002 A 
ATOM      6  C   UNL d   1     -41.158-123.263 -51.798  0.00  0.00     0.000 A 
ENDROOT
BRANCH   1   7
ATOM      7  N   UNL d   1     -41.140-122.474 -54.144  0.00  0.00    -0.207 NA
ATOM      8  C   UNL d   1     -41.850-122.290 -54.521  0.00  0.00     0.300 C 
ATOM      9  O   UNL d   1     -42.566-122.369 -54.117  0.00  0.00    -0.263 OA
BRANCH   8  10
ATOM     10  C   UNL d   1     -41.845-122.027 -55.303  0.00  0.00     0.184 C 
ATOM     11  N   UNL d   1     -42.554-121.951 -55.716  0.00  0.00    -0.141 N 
ENDBRANCH   8  10
ENDBRANCH   1   7
TORSDOF 2
ENDMDL
MODEL 2
REMARK VINA RESULT:      -4.8      1.329      2.848
REMARK  2 active torsions:
REMARK  status: ('A' for Active; 'I' for Inactive)
REMARK       I    between atoms: N_2  and  C_1 
REMARK    1  A    between atoms: C_6  and  C_1 
REMARK    2  A    between atoms: C_4  and  N_2 
ROOT
ATOM      1  C   UNL d   1     -41.879-122.498 -53.947  0.00  0.00     0.085 A 
ATOM      2  C   UNL d   1     -41.349-122.767 -54.529  0.00  0.00     0.019 A 
ATOM      3  C   UNL d   1     -42.477-121.960 -54.134  0.00  0.00     0.019 A 
ATOM      4  C   UNL d   1     -42.555-121.681 -54.907  0.00  0.00     0.002 A 
ATOM      5  C   UNL d   1     -41.426-122.488 -55.301  0.00  0.00     0.002 A 
ATOM      6  C   UNL d   1     -42.034-121.942 -55.492  0.00  0.00     0.000 A 
ENDROOT
BRANCH   1   7
ATOM      7  N   UNL d   1     -41.801-122.777 -53.174  0.00  0.00    -0.207 NA
ATOM      8  C   UNL d   1     -41.424-122.313 -52.606  0.00  0.00     0.300 C 
ATOM      9  O   UNL d   1     -41.125-121.570 -52.810  0.00  0.00    -0.263 OA
BRANCH   8  10
ATOM     10  C   UNL d   1     -41.347-122.591 -51.833  0.00  0.00     0.184 C 
ATOM     11  N   UNL d   1     -41.124-122.074 -51.230  0.00  0.00    -0.141 N 
ENDBRANCH   8  10
ENDBRANCH   1   7
TORSDOF 2
ENDMDL
MODEL 3
REMARK VINA RESULT:      -3.6      2.331      3.188
REMARK  2 active torsions:
REMARK  status: ('A' for Active; 'I' for Inactive)
REMARK       I    between atoms: N_2  and  C_1 
REMARK    1  A    between atoms: C_6  and  C_1 
REMARK    2  A    between atoms: C_4  and  N_2 
ROOT
ATOM      1  C   UNL d   1     -41.851-122.589 -50.266  0.00  0.00     0.085 A 
ATOM      2  C   UNL d   1     -42.631-122.365 -50.086  0.00  0.00     0.019 A 
ATOM      3  C   UNL d   1     -41.447-123.134 -49.796  0.00  0.00     0.019 A 
ATOM      4  C   UNL d   1     -41.816-123.465 -49.136  0.00  0.00     0.002 A 
ATOM      5  C   UNL d   1     -43.001-122.695 -49.426  0.00  0.00     0.002 A 
ATOM      6  C   UNL d   1     -42.590-123.249 -48.948  0.00  0.00     0.000 A 
ENDROOT
BRANCH   1   7
ATOM      7  N   UNL d   1     -41.481-122.259 -50.926  0.00  0.00    -0.207 NA
ATOM      8  C   UNL d   1     -41.492-122.659 -51.647  0.00  0.00     0.300 C 
ATOM      9  O   UNL d   1     -41.873-123.389 -51.709  0.00  0.00    -0.263 OA
BRANCH   8  10
ATOM     10  C   UNL d   1     -41.122-122.329 -52.306  0.00  0.00     0.184 C 
ATOM     11  N   UNL d   1     -41.185-122.698 -53.041  0.00  0.00    -0.141 N 
ENDBRANCH   8  10
ENDBRANCH   1   7
TORSDOF 2
ENDMDL
MODEL 4
REMARK VINA RESULT:      -3.6      2.551      3.642
REMARK  2 active torsions:
REMARK  status: ('A' for Active; 'I' for Inactive)
REMARK       I    between atoms: N_2  and  C_1 
REMARK    1  A    between atoms: C_6  and  C_1 
REMARK    2  A    between atoms: C_4  and  N_2 
ROOT
ATOM      1  C   UNL d   1     -41.177-123.023 -51.236  0.00  0.00     0.085 A 
ATOM      2  C   UNL d   1     -41.160-123.730 -51.673  0.00  0.00     0.019 A 
ATOM      3  C   UNL d   1     -41.167-122.290 -51.615  0.00  0.00     0.019 A 
ATOM      4  C   UNL d   1     -41.140-122.251 -52.439  0.00  0.00     0.002 A 
ATOM      5  C   UNL d   1     -41.133-123.692 -52.497  0.00  0.00     0.002 A 
ATOM      6  C   UNL d   1     -41.123-122.947 -52.882  0.00  0.00     0.000 A 
ENDROOT
BRANCH   1   7
ATOM      7  N   UNL d   1     -41.205-123.062 -50.412  0.00  0.00    -0.207 NA
ATOM      8  C   UNL d   1     -41.930-123.015 -50.022  0.00  0.00     0.300 C 
ATOM      9  O   UNL d   1     -42.628-122.929 -50.456  0.00  0.00    -0.263 OA
BRANCH   8  10
ATOM     10  C   UNL d   1     -41.958-123.053 -49.199  0.00  0.00     0.184 C 
ATOM     11  N   UNL d   1     -42.686-123.072 -48.812  0.00  0.00    -0.141 N 
ENDBRANCH   8  10
ENDBRANCH   1   7
TORSDOF 2
ENDMDL
MODEL 5
REMARK VINA RESULT:      -2.7      4.053      5.263
REMARK  2 active torsions:
REMARK  status: ('A' for Active; 'I' for Inactive)
REMARK       I    between atoms: N_2  and  C_1 
REMARK    1  A    between atoms: C_6  and  C_1 
REMARK    2  A    between atoms: C_4  and  N_2 
ROOT
ATOM      1  C   UNL d   1     -42.290-123.238 -49.634  0.00  0.00     0.085 A 
ATOM      2  C   UNL d   1     -42.601-122.521 -49.915  0.00  0.00     0.019 A 
ATOM      3  C   UNL d   1     -41.629-123.581 -49.992  0.00  0.00     0.019 A 
ATOM      4  C   UNL d   1     -41.268-123.212 -50.636  0.00  0.00     0.002 A 
ATOM      5  C   UNL d   1     -42.242-122.151 -50.559  0.00  0.00     0.002 A 
ATOM      6  C   UNL d   1     -41.570-122.499 -50.922  0.00  0.00     0.000 A 
ENDROOT
BRANCH   1   7
ATOM      7  N   UNL d   1     -42.649-123.608 -48.990  0.00  0.00    -0.207 NA
ATOM      8  C   UNL d   1     -42.387-123.448 -48.225  0.00  0.00     0.300 C 
ATOM      9  O   UNL d   1     -41.765-122.918 -48.103  0.00  0.00    -0.263 OA
BRANCH   8  10
ATOM     10  C   UNL d   1     -42.747-123.817 -47.581  0.00  0.00     0.184 C 
ATOM     11  N   UNL d   1     -42.472-123.671 -46.817  0.00  0.00    -0.141 N 
ENDBRANCH   8  10
ENDBRANCH   1   7
TORSDOF 2
ENDMDL
