MODEL 1
REMARK VINA RESULT:      58.0      0.000      0.000
REMARK  3 active torsions:
REMARK  status: ('A' for Active; 'I' for Inactive)
REMARK    1  A    between atoms: C_11  and  C_8 
REMARK       I    between atoms: N_14  and  C_11 
REMARK    2  A    between atoms: C_20  and  N_14 
REMARK    3  A    between atoms: C_21  and  C_20 
ROOT
ATOM      1  C   UNL d   1      14.090  13.146  -2.243  0.00  0.00     0.154 A 
ATOM      2  C   UNL d   1      14.139  13.841  -2.685  0.00  0.00     0.093 A 
ATOM      3  N   UNL d   1      13.785  12.457  -2.591  0.00  0.00    -0.210 NA
ATOM      4  N   UNL d   1      13.581  13.162  -3.816  0.00  0.00    -0.258 N 
ATOM      5  C   UNL d   1      13.883  13.848  -3.474  0.00  0.00     0.269 A 
ATOM      6  N   UNL d   1      14.378  13.298  -1.489  0.00  0.00    -0.285 N 
ATOM      7  C   UNL d   1      13.532  12.467  -3.375  0.00  0.00     0.152 A 
ATOM      8  C   UNL d   1      14.607  14.087  -1.459  0.00  0.00     0.124 A 
ATOM      9  C   UNL d   1      14.457  14.421  -2.202  0.00  0.00     0.030 A 
ATOM     10  C   UNL d   1      13.329  13.172  -4.600  0.00  0.00     0.084 A 
ATOM     11  C   UNL d   1      13.230  11.782  -3.717  0.00  0.00     0.038 A 
ATOM     12  C   UNL d   1      13.027  12.486  -4.942  0.00  0.00     0.018 A 
ATOM     13  C   UNL d   1      12.977  11.791  -4.500  0.00  0.00     0.005 A 
ATOM     14  O   UNL d   1      13.933  14.543  -3.916  0.00  0.00    -0.266 OA
ATOM     15  C   UNL d   1      14.431  12.756  -0.863  0.00  0.00     0.101 C 
ATOM     16  C   UNL d   1      12.769  12.491  -5.735  0.00  0.00     0.002 C 
ENDROOT
BRANCH   8  17
ATOM     17  C   UNL d   1      14.928  14.475  -0.805  0.00  0.00     0.295 C 
ATOM     18  N   UNL d   1      15.067  15.289  -0.840  0.00  0.00    -0.203 NA
ATOM     19  O   UNL d   1      15.110  14.056  -0.120  0.00  0.00    -0.264 OA
BRANCH  18  20
ATOM     20  C   UNL d   1      15.388  15.681  -0.188  0.00  0.00     0.127 C 
BRANCH  20  21
ATOM     21  C   UNL d   1      15.733  16.422  -0.281  0.00  0.00     0.119 A 
ATOM     22  O   UNL d   1      16.527  16.669  -0.296  0.00  0.00    -0.304 OA
ATOM     23  C   UNL d   1      16.535  17.487  -0.408  0.00  0.00     0.123 A 
ATOM     24  C   UNL d   1      15.762  17.751  -0.463  0.00  0.00     0.029 A 
ATOM     25  C   UNL d   1      15.258  17.094  -0.385  0.00  0.00     0.028 A 
ENDBRANCH  20  21
ENDBRANCH  18  20
ENDBRANCH   8  17
TORSDOF 3
ENDMDL
MODEL 2
REMARK VINA RESULT:      58.5      2.169      4.255
REMARK  3 active torsions:
REMARK  status: ('A' for Active; 'I' for Inactive)
REMARK    1  A    between atoms: C_11  and  C_8 
REMARK       I    between atoms: N_14  and  C_11 
REMARK    2  A    between atoms: C_20  and  N_14 
REMARK    3  A    between atoms: C_21  and  C_20 
ROOT
ATOM      1  C   UNL d   1      13.527  13.130  -3.429  0.00  0.00     0.154 A 
ATOM      2  C   UNL d   1      13.914  13.811  -3.168  0.00  0.00     0.093 A 
ATOM      3  N   UNL d   1      13.521  12.452  -2.952  0.00  0.00    -0.210 NA
ATOM      4  N   UNL d   1      14.285  13.137  -1.959  0.00  0.00    -0.258 N 
ATOM      5  C   UNL d   1      14.293  13.813  -2.430  0.00  0.00     0.269 A 
ATOM      6  N   UNL d   1      13.205  13.284  -4.169  0.00  0.00    -0.285 N 
ATOM      7  C   UNL d   1      13.899  12.456  -2.220  0.00  0.00     0.152 A 
ATOM      8  C   UNL d   1      13.388  14.059  -4.370  0.00  0.00     0.124 A 
ATOM      9  C   UNL d   1      13.829  14.384  -3.747  0.00  0.00     0.030 A 
ATOM     10  C   UNL d   1      14.663  13.143  -1.228  0.00  0.00     0.084 A 
ATOM     11  C   UNL d   1      13.890  11.782  -1.749  0.00  0.00     0.038 A 
ATOM     12  C   UNL d   1      14.654  12.467  -0.757  0.00  0.00     0.018 A 
ATOM     13  C   UNL d   1      14.268  11.786  -1.018  0.00  0.00     0.005 A 
ATOM     14  O   UNL d   1      14.680  14.494  -2.169  0.00  0.00    -0.266 OA
ATOM     15  C   UNL d   1      12.769  12.755  -4.635  0.00  0.00     0.101 C 
ATOM     16  C   UNL d   1      15.035  12.467  -0.015  0.00  0.00     0.002 C 
ENDROOT
BRANCH   8  17
ATOM     17  C   UNL d   1      13.173  14.444  -5.068  0.00  0.00     0.295 C 
ATOM     18  N   UNL d   1      13.307  15.256  -5.145  0.00  0.00    -0.203 NA
ATOM     19  O   UNL d   1      12.826  14.023  -5.685  0.00  0.00    -0.264 OA
BRANCH  18  20
ATOM     20  C   UNL d   1      13.093  15.644  -5.841  0.00  0.00     0.127 C 
BRANCH  20  21
ATOM     21  C   UNL d   1      13.365  16.408  -5.988  0.00  0.00     0.119 A 
ATOM     22  O   UNL d   1      14.107  16.766  -5.878  0.00  0.00    -0.304 OA
ATOM     23  C   UNL d   1      14.049  17.550  -6.127  0.00  0.00     0.123 A 
ATOM     24  C   UNL d   1      13.284  17.685  -6.388  0.00  0.00     0.029 A 
ATOM     25  C   UNL d   1      12.853  16.979  -6.305  0.00  0.00     0.028 A 
ENDBRANCH  20  21
ENDBRANCH  18  20
ENDBRANCH   8  17
TORSDOF 3
ENDMDL
