MODEL 1
REMARK VINA RESULT:      -8.1      0.000      0.000
REMARK  9 active torsions:
REMARK  status: ('A' for Active; 'I' for Inactive)
REMARK    1  A    between atoms: C_27  and  N_1 
REMARK    2  A    between atoms: S_11  and  C_2 
REMARK    3  A    between atoms: C_28  and  S_11 
REMARK    4  A    between atoms: C_18  and  C_28 
REMARK    5  A    between atoms: C_19  and  C_35 
REMARK       I    between atoms: N_23  and  C_19 
REMARK    6  A    between atoms: C_32  and  N_23 
REMARK    7  A    between atoms: C_34  and  C_27 
REMARK    8  A    between atoms: C_30  and  C_32 
REMARK    9  A    between atoms: C_35  and  C_34 
ROOT
ATOM      1  N   UNL d   1      51.643  33.435  53.337  0.00  0.00    -0.253 N 
ATOM      2  C   UNL d   1      52.364  33.740  53.589  0.00  0.00     0.182 A 
ATOM      3  C   UNL d   1      51.569  32.620  53.189  0.00  0.00     0.268 A 
ATOM      4  C   UNL d   1      52.215  32.117  53.293  0.00  0.00     0.076 A 
ATOM      5  N   UNL d   1      53.002  33.225  53.689  0.00  0.00    -0.222 NA
ATOM      6  C   UNL d   1      52.937  32.422  53.545  0.00  0.00     0.090 A 
ATOM      7  C   UNL d   1      52.139  31.305  53.145  0.00  0.00     0.033 A 
ATOM      8  C   UNL d   1      53.578  31.898  53.645  0.00  0.00     0.046 A 
ATOM      9  C   UNL d   1      52.794  30.783  53.249  0.00  0.00     0.119 A 
ATOM     10  C   UNL d   1      53.515  31.087  53.501  0.00  0.00     0.121 A 
ATOM     11  O   UNL d   1      50.847  32.315  52.937  0.00  0.00    -0.267 OA
ATOM     12  O   UNL d   1      52.894  29.954  53.148  0.00  0.00    -0.300 OA
ATOM     13  O   UNL d   1      54.048  30.446  53.551  0.00  0.00    -0.299 OA
ATOM     14  C   UNL d   1      53.672  29.742  53.335  0.00  0.00     0.304 A 
ENDROOT
BRANCH   1  15
ATOM     15  C   UNL d   1      50.988  33.958  53.234  0.00  0.00     0.085 C 
BRANCH  15  16
ATOM     16  C   UNL d   1      50.668  34.052  52.490  0.00  0.00     0.024 C 
BRANCH  16  17
ATOM     17  C   UNL d   1      49.970  34.492  52.400  0.00  0.00     0.064 C 
BRANCH  17  18
ATOM     18  C   UNL d   1      49.653  34.618  51.652  0.00  0.00     0.279 C 
ATOM     19  N   UNL d   1      48.910  34.970  51.575  0.00  0.00    -0.206 NA
ATOM     20  O   UNL d   1      50.073  34.395  50.982  0.00  0.00    -0.265 OA
BRANCH  19  21
ATOM     21  C   UNL d   1      48.487  35.194  52.246  0.00  0.00     0.102 C 
BRANCH  21  22
ATOM     22  C   UNL d   1      47.756  35.558  52.162  0.00  0.00     0.021 A 
ATOM     23  C   UNL d   1      47.194  35.228  51.656  0.00  0.00     0.028 A 
ATOM     24  C   UNL d   1      46.463  35.592  51.573  0.00  0.00     0.119 A 
ATOM     25  O   UNL d   1      45.800  35.400  51.119  0.00  0.00    -0.300 OA
ATOM     26  C   UNL d   1      46.292  36.281  51.991  0.00  0.00     0.119 A 
ATOM     27  C   UNL d   1      45.225  35.971  51.260  0.00  0.00     0.304 A 
ATOM     28  O   UNL d   1      45.528  36.516  51.799  0.00  0.00    -0.300 OA
ATOM     29  C   UNL d   1      46.860  36.604  52.495  0.00  0.00     0.026 A 
ATOM     30  C   UNL d   1      47.587  36.243  52.578  0.00  0.00     0.004 A 
ENDBRANCH  21  22
ENDBRANCH  19  21
ENDBRANCH  17  18
ENDBRANCH  16  17
ENDBRANCH  15  16
ENDBRANCH   1  15
BRANCH   2  31
ATOM     31  S   UNL d   1      52.421  34.563  53.733  0.00  0.00    -0.044 SA
BRANCH  31  32
ATOM     32  C   UNL d   1      52.992  34.843  54.268  0.00  0.00     0.102 C 
BRANCH  32  33
ATOM     33  C   UNL d   1      53.091  35.657  54.373  0.00  0.00     0.303 C 
ATOM     34  O   UNL d   1      52.619  36.059  54.915  0.00  0.00    -0.263 OA
ATOM     35  N   UNL d   1      53.659  36.054  53.933  0.00  0.00    -0.102 N 
ENDBRANCH  32  33
ENDBRANCH  31  32
ENDBRANCH   2  31
TORSDOF 9
ENDMDL
MODEL 2
REMARK VINA RESULT:      -7.0      1.584      2.978
REMARK  9 active torsions:
REMARK  status: ('A' for Active; 'I' for Inactive)
REMARK    1  A    between atoms: C_27  and  N_1 
REMARK    2  A    between atoms: S_11  and  C_2 
REMARK    3  A    between atoms: C_28  and  S_11 
REMARK    4  A    between atoms: C_18  and  C_28 
REMARK    5  A    between atoms: C_19  and  C_35 
REMARK       I    between atoms: N_23  and  C_19 
REMARK    6  A    between atoms: C_32  and  N_23 
REMARK    7  A    between atoms: C_34  and  C_27 
REMARK    8  A    between atoms: C_30  and  C_32 
REMARK    9  A    between atoms: C_35  and  C_34 
ROOT
ATOM      1  N   UNL d   1      52.368  32.958  53.583  0.00  0.00    -0.253 N 
ATOM      2  C   UNL d   1      52.809  32.264  53.549  0.00  0.00     0.182 A 
ATOM      3  C   UNL d   1      52.685  33.629  53.960  0.00  0.00     0.268 A 
ATOM      4  C   UNL d   1      53.436  33.601  54.300  0.00  0.00     0.076 A 
ATOM      5  N   UNL d   1      53.560  32.251  53.893  0.00  0.00    -0.222 NA
ATOM      6  C   UNL d   1      53.877  32.907  54.266  0.00  0.00     0.090 A 
ATOM      7  C   UNL d   1      53.750  34.270  54.675  0.00  0.00     0.033 A 
ATOM      8  C   UNL d   1      54.635  32.898  54.614  0.00  0.00     0.046 A 
ATOM      9  C   UNL d   1      54.517  34.252  55.025  0.00  0.00     0.119 A 
ATOM     10  C   UNL d   1      54.958  33.557  54.991  0.00  0.00     0.121 A 
ATOM     11  O   UNL d   1      52.244  34.323  53.995  0.00  0.00    -0.267 OA
ATOM     12  O   UNL d   1      54.980  34.821  55.436  0.00  0.00    -0.300 OA
ATOM     13  O   UNL d   1      55.682  33.707  55.378  0.00  0.00    -0.299 OA
ATOM     14  C   UNL d   1      55.704  34.486  55.656  0.00  0.00     0.304 A 
ENDROOT
BRANCH   1  15
ATOM     15  C   UNL d   1      51.601  32.977  53.233  0.00  0.00     0.085 C 
BRANCH  15  16
ATOM     16  C   UNL d   1      51.434  33.541  52.669  0.00  0.00     0.024 C 
BRANCH  16  17
ATOM     17  C   UNL d   1      50.645  33.755  52.529  0.00  0.00     0.064 C 
BRANCH  17  18
ATOM     18  C   UNL d   1      50.447  34.201  51.866  0.00  0.00     0.279 C 
ATOM     19  N   UNL d   1      49.757  34.654  51.867  0.00  0.00    -0.206 NA
ATOM     20  O   UNL d   1      50.935  34.197  51.205  0.00  0.00    -0.265 OA
BRANCH  19  21
ATOM     21  C   UNL d   1      49.267  34.660  52.529  0.00  0.00     0.102 C 
BRANCH  21  22
ATOM     22  C   UNL d   1      48.640  35.189  52.565  0.00  0.00     0.021 A 
ATOM     23  C   UNL d   1      48.070  35.185  51.967  0.00  0.00     0.028 A 
ATOM     24  C   UNL d   1      47.444  35.713  52.004  0.00  0.00     0.119 A 
ATOM     25  O   UNL d   1      46.801  35.841  51.502  0.00  0.00    -0.300 OA
ATOM     26  C   UNL d   1      47.383  36.243  52.632  0.00  0.00     0.119 A 
ATOM     27  C   UNL d   1      46.348  36.449  51.823  0.00  0.00     0.304 A 
ATOM     28  O   UNL d   1      46.707  36.698  52.521  0.00  0.00    -0.300 OA
ATOM     29  C   UNL d   1      47.957  36.240  53.226  0.00  0.00     0.026 A 
ATOM     30  C   UNL d   1      48.580  35.715  53.190  0.00  0.00     0.004 A 
ENDBRANCH  21  22
ENDBRANCH  19  21
ENDBRANCH  17  18
ENDBRANCH  16  17
ENDBRANCH  15  16
ENDBRANCH   1  15
BRANCH   2  31
ATOM     31  S   UNL d   1      52.476  31.599  53.165  0.00  0.00    -0.044 SA
BRANCH  31  32
ATOM     32  C   UNL d   1      52.806  30.847  53.295  0.00  0.00     0.102 C 
BRANCH  32  33
ATOM     33  C   UNL d   1      52.462  30.182  52.944  0.00  0.00     0.303 C 
ATOM     34  O   UNL d   1      51.843  29.796  53.323  0.00  0.00    -0.263 OA
ATOM     35  N   UNL d   1      52.745  29.917  52.220  0.00  0.00    -0.102 N 
ENDBRANCH  32  33
ENDBRANCH  31  32
ENDBRANCH   2  31
TORSDOF 9
ENDMDL
MODEL 3
REMARK VINA RESULT:      -5.7      2.444      7.046
REMARK  9 active torsions:
REMARK  status: ('A' for Active; 'I' for Inactive)
REMARK    1  A    between atoms: C_27  and  N_1 
REMARK    2  A    between atoms: S_11  and  C_2 
REMARK    3  A    between atoms: C_28  and  S_11 
REMARK    4  A    between atoms: C_18  and  C_28 
REMARK    5  A    between atoms: C_19  and  C_35 
REMARK       I    between atoms: N_23  and  C_19 
REMARK    6  A    between atoms: C_32  and  N_23 
REMARK    7  A    between atoms: C_34  and  C_27 
REMARK    8  A    between atoms: C_30  and  C_32 
REMARK    9  A    between atoms: C_35  and  C_34 
ROOT
ATOM      1  N   UNL d   1      47.424  36.012  53.109  0.00  0.00    -0.253 N 
ATOM      2  C   UNL d   1      46.682  35.909  52.768  0.00  0.00     0.182 A 
ATOM      3  C   UNL d   1      47.484  36.192  53.919  0.00  0.00     0.268 A 
ATOM      4  C   UNL d   1      46.805  36.268  54.381  0.00  0.00     0.076 A 
ATOM      5  N   UNL d   1      46.011  35.988  53.243  0.00  0.00    -0.222 NA
ATOM      6  C   UNL d   1      46.063  36.165  54.040  0.00  0.00     0.090 A 
ATOM      7  C   UNL d   1      46.866  36.448  55.188  0.00  0.00     0.033 A 
ATOM      8  C   UNL d   1      45.387  36.246  54.522  0.00  0.00     0.046 A 
ATOM      9  C   UNL d   1      46.178  36.528  55.668  0.00  0.00     0.119 A 
ATOM     10  C   UNL d   1      45.435  36.425  55.327  0.00  0.00     0.121 A 
ATOM     11  O   UNL d   1      48.226  36.295  54.260  0.00  0.00    -0.267 OA
ATOM     12  O   UNL d   1      46.057  36.703  56.482  0.00  0.00    -0.300 OA
ATOM     13  O   UNL d   1      44.871  36.537  55.932  0.00  0.00    -0.299 OA
ATOM     14  C   UNL d   1      45.246  36.709  56.649  0.00  0.00     0.304 A 
ENDROOT
BRANCH   1  15
ATOM     15  C   UNL d   1      48.113  35.932  52.629  0.00  0.00     0.085 C 
BRANCH  15  16
ATOM     16  C   UNL d   1      48.530  35.231  52.643  0.00  0.00     0.024 C 
BRANCH  16  17
ATOM     17  C   UNL d   1      49.334  35.232  52.438  0.00  0.00     0.064 C 
BRANCH  17  18
ATOM     18  C   UNL d   1      49.640  34.638  51.958  0.00  0.00     0.279 C 
ATOM     19  N   UNL d   1      50.328  34.241  52.183  0.00  0.00    -0.206 NA
ATOM     20  O   UNL d   1      49.263  34.439  51.256  0.00  0.00    -0.265 OA
BRANCH  19  21
ATOM     21  C   UNL d   1      50.707  34.440  52.887  0.00  0.00     0.102 C 
BRANCH  21  22
ATOM     22  C   UNL d   1      51.431  34.096  53.069  0.00  0.00     0.021 A 
ATOM     23  C   UNL d   1      51.522  33.279  52.995  0.00  0.00     0.028 A 
ATOM     24  C   UNL d   1      52.245  32.936  53.177  0.00  0.00     0.119 A 
ATOM     25  O   UNL d   1      52.502  32.151  53.159  0.00  0.00    -0.300 OA
ATOM     26  C   UNL d   1      52.874  33.402  53.432  0.00  0.00     0.119 A 
ATOM     27  C   UNL d   1      53.288  32.139  53.402  0.00  0.00     0.304 A 
ATOM     28  O   UNL d   1      53.519  32.912  53.571  0.00  0.00    -0.300 OA
ATOM     29  C   UNL d   1      52.774  34.219  53.503  0.00  0.00     0.026 A 
ATOM     30  C   UNL d   1      52.056  34.561  53.322  0.00  0.00     0.004 A 
ENDBRANCH  21  22
ENDBRANCH  19  21
ENDBRANCH  17  18
ENDBRANCH  16  17
ENDBRANCH  15  16
ENDBRANCH   1  15
BRANCH   2  31
ATOM     31  S   UNL d   1      46.640  35.727  51.952  0.00  0.00    -0.044 SA
BRANCH  31  32
ATOM     32  C   UNL d   1      45.973  35.966  51.517  0.00  0.00     0.102 C 
BRANCH  32  33
ATOM     33  C   UNL d   1      45.629  35.444  50.976  0.00  0.00     0.303 C 
ATOM     34  O   UNL d   1      46.069  34.815  50.680  0.00  0.00    -0.263 OA
ATOM     35  N   UNL d   1      44.851  35.562  50.742  0.00  0.00    -0.102 N 
ENDBRANCH  32  33
ENDBRANCH  31  32
ENDBRANCH   2  31
TORSDOF 9
ENDMDL
