MODEL 1
REMARK VINA RESULT:      67.4      0.000      0.000
REMARK  8 active torsions:
REMARK  status: ('A' for Active; 'I' for Inactive)
REMARK    1  A    between atoms: C_8  and  N_3 
REMARK    2  A    between atoms: S_7  and  C_5 
REMARK    3  A    between atoms: C_17  and  S_7 
REMARK    4  A    between atoms: C_20  and  C_8 
REMARK    5  A    between atoms: C_9  and  C_17 
REMARK       I    between atoms: N_12  and  C_9 
REMARK    6  A    between atoms: C_11  and  C_13 
REMARK    7  A    between atoms: C_13  and  N_12 
REMARK    8  A    between atoms: O_21  and  C_15 
ROOT
ATOM      1  N   UNL d   1     -48.215  29.867  34.234  0.00  0.00    -0.185 NA
ATOM      2  C   UNL d   1     -47.912  30.635  34.210  0.00  0.00     0.354 A 
ATOM      3  N   UNL d   1     -47.455  30.916  34.840  0.00  0.00    -0.258 N 
ATOM      4  C   UNL d   1     -47.609  29.670  35.502  0.00  0.00     0.040 A 
ATOM      5  C   UNL d   1     -48.064  29.384  34.880  0.00  0.00     0.117 A 
ATOM      6  C   UNL d   1     -47.303  30.434  35.486  0.00  0.00     0.070 A 
ATOM      7  O   UNL d   1     -48.066  31.127  33.551  0.00  0.00    -0.244 OA
ATOM      8  C   UNL d   1     -47.363  29.333  36.214  0.00  0.00     0.004 A 
ATOM      9  C   UNL d   1     -46.874  30.579  36.169  0.00  0.00     0.018 A 
ATOM     10  C   UNL d   1     -46.914  29.882  36.626  0.00  0.00     0.002 A 
ENDROOT
BRANCH   5  11
ATOM     11  S   UNL d   1     -48.368  28.615  34.903  0.00  0.00    -0.062 SA
BRANCH  11  12
ATOM     12  C   UNL d   1     -48.519  28.206  34.205  0.00  0.00     0.099 C 
BRANCH  12  13
ATOM     13  C   UNL d   1     -48.801  27.427  34.241  0.00  0.00     0.286 C 
ATOM     14  N   UNL d   1     -49.534  27.237  33.937  0.00  0.00    -0.206 NA
ATOM     15  O   UNL d   1     -48.331  26.831  34.589  0.00  0.00    -0.265 OA
BRANCH  14  16
ATOM     16  C   UNL d   1     -49.816  26.459  33.972  0.00  0.00     0.104 C 
BRANCH  16  17
ATOM     17  C   UNL d   1     -50.588  26.287  33.756  0.00  0.00     0.042 A 
ATOM     18  C   UNL d   1     -50.804  25.513  33.556  0.00  0.00     0.096 A 
ATOM     19  C   UNL d   1     -51.581  25.342  33.339  0.00  0.00     0.024 A 
ATOM     20  C   UNL d   1     -52.147  25.937  33.318  0.00  0.00     0.002 A 
ATOM     21  C   UNL d   1     -51.941  26.715  33.516  0.00  0.00     0.000 A 
ATOM     22  C   UNL d   1     -51.158  26.896  33.737  0.00  0.00     0.004 A 
BRANCH  18  23
ATOM     23  O   UNL d   1     -50.237  24.906  33.574  0.00  0.00    -0.328 OA
ATOM     24  C   UNL d   1     -50.452  24.146  33.320  0.00  0.00     0.181 C 
ENDBRANCH  18  23
ENDBRANCH  16  17
ENDBRANCH  14  16
ENDBRANCH  12  13
ENDBRANCH  11  12
ENDBRANCH   5  11
BRANCH   3  25
ATOM     25  C   UNL d   1     -47.150  31.686  34.817  0.00  0.00     0.085 C 
BRANCH  25  26
ATOM     26  C   UNL d   1     -47.573  32.283  34.431  0.00  0.00     0.021 A 
ATOM     27  C   UNL d   1     -47.335  32.537  33.688  0.00  0.00     0.022 A 
ATOM     28  C   UNL d   1     -47.763  33.134  33.310  0.00  0.00     0.099 A 
ATOM     29  N   UNL d   1     -48.422  33.474  33.672  0.00  0.00    -0.242 NA
ATOM     30  C   UNL d   1     -48.652  33.217  34.411  0.00  0.00     0.099 A 
ATOM     31  C   UNL d   1     -48.226  32.611  34.804  0.00  0.00     0.022 A 
ENDBRANCH  25  26
ENDBRANCH   3  25
TORSDOF 8
ENDMDL
