MODEL 1
REMARK VINA RESULT:      26.1      0.000      0.000
REMARK  3 active torsions:
REMARK  status: ('A' for Active; 'I' for Inactive)
REMARK    1  A    between atoms: N_2  and  S_1 
REMARK    2  A    between atoms: N_3  and  S_1 
REMARK    3  A    between atoms: C_6  and  N_3 
ROOT
ATOM      1  S   UNL d   1      59.837  49.495  50.451  0.00  0.00     0.351 S 
ATOM      2  O   UNL d   1      59.300  49.707  51.039  0.00  0.00    -0.180 OA
ATOM      3  O   UNL d   1      60.374  49.283  49.865  0.00  0.00    -0.180 OA
ENDROOT
BRANCH   1   4
ATOM      4  N   UNL d   1      60.386  49.289  51.030  0.00  0.00    -0.215 N 
ATOM      5  C   UNL d   1      60.370  49.672  51.766  0.00  0.00     0.093 C 
ATOM      6  C   UNL d   1      60.916  49.465  52.336  0.00  0.00     0.020 C 
ATOM      7  C   UNL d   1      61.541  48.970  52.158  0.00  0.00     0.003 C 
ATOM      8  C   UNL d   1      61.621  48.675  51.393  0.00  0.00     0.020 C 
ATOM      9  C   UNL d   1      61.074  48.877  50.806  0.00  0.00     0.093 C 
ENDBRANCH   1   4
BRANCH   1  10
ATOM     10  N   UNL d   1      59.336  49.682  49.825  0.00  0.00    -0.144 NA
BRANCH  10  11
ATOM     11  C   UNL d   1      58.502  49.617  49.915  0.00  0.00     0.095 A 
ATOM     12  C   UNL d   1      58.168  49.588  50.677  0.00  0.00     0.020 A 
ATOM     13  C   UNL d   1      57.346  49.536  50.766  0.00  0.00     0.002 A 
ATOM     14  C   UNL d   1      56.859  49.507  50.091  0.00  0.00     0.000 A 
ATOM     15  C   UNL d   1      57.181  49.537  49.321  0.00  0.00     0.002 A 
ATOM     16  C   UNL d   1      56.038  49.437  50.188  0.00  0.00     0.000 C 
ATOM     17  C   UNL d   1      58.014  49.596  49.237  0.00  0.00     0.020 A 
ENDBRANCH  10  11
ENDBRANCH   1  10
TORSDOF 3
ENDMDL
