MODEL 1
REMARK VINA RESULT:       0.3      0.000      0.000
REMARK  7 active torsions:
REMARK  status: ('A' for Active; 'I' for Inactive)
REMARK    1  A    between atoms: C_7  and  C_1 
REMARK    2  A    between atoms: C_11  and  N_2 
REMARK    3  A    between atoms: C_10  and  C_5 
REMARK    4  A    between atoms: C_6  and  C_7 
REMARK    5  A    between atoms: C_18  and  C_11 
REMARK    6  A    between atoms: O_20  and  C_15 
REMARK    7  A    between atoms: N_19  and  C_18 
ROOT
ATOM      1  C   UNL d   1      31.851  18.130 -24.071  0.00  0.00     0.101 A 
ATOM      2  N   UNL d   1      30.827  17.321 -24.353  0.00  0.00    -0.269 N 
ATOM      3  C   UNL d   1      31.156  18.580 -24.055  0.00  0.00     0.256 A 
ATOM      4  C   UNL d   1      30.526  18.081 -24.229  0.00  0.00     0.304 A 
ATOM      5  C   UNL d   1      31.641  17.355 -24.255  0.00  0.00     0.075 A 
ATOM      6  O   UNL d   1      29.727  18.306 -24.271  0.00  0.00    -0.263 OA
ATOM      7  O   UNL d   1      31.102  19.393 -23.892  0.00  0.00    -0.281 OA
ENDROOT
BRANCH   1   8
ATOM      8  C   UNL d   1      32.612  18.414 -23.927  0.00  0.00     0.223 C 
ATOM      9  O   UNL d   1      33.237  18.190 -24.421  0.00  0.00    -0.284 OA
BRANCH   8  10
ATOM     10  C   UNL d   1      32.759  18.921 -23.293  0.00  0.00     0.139 A 
ATOM     11  O   UNL d   1      32.839  19.743 -23.334  0.00  0.00    -0.304 OA
ATOM     12  C   UNL d   1      32.981  20.018 -22.572  0.00  0.00     0.100 A 
ATOM     13  C   UNL d   1      33.104  20.781 -22.280  0.00  0.00     0.025 A 
ATOM     14  C   UNL d   1      32.988  19.378 -22.062  0.00  0.00     0.025 A 
ATOM     15  C   UNL d   1      33.234  20.895 -21.479  0.00  0.00     0.002 A 
ATOM     16  C   UNL d   1      33.241  20.246 -20.971  0.00  0.00     0.000 A 
ATOM     17  C   UNL d   1      33.119  19.491 -21.258  0.00  0.00     0.002 A 
ATOM     18  C   UNL d   1      32.851  18.698 -22.512  0.00  0.00     0.030 A 
ENDBRANCH   8  10
ENDBRANCH   1   8
BRANCH   5  19
ATOM     19  C   UNL d   1      32.177  16.718 -24.327  0.00  0.00     0.039 A 
ATOM     20  C   UNL d   1      32.253  16.173 -23.708  0.00  0.00     0.096 A 
ATOM     21  C   UNL d   1      32.779  15.544 -23.776  0.00  0.00     0.024 A 
ATOM     22  C   UNL d   1      33.241  15.453 -24.471  0.00  0.00     0.002 A 
ATOM     23  C   UNL d   1      33.160  16.004 -25.090  0.00  0.00     0.000 A 
ATOM     24  C   UNL d   1      32.628  16.633 -25.013  0.00  0.00     0.003 A 
BRANCH  20  25
ATOM     25  O   UNL d   1      31.798  16.264 -23.026  0.00  0.00    -0.328 OA
ATOM     26  C   UNL d   1      31.791  15.665 -22.455  0.00  0.00     0.181 C 
ENDBRANCH  20  25
ENDBRANCH   5  19
BRANCH   2  27
ATOM     27  C   UNL d   1      30.380  16.648 -24.543  0.00  0.00     0.102 C 
BRANCH  27  28
ATOM     28  C   UNL d   1      29.576  16.717 -24.709  0.00  0.00     0.100 C 
BRANCH  28  29
ATOM     29  N   UNL d   1      29.050  16.119 -24.469  0.00  0.00    -0.299 N 
ATOM     30  C   UNL d   1      28.726  16.142 -23.710  0.00  0.00     0.100 C 
ATOM     31  C   UNL d   1      28.858  15.514 -24.989  0.00  0.00     0.100 C 
ENDBRANCH  28  29
ENDBRANCH  27  28
ENDBRANCH   2  27
TORSDOF 7
ENDMDL
