MODEL 1
REMARK VINA RESULT:      39.2      0.000      0.000
REMARK  6 active torsions:
REMARK  status: ('A' for Active; 'I' for Inactive)
REMARK       I    between atoms: N_2  and  C_1 
REMARK    1  A    between atoms: C_14  and  C_1 
REMARK    2  A    between atoms: C_6  and  N_2 
REMARK    3  A    between atoms: C_4  and  O_13 
REMARK    4  A    between atoms: O_13  and  C_18 
REMARK    5  A    between atoms: C_19  and  C_14 
REMARK    6  A    between atoms: C_18  and  C_19 
ROOT
ATOM      1  C   UNL d   1     -55.905 -99.655 -45.406  0.00  0.00     0.078 C 
ENDROOT
BRANCH   1   2
ATOM      2  C   UNL d   1     -56.553 -99.169 -45.555  0.00  0.00     0.328 C 
ATOM      3  N   UNL d   1     -57.157 -99.088 -44.985  0.00  0.00    -0.365 NA
ATOM      4  O   UNL d   1     -56.607 -98.760 -46.268  0.00  0.00    -0.251 OA
BRANCH   3   5
ATOM      5  C   UNL d   1     -57.751 -99.008 -44.427  0.00  0.00     0.135 A 
ATOM      6  C   UNL d   1     -58.551 -99.046 -44.668  0.00  0.00     0.033 A 
ATOM      7  C   UNL d   1     -59.145 -98.964 -44.096  0.00  0.00     0.009 A 
ATOM      8  C   UNL d   1     -58.953 -98.847 -43.302  0.00  0.00     0.035 A 
ATOM      9  C   UNL d   1     -58.164 -98.810 -43.065  0.00  0.00     0.009 A 
ATOM     10 BR   UNL d   1     -59.559 -98.768 -42.748  0.00  0.00    -0.049 Br
ATOM     11  C   UNL d   1     -57.559 -98.891 -43.633  0.00  0.00     0.033 A 
ENDBRANCH   3   5
ENDBRANCH   1   2
BRANCH   1  12
ATOM     12  C   UNL d   1     -55.232 -99.354 -45.055  0.00  0.00     0.033 C 
BRANCH  12  13
ATOM     13  C   UNL d   1     -54.724 -99.837 -44.631  0.00  0.00     0.123 C 
BRANCH  13  14
ATOM     14  O   UNL d   1     -54.717-100.646 -44.751  0.00  0.00    -0.305 OA
BRANCH  14  15
ATOM     15  C   UNL d   1     -54.813-101.162 -44.117  0.00  0.00     0.100 A 
ATOM     16  C   UNL d   1     -54.960-101.971 -44.251  0.00  0.00     0.023 A 
ATOM     17  C   UNL d   1     -55.009-102.253 -45.020  0.00  0.00     0.002 C 
ATOM     18  C   UNL d   1     -55.056-102.485 -43.613  0.00  0.00     0.002 A 
ATOM     19  C   UNL d   1     -55.007-102.202 -42.839  0.00  0.00     0.000 A 
ATOM     20  C   UNL d   1     -54.862-101.401 -42.693  0.00  0.00     0.002 A 
ATOM     21  C   UNL d   1     -54.764-100.877 -43.340  0.00  0.00     0.025 A 
ENDBRANCH  14  15
ENDBRANCH  13  14
ENDBRANCH  12  13
ENDBRANCH   1  12
TORSDOF 6
ENDMDL
