MODEL 1
REMARK VINA RESULT:      40.6      0.000      0.000
REMARK  6 active torsions:
REMARK  status: ('A' for Active; 'I' for Inactive)
REMARK    1  A    between atoms: C_3  and  N_1 
REMARK       I    between atoms: C_2  and  N_5 
REMARK       I    between atoms: N_10  and  C_2 
REMARK    2  A    between atoms: N_5  and  C_8 
REMARK    3  A    between atoms: C_17  and  N_10 
REMARK    4  A    between atoms: O_18  and  C_11 
REMARK    5  A    between atoms: C_12  and  C_22 
REMARK    6  A    between atoms: C_22  and  C_17 
ROOT
ATOM      1  C   UNL d   1     -54.924-101.824 -42.237  0.00  0.00     0.369 C 
ATOM      2  N   UNL d   1     -54.745-101.687 -43.034  0.00  0.00    -0.191 NA
ATOM      3  O   UNL d   1     -55.251-101.215 -41.782  0.00  0.00    -0.242 OA
ATOM      4  N   UNL d   1     -54.778-102.552 -41.907  0.00  0.00    -0.189 NA
ENDROOT
BRANCH   2   5
ATOM      5  C   UNL d   1     -54.892-100.948 -43.370  0.00  0.00     0.088 A 
ATOM      6  C   UNL d   1     -55.041-100.883 -44.174  0.00  0.00     0.043 A 
ATOM      7  C   UNL d   1     -55.186-100.155 -44.511  0.00  0.00     0.128 A 
ATOM      8  C   UNL d   1     -55.186 -99.474 -44.042  0.00  0.00     0.024 A 
ATOM      9  C   UNL d   1     -55.037 -99.535 -43.232  0.00  0.00     0.003 A 
ATOM     10  C   UNL d   1     -54.890-100.274 -42.895  0.00  0.00     0.019 A 
BRANCH   7  11
ATOM     11  N   UNL d   1     -55.336-100.090 -45.323  0.00  0.00    -0.114 N 
ATOM     12  O   UNL d   1     -54.790-100.372 -45.866  0.00  0.00    -0.532 OA
ATOM     13  O   UNL d   1     -56.032 -99.744 -45.580  0.00  0.00    -0.532 OA
ENDBRANCH   7  11
ENDBRANCH   2   5
BRANCH   4  14
ATOM     14  C   UNL d   1     -54.957-102.689 -41.111  0.00  0.00     0.104 C 
BRANCH  14  15
ATOM     15  C   UNL d   1     -54.742-102.137 -40.537  0.00  0.00     0.021 C 
BRANCH  15  16
ATOM     16  C   UNL d   1     -55.010-102.220 -39.768  0.00  0.00     0.002 A 
ATOM     17  C   UNL d   1     -55.576-102.788 -39.592  0.00  0.00     0.002 A 
ATOM     18  C   UNL d   1     -55.849-102.875 -38.814  0.00  0.00     0.024 A 
ATOM     19  C   UNL d   1     -55.549-102.390 -38.226  0.00  0.00     0.094 A 
ATOM     20  C   UNL d   1     -54.986-101.825 -38.401  0.00  0.00     0.024 A 
ATOM     21  C   UNL d   1     -54.713-101.737 -39.178  0.00  0.00     0.002 A 
BRANCH  19  22
ATOM     22  O   UNL d   1     -55.819-102.474 -37.452  0.00  0.00    -0.328 OA
ATOM     23  C   UNL d   1     -55.279-102.569 -36.836  0.00  0.00     0.181 C 
ENDBRANCH  19  22
ENDBRANCH  15  16
ENDBRANCH  14  15
ENDBRANCH   4  14
TORSDOF 6
ENDMDL
