MODEL 1
REMARK VINA RESULT:      -3.8      0.000      0.000
REMARK  6 active torsions:
REMARK  status: ('A' for Active; 'I' for Inactive)
REMARK    1  A    between atoms: C_14  and  N_1 
REMARK    2  A    between atoms: S_12  and  C_3 
REMARK    3  A    between atoms: C_4  and  N_11 
REMARK    4  A    between atoms: C_15  and  C_8 
REMARK       I    between atoms: N_11  and  C_13 
REMARK    5  A    between atoms: C_17  and  S_12 
REMARK    6  A    between atoms: C_13  and  C_17 
ROOT
ATOM      1  N   UNL d   1      57.418  -1.057  31.496  0.00  0.00    -0.018 NA
ATOM      2  C   UNL d   1      57.543  -0.866  30.702  0.00  0.00     0.302 C 
ATOM      3  O   UNL d   1      57.328  -0.139  30.414  0.00  0.00    -0.264 OA
ENDROOT
BRANCH   2   4
ATOM      4  C   UNL d   1      57.888  -1.419  30.202  0.00  0.00     0.101 C 
BRANCH   4   5
ATOM      5  S   UNL d   1      58.529  -1.208  29.729  0.00  0.00    -0.041 SA
BRANCH   5   6
ATOM      6  C   UNL d   1      58.921  -1.777  29.285  0.00  0.00     0.219 A 
ATOM      7  N   UNL d   1      59.661  -1.602  28.941  0.00  0.00    -0.186 N 
ATOM      8  N   UNL d   1      59.918  -2.263  28.537  0.00  0.00    -0.038 NA
ATOM      9  N   UNL d   1      59.350  -2.850  28.622  0.00  0.00    -0.022 NA
ATOM     10  N   UNL d   1      58.730  -2.552  29.085  0.00  0.00    -0.101 NA
BRANCH   7  11
ATOM     11  C   UNL d   1      60.087  -0.892  28.984  0.00  0.00     0.087 A 
ATOM     12  C   UNL d   1      60.673  -0.794  29.552  0.00  0.00     0.019 A 
ATOM     13  C   UNL d   1      61.096  -0.085  29.592  0.00  0.00     0.002 A 
ATOM     14  C   UNL d   1      60.930   0.524  29.062  0.00  0.00     0.000 A 
ATOM     15  C   UNL d   1      60.336   0.422  28.487  0.00  0.00     0.002 A 
ATOM     16  C   UNL d   1      59.918  -0.293  28.456  0.00  0.00     0.019 A 
ENDBRANCH   7  11
ENDBRANCH   5   6
ENDBRANCH   4   5
ENDBRANCH   2   4
BRANCH   1  17
ATOM     17  C   UNL d   1      57.069  -0.501  32.009  0.00  0.00     0.760 A 
ATOM     18  N   UNL d   1      56.424  -0.629  32.518  0.00  0.00    -0.051 NA
ATOM     19  C   UNL d   1      56.275   0.078  32.914  0.00  0.00     0.147 A 
ATOM     20  S   UNL d   1      56.815   0.631  32.656  0.00  0.00     0.052 SA
ATOM     21  N   UNL d   1      57.301   0.270  32.100  0.00  0.00    -0.019 NA
BRANCH  19  22
ATOM     22  C   UNL d   1      55.704   0.281  33.484  0.00  0.00     0.026 A 
ATOM     23  C   UNL d   1      55.922   0.364  34.277  0.00  0.00     0.002 A 
ATOM     24  C   UNL d   1      55.351   0.566  34.839  0.00  0.00     0.000 A 
ATOM     25  C   UNL d   1      54.582   0.681  34.614  0.00  0.00     0.000 A 
ATOM     26  C   UNL d   1      54.352   0.600  33.819  0.00  0.00     0.000 A 
ATOM     27  C   UNL d   1      54.922   0.398  33.256  0.00  0.00     0.002 A 
ENDBRANCH  19  22
ENDBRANCH   1  17
TORSDOF 6
ENDMDL
MODEL 2
REMARK VINA RESULT:      -1.6      1.498      5.828
REMARK  6 active torsions:
REMARK  status: ('A' for Active; 'I' for Inactive)
REMARK    1  A    between atoms: C_14  and  N_1 
REMARK    2  A    between atoms: S_12  and  C_3 
REMARK    3  A    between atoms: C_4  and  N_11 
REMARK    4  A    between atoms: C_15  and  C_8 
REMARK       I    between atoms: N_11  and  C_13 
REMARK    5  A    between atoms: C_17  and  S_12 
REMARK    6  A    between atoms: C_13  and  C_17 
ROOT
ATOM      1  N   UNL d   1      57.850  -0.565  30.348  0.00  0.00    -0.018 NA
ATOM      2  C   UNL d   1      58.106   0.181  30.594  0.00  0.00     0.302 C 
ATOM      3  O   UNL d   1      58.770   0.517  30.269  0.00  0.00    -0.264 OA
ENDROOT
BRANCH   2   4
ATOM      4  C   UNL d   1      57.684   0.585  31.172  0.00  0.00     0.101 C 
BRANCH   4   5
ATOM      5  S   UNL d   1      57.387   0.183  31.826  0.00  0.00    -0.041 SA
BRANCH   5   6
ATOM      6  C   UNL d   1      57.668   0.352  32.579  0.00  0.00     0.219 A 
ATOM      7  N   UNL d   1      57.167   0.265  33.241  0.00  0.00    -0.186 N 
ATOM      8  N   UNL d   1      57.590   0.469  33.909  0.00  0.00    -0.038 NA
ATOM      9  N   UNL d   1      58.348   0.682  33.675  0.00  0.00    -0.022 NA
ATOM     10  N   UNL d   1      58.399   0.610  32.851  0.00  0.00    -0.101 NA
BRANCH   7  11
ATOM     11  C   UNL d   1      56.376   0.018  33.252  0.00  0.00     0.087 A 
ATOM     12  C   UNL d   1      56.187  -0.772  33.134  0.00  0.00     0.019 A 
ATOM     13  C   UNL d   1      55.397  -1.016  33.146  0.00  0.00     0.002 A 
ATOM     14  C   UNL d   1      54.798  -0.464  33.276  0.00  0.00     0.000 A 
ATOM     15  C   UNL d   1      54.992   0.338  33.396  0.00  0.00     0.002 A 
ATOM     16  C   UNL d   1      55.788   0.570  33.382  0.00  0.00     0.019 A 
ENDBRANCH   7  11
ENDBRANCH   5   6
ENDBRANCH   4   5
ENDBRANCH   2   4
BRANCH   1  17
ATOM     17  C   UNL d   1      58.273  -0.979  29.762  0.00  0.00     0.760 A 
ATOM     18  N   UNL d   1      58.742  -1.657  29.871  0.00  0.00    -0.051 NA
ATOM     19  C   UNL d   1      59.050  -1.869  29.137  0.00  0.00     0.147 A 
ATOM     20  S   UNL d   1      58.778  -1.334  28.585  0.00  0.00     0.052 SA
ATOM     21  N   UNL d   1      58.301  -0.789  28.974  0.00  0.00    -0.019 NA
BRANCH  19  22
ATOM     22  C   UNL d   1      59.550  -2.493  28.908  0.00  0.00     0.026 A 
ATOM     23  C   UNL d   1      60.357  -2.358  28.799  0.00  0.00     0.002 A 
ATOM     24  C   UNL d   1      60.850  -2.980  28.571  0.00  0.00     0.000 A 
ATOM     25  C   UNL d   1      60.542  -3.720  28.456  0.00  0.00     0.000 A 
ATOM     26  C   UNL d   1      59.731  -3.868  28.563  0.00  0.00     0.000 A 
ATOM     27  C   UNL d   1      59.237  -3.245  28.791  0.00  0.00     0.002 A 
ENDBRANCH  19  22
ENDBRANCH   1  17
TORSDOF 6
ENDMDL
MODEL 3
REMARK VINA RESULT:      -1.1      8.512      9.118
REMARK  6 active torsions:
REMARK  status: ('A' for Active; 'I' for Inactive)
REMARK    1  A    between atoms: C_14  and  N_1 
REMARK    2  A    between atoms: S_12  and  C_3 
REMARK    3  A    between atoms: C_4  and  N_11 
REMARK    4  A    between atoms: C_15  and  C_8 
REMARK       I    between atoms: N_11  and  C_13 
REMARK    5  A    between atoms: C_17  and  S_12 
REMARK    6  A    between atoms: C_13  and  C_17 
ROOT
ATOM      1  N   UNL d   1      59.582  -9.805  32.672  0.00  0.00    -0.018 NA
ATOM      2  C   UNL d   1      59.149  -9.500  32.038  0.00  0.00     0.302 C 
ATOM      3  O   UNL d   1      58.626  -8.889  32.151  0.00  0.00    -0.264 OA
ENDROOT
BRANCH   2   4
ATOM      4  C   UNL d   1      59.250  -9.818  31.287  0.00  0.00     0.101 C 
BRANCH   4   5
ATOM      5  S   UNL d   1      59.031  -9.387  30.621  0.00  0.00    -0.041 SA
BRANCH   5   6
ATOM      6  C   UNL d   1      59.440  -9.480  29.914  0.00  0.00     0.219 A 
ATOM      7  N   UNL d   1      59.041  -9.396  29.186  0.00  0.00    -0.186 N 
ATOM      8  N   UNL d   1      59.580  -9.517  28.585  0.00  0.00    -0.038 NA
ATOM      9  N   UNL d   1      60.310  -9.675  28.925  0.00  0.00    -0.022 NA
ATOM     10  N   UNL d   1      60.227  -9.653  29.749  0.00  0.00    -0.101 NA
BRANCH   7  11
ATOM     11  C   UNL d   1      58.241  -9.221  29.062  0.00  0.00     0.087 A 
ATOM     12  C   UNL d   1      58.007  -8.457  28.871  0.00  0.00     0.019 A 
ATOM     13  C   UNL d   1      57.208  -8.286  28.748  0.00  0.00     0.002 A 
ATOM     14  C   UNL d   1      56.644  -8.882  28.815  0.00  0.00     0.000 A 
ATOM     15  C   UNL d   1      56.882  -9.658  29.009  0.00  0.00     0.002 A 
ATOM     16  C   UNL d   1      57.686  -9.818  29.131  0.00  0.00     0.019 A 
ENDBRANCH   7  11
ENDBRANCH   5   6
ENDBRANCH   4   5
ENDBRANCH   2   4
BRANCH   1  17
ATOM     17  C   UNL d   1      59.484  -9.487  33.436  0.00  0.00     0.760 A 
ATOM     18  N   UNL d   1      59.926  -8.873  33.781  0.00  0.00    -0.051 NA
ATOM     19  C   UNL d   1      59.631  -8.748  34.539  0.00  0.00     0.147 A 
ATOM     20  S   UNL d   1      59.019  -9.273  34.662  0.00  0.00     0.052 SA
ATOM     21  N   UNL d   1      58.933  -9.725  33.981  0.00  0.00    -0.019 NA
BRANCH  19  22
ATOM     22  C   UNL d   1      59.851  -8.212  35.136  0.00  0.00     0.026 A 
ATOM     23  C   UNL d   1      59.277  -7.759  35.518  0.00  0.00     0.002 A 
ATOM     24  C   UNL d   1      59.502  -7.228  36.110  0.00  0.00     0.000 A 
ATOM     25  C   UNL d   1      60.282  -7.153  36.314  0.00  0.00     0.000 A 
ATOM     26  C   UNL d   1      60.869  -7.605  35.935  0.00  0.00     0.000 A 
ATOM     27  C   UNL d   1      60.644  -8.136  35.343  0.00  0.00     0.002 A 
ENDBRANCH  19  22
ENDBRANCH   1  17
TORSDOF 6
ENDMDL
