MODEL 1
REMARK VINA RESULT:      18.4      0.000      0.000
REMARK  2 active torsions:
REMARK  status: ('A' for Active; 'I' for Inactive)
REMARK    1  A    between atoms: C_7  and  C_4 
REMARK    2  A    between atoms: O_13  and  C_11 
ROOT
ATOM      1  N   UNL d   1      46.198 -17.943  44.651  0.00  0.00    -0.211 NA
ATOM      2  C   UNL d   1      46.346 -18.725  44.400  0.00  0.00     0.140 A 
ATOM      3  C   UNL d   1      46.410 -18.891  43.597  0.00  0.00     0.051 A 
ATOM      4  C   UNL d   1      46.118 -17.342  44.087  0.00  0.00     0.183 A 
ATOM      5  C   UNL d   1      46.329 -18.289  43.040  0.00  0.00     0.104 A 
ATOM      6  O   UNL d   1      46.183 -17.514  43.284  0.00  0.00    -0.289 OA
ATOM      7  S   UNL d   1      46.427 -19.330  44.954  0.00  0.00    -0.057 SA
ATOM      8  C   UNL d   1      46.556 -19.663  43.343  0.00  0.00     0.004 A 
ATOM      9  C   UNL d   1      46.393 -18.449  42.236  0.00  0.00     0.025 A 
ATOM     10  C   UNL d   1      46.622 -19.836  42.534  0.00  0.00     0.000 A 
ATOM     11  C   UNL d   1      46.539 -19.225  41.985  0.00  0.00     0.002 A 
ENDROOT
BRANCH   4  12
ATOM     12  C   UNL d   1      45.973 -16.575  44.342  0.00  0.00     0.043 A 
ATOM     13  C   UNL d   1      45.235 -16.237  44.261  0.00  0.00     0.028 A 
ATOM     14  C   UNL d   1      45.096 -15.472  44.517  0.00  0.00     0.094 A 
ATOM     15  C   UNL d   1      45.705 -15.034  44.860  0.00  0.00     0.024 A 
ATOM     16  C   UNL d   1      46.454 -15.375  44.943  0.00  0.00     0.002 A 
ATOM     17  C   UNL d   1      46.596 -16.143  44.687  0.00  0.00     0.004 A 
BRANCH  14  18
ATOM     18  O   UNL d   1      44.349 -15.134  44.433  0.00  0.00    -0.328 OA
ATOM     19  C   UNL d   1      44.239 -14.331  44.578  0.00  0.00     0.181 C 
ENDBRANCH  14  18
ENDBRANCH   4  12
TORSDOF 2
ENDMDL
