MODEL 1
REMARK VINA RESULT:      41.2      0.000      0.000
REMARK  4 active torsions:
REMARK  status: ('A' for Active; 'I' for Inactive)
REMARK    1  A    between atoms: C_10  and  C_3 
REMARK    2  A    between atoms: C_12  and  C_6 
REMARK    3  A    between atoms: O_15  and  C_10 
REMARK    4  A    between atoms: C_22  and  O_15 
ROOT
ATOM      1  C   UNL d   1      14.060  13.231  -2.459  0.00  0.00     0.057 A 
ATOM      2  C   UNL d   1      13.901  13.790  -3.044  0.00  0.00     0.085 A 
ATOM      3  C   UNL d   1      14.663  14.242  -1.656  0.00  0.00     0.081 A 
ATOM      4  N   UNL d   1      14.117  14.573  -2.943  0.00  0.00    -0.245 NA
ATOM      5  C   UNL d   1      13.779  12.500  -2.718  0.00  0.00     0.197 A 
ATOM      6  C   UNL d   1      14.441  13.460  -1.768  0.00  0.00     0.013 A 
ATOM      7  C   UNL d   1      14.503  14.804  -2.244  0.00  0.00     0.086 A 
ATOM      8  C   UNL d   1      13.518  13.403  -3.668  0.00  0.00     0.021 A 
ATOM      9  C   UNL d   1      13.443  12.609  -3.468  0.00  0.00     0.041 A 
ATOM     10  O   UNL d   1      13.824  11.785  -2.304  0.00  0.00    -0.286 OA
ATOM     11  C   UNL d   1      14.724  15.590  -2.135  0.00  0.00     0.021 C 
ATOM     12  C   UNL d   1      13.225  13.673  -4.400  0.00  0.00     0.002 A 
ATOM     13  C   UNL d   1      13.079  12.077  -3.989  0.00  0.00     0.003 A 
ATOM     14  C   UNL d   1      12.789  12.352  -4.716  0.00  0.00     0.000 A 
ATOM     15  C   UNL d   1      12.865  13.144  -4.914  0.00  0.00     0.000 A 
ENDROOT
BRANCH   6  16
ATOM     16  C   UNL d   1      14.601  12.900  -1.184  0.00  0.00     0.020 A 
ATOM     17  C   UNL d   1      15.333  12.533  -1.165  0.00  0.00     0.099 A 
ATOM     18  N   UNL d   1      15.496  11.973  -0.582  0.00  0.00    -0.242 NA
ATOM     19  C   UNL d   1      14.921  11.781  -0.014  0.00  0.00     0.099 A 
ATOM     20  C   UNL d   1      14.180  12.155  -0.035  0.00  0.00     0.021 A 
ATOM     21  C   UNL d   1      14.020  12.714  -0.620  0.00  0.00     0.003 A 
ENDBRANCH   6  16
BRANCH   3  22
ATOM     22  C   UNL d   1      15.046  14.474  -0.963  0.00  0.00     0.302 C 
ATOM     23  O   UNL d   1      15.680  14.030  -0.679  0.00  0.00    -0.259 OA
BRANCH  22  24
ATOM     24  O   UNL d   1      14.796  15.145  -0.557  0.00  0.00    -0.271 OA
BRANCH  24  25
ATOM     25  C   UNL d   1      15.300  15.506  -0.014  0.00  0.00     0.126 C 
ATOM     26  C   UNL d   1      15.498  16.300  -0.106  0.00  0.00     0.029 C 
ENDBRANCH  24  25
ENDBRANCH  22  24
ENDBRANCH   3  22
TORSDOF 4
ENDMDL
