MODEL 1
REMARK VINA RESULT:      33.1      0.000      0.000
REMARK  7 active torsions:
REMARK  status: ('A' for Active; 'I' for Inactive)
REMARK    1  A    between atoms: C_10  and  N_1 
REMARK    2  A    between atoms: S_12  and  C_2 
REMARK    3  A    between atoms: S_3  and  N_11 
REMARK    4  A    between atoms: C_7  and  S_3 
REMARK    5  A    between atoms: N_11  and  C_15 
REMARK    6  A    between atoms: C_19  and  S_12 
REMARK    7  A    between atoms: C_15  and  C_19 
ROOT
ATOM      1  C   UNL d   1     -56.460 -98.897 -44.641  0.00  0.00     0.060 C 
ENDROOT
BRANCH   1   2
ATOM      2  C   UNL d   1     -55.893 -98.959 -45.215  0.00  0.00     0.119 C 
BRANCH   2   3
ATOM      3  N   UNL d   1     -55.136 -99.255 -45.036  0.00  0.00    -0.156 NA
BRANCH   3   4
ATOM      4  S   UNL d   1     -55.058 -99.958 -44.612  0.00  0.00     0.285 S 
ATOM      5  O   UNL d   1     -54.719 -99.533 -43.953  0.00  0.00    -0.198 OA
ATOM      6  O   UNL d   1     -55.386-100.395 -45.240  0.00  0.00    -0.198 OA
BRANCH   4   7
ATOM      7  C   UNL d   1     -54.971-100.668 -44.164  0.00  0.00     0.105 A 
ATOM      8  C   UNL d   1     -54.877-100.605 -43.357  0.00  0.00     0.013 A 
ATOM      9  C   UNL d   1     -54.792-101.282 -42.913  0.00  0.00     0.001 A 
ATOM     10  C   UNL d   1     -54.800-102.028 -43.280  0.00  0.00     0.000 A 
ATOM     11  C   UNL d   1     -54.894-102.072 -44.085  0.00  0.00     0.001 A 
ATOM     12  C   UNL d   1     -54.711-102.724 -42.818  0.00  0.00     0.000 C 
ATOM     13  C   UNL d   1     -54.979-101.414 -44.531  0.00  0.00     0.013 A 
ENDBRANCH   4   7
ENDBRANCH   3   4
ENDBRANCH   2   3
ENDBRANCH   1   2
BRANCH   1  14
ATOM     14  S   UNL d   1     -57.226 -98.760 -44.828  0.00  0.00    -0.045 SA
BRANCH  14  15
ATOM     15  C   UNL d   1     -57.812 -98.784 -44.254  0.00  0.00     0.219 A 
ATOM     16  N   UNL d   1     -58.588 -98.797 -44.476  0.00  0.00    -0.186 N 
ATOM     17  N   UNL d   1     -59.054 -98.820 -43.793  0.00  0.00    -0.038 NA
ATOM     18  N   UNL d   1     -58.542 -98.820 -43.162  0.00  0.00    -0.022 NA
ATOM     19  N   UNL d   1     -57.795 -98.798 -43.429  0.00  0.00    -0.101 NA
BRANCH  16  20
ATOM     20  C   UNL d   1     -58.862 -98.790 -45.253  0.00  0.00     0.087 A 
ATOM     21  C   UNL d   1     -58.339 -98.801 -45.885  0.00  0.00     0.019 A 
ATOM     22  C   UNL d   1     -58.621 -98.794 -46.670  0.00  0.00     0.002 A 
ATOM     23  C   UNL d   1     -59.431 -98.775 -46.820  0.00  0.00     0.000 A 
ATOM     24  C   UNL d   1     -59.955 -98.763 -46.178  0.00  0.00     0.002 A 
ATOM     25  C   UNL d   1     -59.673 -98.771 -45.396  0.00  0.00     0.019 A 
ENDBRANCH  16  20
ENDBRANCH  14  15
ENDBRANCH   1  14
TORSDOF 7
ENDMDL
