MODEL 1
REMARK VINA RESULT:      -9.5      0.000      0.000
REMARK  4 active torsions:
REMARK  status: ('A' for Active; 'I' for Inactive)
REMARK    1  A    between atoms: N_2  and  S_1 
REMARK    2  A    between atoms: C_4  and  S_1 
REMARK    3  A    between atoms: C_11  and  C_3 
REMARK    4  A    between atoms: O_17  and  C_9 
ROOT
ATOM      1  S   UNL d   1      52.405  32.269  53.157  0.00  0.00     0.273 S 
ATOM      2  O   UNL d   1      52.007  32.043  53.850  0.00  0.00    -0.200 OA
ATOM      3  O   UNL d   1      52.800  32.493  52.472  0.00  0.00    -0.200 OA
ENDROOT
BRANCH   1   4
ATOM      4  N   UNL d   1      52.891  31.610  53.222  0.00  0.00    -0.213 N 
ATOM      5  C   UNL d   1      53.621  31.579  53.601  0.00  0.00     0.157 A 
ATOM      6  N   UNL d   1      53.917  30.812  53.533  0.00  0.00    -0.224 NA
ATOM      7  C   UNL d   1      53.363  30.362  53.106  0.00  0.00     0.120 A 
ATOM      8  C   UNL d   1      52.731  30.856  52.914  0.00  0.00     0.114 A 
BRANCH   5   9
ATOM      9  C   UNL d   1      53.992  32.210  53.985  0.00  0.00     0.035 A 
ATOM     10  C   UNL d   1      54.499  32.706  53.572  0.00  0.00     0.003 A 
ATOM     11  C   UNL d   1      54.873  33.339  53.952  0.00  0.00     0.000 A 
ATOM     12  C   UNL d   1      54.730  33.471  54.765  0.00  0.00     0.000 A 
ATOM     13  C   UNL d   1      54.224  32.975  55.178  0.00  0.00     0.000 A 
ATOM     14  C   UNL d   1      53.853  32.343  54.794  0.00  0.00     0.003 A 
ENDBRANCH   5   9
ENDBRANCH   1   4
BRANCH   1  15
ATOM     15  C   UNL d   1      51.914  32.936  53.092  0.00  0.00     0.106 A 
ATOM     16  C   UNL d   1      51.912  33.385  52.393  0.00  0.00     0.039 A 
ATOM     17  C   UNL d   1      51.426  34.045  52.328  0.00  0.00     0.122 A 
ATOM     18  C   UNL d   1      50.939  34.260  52.963  0.00  0.00     0.162 A 
ATOM     19  C   UNL d   1      50.940  33.816  53.657  0.00  0.00     0.032 A 
ATOM     20  F   UNL d   1      50.452  34.920  52.898  0.00  0.00    -0.202 F 
ATOM     21  C   UNL d   1      51.427  33.157  53.718  0.00  0.00     0.015 A 
BRANCH  17  22
ATOM     22  O   UNL d   1      51.425  34.488  51.634  0.00  0.00    -0.326 OA
ATOM     23  C   UNL d   1      50.842  34.367  51.069  0.00  0.00     0.181 C 
ENDBRANCH  17  22
ENDBRANCH   1  15
TORSDOF 4
ENDMDL
MODEL 2
REMARK VINA RESULT:      -9.2      1.906      3.726
REMARK  4 active torsions:
REMARK  status: ('A' for Active; 'I' for Inactive)
REMARK    1  A    between atoms: N_2  and  S_1 
REMARK    2  A    between atoms: C_4  and  S_1 
REMARK    3  A    between atoms: C_11  and  C_3 
REMARK    4  A    between atoms: O_17  and  C_9 
ROOT
ATOM      1  S   UNL d   1      53.781  32.261  54.047  0.00  0.00     0.273 S 
ATOM      2  O   UNL d   1      54.249  32.419  53.378  0.00  0.00    -0.200 OA
ATOM      3  O   UNL d   1      53.319  32.105  54.709  0.00  0.00    -0.200 OA
ENDROOT
BRANCH   1   4
ATOM      4  N   UNL d   1      54.024  32.970  54.384  0.00  0.00    -0.213 N 
ATOM      5  C   UNL d   1      53.651  33.699  54.303  0.00  0.00     0.157 A 
ATOM      6  N   UNL d   1      54.079  34.259  54.731  0.00  0.00    -0.224 NA
ATOM      7  C   UNL d   1      54.725  33.872  55.082  0.00  0.00     0.120 A 
ATOM      8  C   UNL d   1      54.690  33.076  54.867  0.00  0.00     0.114 A 
BRANCH   5   9
ATOM      9  C   UNL d   1      52.964  33.844  53.866  0.00  0.00     0.035 A 
ATOM     10  C   UNL d   1      52.225  33.709  54.197  0.00  0.00     0.003 A 
ATOM     11  C   UNL d   1      51.535  33.852  53.764  0.00  0.00     0.000 A 
ATOM     12  C   UNL d   1      51.595  34.137  52.980  0.00  0.00     0.000 A 
ATOM     13  C   UNL d   1      52.334  34.271  52.649  0.00  0.00     0.000 A 
ATOM     14  C   UNL d   1      53.021  34.127  53.086  0.00  0.00     0.003 A 
ENDBRANCH   5   9
ENDBRANCH   1   4
BRANCH   1  15
ATOM     15  C   UNL d   1      53.536  31.543  53.707  0.00  0.00     0.106 A 
ATOM     16  C   UNL d   1      53.308  30.909  54.192  0.00  0.00     0.039 A 
ATOM     17  C   UNL d   1      53.066  30.200  53.855  0.00  0.00     0.122 A 
ATOM     18  C   UNL d   1      53.050  30.120  53.031  0.00  0.00     0.162 A 
ATOM     19  C   UNL d   1      53.276  30.748  52.548  0.00  0.00     0.032 A 
ATOM     20  F   UNL d   1      52.807  29.410  52.694  0.00  0.00    -0.202 F 
ATOM     21  C   UNL d   1      53.518  31.456  52.889  0.00  0.00     0.015 A 
BRANCH  17  22
ATOM     22  O   UNL d   1      52.839  29.572  54.338  0.00  0.00    -0.326 OA
ATOM     23  C   UNL d   1      53.410  29.089  54.679  0.00  0.00     0.181 C 
ENDBRANCH  17  22
ENDBRANCH   1  15
TORSDOF 4
ENDMDL
MODEL 3
REMARK VINA RESULT:      -8.9      1.306      2.229
REMARK  4 active torsions:
REMARK  status: ('A' for Active; 'I' for Inactive)
REMARK    1  A    between atoms: N_2  and  S_1 
REMARK    2  A    between atoms: C_4  and  S_1 
REMARK    3  A    between atoms: C_11  and  C_3 
REMARK    4  A    between atoms: O_17  and  C_9 
ROOT
ATOM      1  S   UNL d   1      53.020  33.763  53.844  0.00  0.00     0.273 S 
ATOM      2  O   UNL d   1      53.622  33.956  53.303  0.00  0.00    -0.200 OA
ATOM      3  O   UNL d   1      52.426  33.571  54.378  0.00  0.00    -0.200 OA
ENDROOT
BRANCH   1   4
ATOM      4  N   UNL d   1      53.587  33.605  54.418  0.00  0.00    -0.213 N 
ATOM      5  C   UNL d   1      53.955  32.882  54.552  0.00  0.00     0.157 A 
ATOM      6  N   UNL d   1      54.484  32.972  55.179  0.00  0.00    -0.224 NA
ATOM      7  C   UNL d   1      54.442  33.761  55.436  0.00  0.00     0.120 A 
ATOM      8  C   UNL d   1      53.888  34.151  54.966  0.00  0.00     0.114 A 
BRANCH   5   9
ATOM      9  C   UNL d   1      53.817  32.185  54.129  0.00  0.00     0.035 A 
ATOM     10  C   UNL d   1      54.237  32.027  53.441  0.00  0.00     0.003 A 
ATOM     11  C   UNL d   1      54.102  31.331  53.015  0.00  0.00     0.000 A 
ATOM     12  C   UNL d   1      53.533  30.785  53.290  0.00  0.00     0.000 A 
ATOM     13  C   UNL d   1      53.114  30.943  53.978  0.00  0.00     0.000 A 
ATOM     14  C   UNL d   1      53.252  31.640  54.401  0.00  0.00     0.003 A 
ENDBRANCH   5   9
ENDBRANCH   1   4
BRANCH   1  15
ATOM     15  C   UNL d   1      52.448  33.922  53.263  0.00  0.00     0.106 A 
ATOM     16  C   UNL d   1      51.640  33.860  53.447  0.00  0.00     0.039 A 
ATOM     17  C   UNL d   1      51.073  34.017  52.873  0.00  0.00     0.122 A 
ATOM     18  C   UNL d   1      51.311  34.238  52.111  0.00  0.00     0.162 A 
ATOM     19  C   UNL d   1      52.111  34.300  51.926  0.00  0.00     0.032 A 
ATOM     20  F   UNL d   1      50.744  34.395  51.536  0.00  0.00    -0.202 F 
ATOM     21  C   UNL d   1      52.675  34.142  52.503  0.00  0.00     0.015 A 
BRANCH  17  22
ATOM     22  O   UNL d   1      50.273  33.955  53.057  0.00  0.00    -0.326 OA
ATOM     23  C   UNL d   1      49.834  34.631  53.215  0.00  0.00     0.181 C 
ENDBRANCH  17  22
ENDBRANCH   1  15
TORSDOF 4
ENDMDL
MODEL 4
REMARK VINA RESULT:      -8.8      1.642      3.272
REMARK  4 active torsions:
REMARK  status: ('A' for Active; 'I' for Inactive)
REMARK    1  A    between atoms: N_2  and  S_1 
REMARK    2  A    between atoms: C_4  and  S_1 
REMARK    3  A    between atoms: C_11  and  C_3 
REMARK    4  A    between atoms: O_17  and  C_9 
ROOT
ATOM      1  S   UNL d   1      53.684  32.261  53.744  0.00  0.00     0.273 S 
ATOM      2  O   UNL d   1      53.325  32.090  54.473  0.00  0.00    -0.200 OA
ATOM      3  O   UNL d   1      54.040  32.430  53.023  0.00  0.00    -0.200 OA
ENDROOT
BRANCH   1   4
ATOM      4  N   UNL d   1      53.187  31.722  53.372  0.00  0.00    -0.213 N 
ATOM      5  C   UNL d   1      52.475  31.897  52.997  0.00  0.00     0.157 A 
ATOM      6  N   UNL d   1      52.159  31.195  52.701  0.00  0.00    -0.224 NA
ATOM      7  C   UNL d   1      52.682  30.578  52.895  0.00  0.00     0.120 A 
ATOM      8  C   UNL d   1      53.316  30.905  53.309  0.00  0.00     0.114 A 
BRANCH   5   9
ATOM      9  C   UNL d   1      52.137  32.648  52.930  0.00  0.00     0.035 A 
ATOM     10  C   UNL d   1      52.392  33.168  52.349  0.00  0.00     0.003 A 
ATOM     11  C   UNL d   1      52.056  33.921  52.278  0.00  0.00     0.000 A 
ATOM     12  C   UNL d   1      51.451  34.151  52.806  0.00  0.00     0.000 A 
ATOM     13  C   UNL d   1      51.196  33.631  53.387  0.00  0.00     0.000 A 
ATOM     14  C   UNL d   1      51.535  32.880  53.454  0.00  0.00     0.003 A 
ENDBRANCH   5   9
ENDBRANCH   1   4
BRANCH   1  15
ATOM     15  C   UNL d   1      54.187  32.805  54.120  0.00  0.00     0.106 A 
ATOM     16  C   UNL d   1      53.925  33.220  54.790  0.00  0.00     0.039 A 
ATOM     17  C   UNL d   1      54.423  33.758  55.162  0.00  0.00     0.122 A 
ATOM     18  C   UNL d   1      55.186  33.885  54.866  0.00  0.00     0.162 A 
ATOM     19  C   UNL d   1      55.447  33.475  54.201  0.00  0.00     0.032 A 
ATOM     20  F   UNL d   1      55.684  34.424  55.238  0.00  0.00    -0.202 F 
ATOM     21  C   UNL d   1      54.947  32.937  53.832  0.00  0.00     0.015 A 
BRANCH  17  22
ATOM     22  O   UNL d   1      54.161  34.168  55.827  0.00  0.00    -0.326 OA
ATOM     23  C   UNL d   1      53.609  34.771  55.747  0.00  0.00     0.181 C 
ENDBRANCH  17  22
ENDBRANCH   1  15
TORSDOF 4
ENDMDL
MODEL 5
REMARK VINA RESULT:      -8.5      1.801      3.342
REMARK  4 active torsions:
REMARK  status: ('A' for Active; 'I' for Inactive)
REMARK    1  A    between atoms: N_2  and  S_1 
REMARK    2  A    between atoms: C_4  and  S_1 
REMARK    3  A    between atoms: C_11  and  C_3 
REMARK    4  A    between atoms: O_17  and  C_9 
ROOT
ATOM      1  S   UNL d   1      52.557  32.222  53.128  0.00  0.00     0.273 S 
ATOM      2  O   UNL d   1      53.020  32.331  52.446  0.00  0.00    -0.200 OA
ATOM      3  O   UNL d   1      52.100  32.114  53.803  0.00  0.00    -0.200 OA
ENDROOT
BRANCH   1   4
ATOM      4  N   UNL d   1      52.406  33.029  53.154  0.00  0.00    -0.213 N 
ATOM      5  C   UNL d   1      52.859  33.597  53.542  0.00  0.00     0.157 A 
ATOM      6  N   UNL d   1      52.507  34.334  53.425  0.00  0.00    -0.224 NA
ATOM      7  C   UNL d   1      51.828  34.221  52.959  0.00  0.00     0.120 A 
ATOM      8  C   UNL d   1      51.766  33.416  52.793  0.00  0.00     0.114 A 
BRANCH   5   9
ATOM      9  C   UNL d   1      53.548  33.451  53.974  0.00  0.00     0.035 A 
ATOM     10  C   UNL d   1      54.275  33.413  53.595  0.00  0.00     0.003 A 
ATOM     11  C   UNL d   1      54.968  33.267  54.023  0.00  0.00     0.000 A 
ATOM     12  C   UNL d   1      54.923  33.157  54.850  0.00  0.00     0.000 A 
ATOM     13  C   UNL d   1      54.196  33.194  55.229  0.00  0.00     0.000 A 
ATOM     14  C   UNL d   1      53.506  33.341  54.797  0.00  0.00     0.003 A 
ENDBRANCH   5   9
ENDBRANCH   1   4
BRANCH   1  15
ATOM     15  C   UNL d   1      52.711  31.406  53.102  0.00  0.00     0.106 A 
ATOM     16  C   UNL d   1      52.545  30.930  53.762  0.00  0.00     0.039 A 
ATOM     17  C   UNL d   1      52.697  30.122  53.736  0.00  0.00     0.122 A 
ATOM     18  C   UNL d   1      53.015  29.786  53.049  0.00  0.00     0.162 A 
ATOM     19  C   UNL d   1      53.180  30.256  52.393  0.00  0.00     0.032 A 
ATOM     20  F   UNL d   1      53.167  28.977  53.023  0.00  0.00    -0.202 F 
ATOM     21  C   UNL d   1      53.027  31.064  52.423  0.00  0.00     0.015 A 
BRANCH  17  22
ATOM     22  O   UNL d   1      52.532  29.651  54.391  0.00  0.00    -0.326 OA
ATOM     23  C   UNL d   1      53.133  29.444  54.910  0.00  0.00     0.181 C 
ENDBRANCH  17  22
ENDBRANCH   1  15
TORSDOF 4
ENDMDL
