MODEL 1
REMARK VINA RESULT:      65.6      0.000      0.000
REMARK  5 active torsions:
REMARK  status: ('A' for Active; 'I' for Inactive)
REMARK    1  A    between atoms: C_3  and  C_1 
REMARK    2  A    between atoms: N_2  and  C_7 
REMARK       I    between atoms: N_4  and  C_3 
REMARK    3  A    between atoms: C_9  and  N_4 
REMARK    4  A    between atoms: O_19  and  C_6 
REMARK    5  A    between atoms: O_20  and  C_10 
ROOT
ATOM      1  C   UNL d   1     -49.636  26.880  33.908  0.00  0.00     0.281 C 
ATOM      2  N   UNL d   1     -49.455  27.078  34.688  0.00  0.00    -0.206 NA
ATOM      3  O   UNL d   1     -49.352  27.325  33.306  0.00  0.00    -0.265 OA
ENDROOT
BRANCH   1   4
ATOM      4  C   UNL d   1     -50.115  26.217  33.757  0.00  0.00     0.080 A 
ATOM      5  C   UNL d   1     -49.799  25.464  33.762  0.00  0.00     0.007 A 
ATOM      6  C   UNL d   1     -50.299  24.808  33.608  0.00  0.00     0.000 A 
ATOM      7  C   UNL d   1     -49.972  24.053  33.615  0.00  0.00     0.000 A 
ATOM      8  C   UNL d   1     -51.099  24.944  33.456  0.00  0.00     0.002 A 
ATOM      9  C   UNL d   1     -50.479  23.399  33.460  0.00  0.00     0.000 A 
ATOM     10  C   UNL d   1     -51.249  23.531  33.313  0.00  0.00     0.000 A 
ATOM     11  C   UNL d   1     -51.575  24.289  33.307  0.00  0.00     0.000 A 
ATOM     12  C   UNL d   1     -51.395  25.709  33.456  0.00  0.00     0.024 A 
ATOM     13  C   UNL d   1     -50.889  26.348  33.610  0.00  0.00     0.099 A 
BRANCH  13  14
ATOM     14  O   UNL d   1     -51.172  27.135  33.614  0.00  0.00    -0.328 OA
ATOM     15  C   UNL d   1     -51.993  27.273  33.678  0.00  0.00     0.181 C 
ENDBRANCH  13  14
ENDBRANCH   1   4
BRANCH   2  16
ATOM     16  C   UNL d   1     -48.996  27.710  34.860  0.00  0.00     0.107 A 
ATOM     17  C   UNL d   1     -48.987  27.997  35.627  0.00  0.00     0.113 A 
ATOM     18  C   UNL d   1     -48.518  28.651  35.819  0.00  0.00     0.049 A 
ATOM     19  C   UNL d   1     -48.052  29.023  35.244  0.00  0.00     0.129 A 
ATOM     20  C   UNL d   1     -48.063  28.732  34.475  0.00  0.00     0.025 A 
ATOM     21  C   UNL d   1     -48.527  28.083  34.278  0.00  0.00     0.023 A 
BRANCH  17  22
ATOM     22  O   UNL d   1     -49.455  27.629  36.220  0.00  0.00    -0.327 OA
ATOM     23  C   UNL d   1     -49.642  28.063  36.913  0.00  0.00     0.181 C 
ENDBRANCH  17  22
BRANCH  19  24
ATOM     24  N   UNL d   1     -47.588  29.678  35.460  0.00  0.00    -0.114 N 
ATOM     25  O   UNL d   1     -47.101  30.010  34.881  0.00  0.00    -0.532 OA
ATOM     26  O   UNL d   1     -47.622  29.975  36.224  0.00  0.00    -0.532 OA
ENDBRANCH  19  24
ENDBRANCH   2  16
TORSDOF 5
ENDMDL
