MODEL 1
REMARK VINA RESULT:      -1.0      0.000      0.000
REMARK  5 active torsions:
REMARK  status: ('A' for Active; 'I' for Inactive)
REMARK    1  A    between atoms: N_9  and  C_2 
REMARK    2  A    between atoms: N_8  and  C_3 
REMARK    3  A    between atoms: N_10  and  C_6 
REMARK    4  A    between atoms: C_7  and  C_11 
REMARK    5  A    between atoms: C_13  and  N_10 
ROOT
ATOM      1  N   UNL d   1      32.534  17.912 -23.739  0.00  0.00     0.133 NA
ATOM      2  C   UNL d   1      32.121  18.631 -23.732  0.00  0.00     0.765 A 
ATOM      3  C   UNL d   1      32.212  17.255 -24.119  0.00  0.00     0.765 A 
ATOM      4  N   UNL d   1      31.385  18.688 -24.107  0.00  0.00     0.134 NA
ATOM      5  N   UNL d   1      31.476  17.311 -24.493  0.00  0.00     0.134 NA
ATOM      6  C   UNL d   1      31.063  18.025 -24.488  0.00  0.00     0.780 A 
ENDROOT
BRANCH   6   7
ATOM      7  N   UNL d   1      30.331  18.087 -24.859  0.00  0.00    -0.058 NA
BRANCH   7   8
ATOM      8  C   UNL d   1      29.725  17.563 -24.667  0.00  0.00     0.100 A 
ATOM      9  C   UNL d   1      29.205  17.751 -24.046  0.00  0.00     0.024 A 
ATOM     10  C   UNL d   1      28.595  17.226 -23.851  0.00  0.00     0.073 A 
ATOM     11  C   UNL d   1      28.509  16.520 -24.276  0.00  0.00     0.004 A 
ATOM     12  C   UNL d   1      29.031  16.343 -24.890  0.00  0.00     0.002 A 
ATOM     13  C   UNL d   1      29.636  16.859 -25.087  0.00  0.00     0.020 A 
BRANCH  10  14
ATOM     14  C   UNL d   1      28.081  17.405 -23.242  0.00  0.00     0.419 C 
ATOM     15  F   UNL d   1      27.963  16.862 -22.635  0.00  0.00    -0.166 F 
ATOM     16  F   UNL d   1      27.687  18.120 -23.235  0.00  0.00    -0.166 F 
ATOM     17  F   UNL d   1      28.368  16.653 -23.062  0.00  0.00    -0.166 F 
ENDBRANCH  10  14
ENDBRANCH   7   8
ENDBRANCH   6   7
BRANCH   3  18
ATOM     18  N   UNL d   1      32.625  16.535 -24.126  0.00  0.00    -0.137 N 
ATOM     19  C   UNL d   1      32.823  16.188 -24.851  0.00  0.00     0.098 A 
ATOM     20  C   UNL d   1      33.235  15.473 -24.850  0.00  0.00     0.021 A 
ATOM     21  C   UNL d   1      33.241  15.468 -23.430  0.00  0.00     0.021 A 
ATOM     22  C   UNL d   1      32.832  16.179 -23.413  0.00  0.00     0.098 A 
ENDBRANCH   3  18
BRANCH   2  23
ATOM     23  N   UNL d   1      32.443  19.294 -23.351  0.00  0.00    -0.137 N 
ATOM     24  C   UNL d   1      32.350  19.377 -22.541  0.00  0.00     0.098 A 
ATOM     25  C   UNL d   1      32.668  20.030 -22.169  0.00  0.00     0.021 A 
ATOM     26  C   UNL d   1      33.169  20.512 -23.409  0.00  0.00     0.021 A 
ATOM     27  C   UNL d   1      32.851  19.856 -23.795  0.00  0.00     0.098 A 
ENDBRANCH   2  23
TORSDOF 5
ENDMDL
MODEL 2
REMARK VINA RESULT:       0.6      2.023      4.353
REMARK  5 active torsions:
REMARK  status: ('A' for Active; 'I' for Inactive)
REMARK    1  A    between atoms: N_9  and  C_2 
REMARK    2  A    between atoms: N_8  and  C_3 
REMARK    3  A    between atoms: N_10  and  C_6 
REMARK    4  A    between atoms: C_7  and  C_11 
REMARK    5  A    between atoms: C_13  and  N_10 
ROOT
ATOM      1  N   UNL d   1      31.186  17.258 -24.086  0.00  0.00     0.133 NA
ATOM      2  C   UNL d   1      32.004  17.249 -23.945  0.00  0.00     0.765 A 
ATOM      3  C   UNL d   1      30.772  17.972 -24.068  0.00  0.00     0.765 A 
ATOM      4  N   UNL d   1      32.403  17.955 -23.787  0.00  0.00     0.134 NA
ATOM      5  N   UNL d   1      31.172  18.678 -23.910  0.00  0.00     0.134 NA
ATOM      6  C   UNL d   1      31.985  18.672 -23.770  0.00  0.00     0.780 A 
ENDROOT
BRANCH   6   7
ATOM      7  N   UNL d   1      32.386  19.373 -23.612  0.00  0.00    -0.058 NA
BRANCH   7   8
ATOM      8  C   UNL d   1      32.594  19.565 -22.838  0.00  0.00     0.100 A 
ATOM      9  C   UNL d   1      32.352  20.295 -22.521  0.00  0.00     0.024 A 
ATOM     10  C   UNL d   1      32.559  20.490 -21.744  0.00  0.00     0.073 A 
ATOM     11  C   UNL d   1      33.004  19.959 -21.291  0.00  0.00     0.004 A 
ATOM     12  C   UNL d   1      33.239  19.237 -21.615  0.00  0.00     0.002 A 
ATOM     13  C   UNL d   1      33.037  19.039 -22.384  0.00  0.00     0.020 A 
BRANCH  10  14
ATOM     14  C   UNL d   1      32.325  21.206 -21.427  0.00  0.00     0.419 C 
ATOM     15  F   UNL d   1      31.654  21.241 -20.952  0.00  0.00    -0.166 F 
ATOM     16  F   UNL d   1      32.754  21.883 -21.580  0.00  0.00    -0.166 F 
ATOM     17  F   UNL d   1      31.767  20.662 -21.155  0.00  0.00    -0.166 F 
ENDBRANCH  10  14
ENDBRANCH   7   8
ENDBRANCH   6   7
BRANCH   3  18
ATOM     18  N   UNL d   1      29.955  17.980 -24.209  0.00  0.00    -0.137 N 
ATOM     19  C   UNL d   1      29.675  18.196 -24.957  0.00  0.00     0.098 A 
ATOM     20  C   UNL d   1      28.860  18.203 -25.090  0.00  0.00     0.021 A 
ATOM     21  C   UNL d   1      28.630  17.787 -23.752  0.00  0.00     0.021 A 
ATOM     22  C   UNL d   1      29.436  17.775 -23.603  0.00  0.00     0.098 A 
ENDBRANCH   3  18
BRANCH   2  23
ATOM     23  N   UNL d   1      32.421  16.532 -23.963  0.00  0.00    -0.137 N 
ATOM     24  C   UNL d   1      32.556  16.162 -24.682  0.00  0.00     0.098 A 
ATOM     25  C   UNL d   1      32.967  15.457 -24.697  0.00  0.00     0.021 A 
ATOM     26  C   UNL d   1      33.108  15.493 -23.282  0.00  0.00     0.021 A 
ATOM     27  C   UNL d   1      32.693  16.206 -23.257  0.00  0.00     0.098 A 
ENDBRANCH   2  23
TORSDOF 5
ENDMDL
