MODEL 1
REMARK VINA RESULT:      71.4      0.000      0.000
REMARK  6 active torsions:
REMARK  status: ('A' for Active; 'I' for Inactive)
REMARK       I    between atoms: C_8  and  N_1 
REMARK    1  A    between atoms: C_10  and  C_3 
REMARK    2  A    between atoms: C_4  and  S_14 
REMARK    3  A    between atoms: C_15  and  C_6 
REMARK    4  A    between atoms: C_16  and  C_8 
REMARK    5  A    between atoms: S_14  and  C_16 
REMARK    6  A    between atoms: O_26  and  C_23 
ROOT
ATOM      1  N   UNL d   1      14.565  15.933  -3.563  0.00  0.00    -0.195 N 
ATOM      2  N   UNL d   1      14.885  16.384  -2.978  0.00  0.00    -0.162 NA
ATOM      3  C   UNL d   1      14.792  15.981  -2.257  0.00  0.00     0.109 A 
ATOM      4  C   UNL d   1      14.265  15.238  -3.219  0.00  0.00     0.088 A 
ATOM      5  C   UNL d   1      14.414  15.289  -2.424  0.00  0.00     0.041 A 
ATOM      6  C   UNL d   1      14.493  16.035  -4.363  0.00  0.00     0.275 C 
ATOM      7  O   UNL d   1      14.125  15.458  -4.840  0.00  0.00    -0.266 OA
ENDROOT
BRANCH   4   8
ATOM      8  C   UNL d   1      13.891  14.612  -3.576  0.00  0.00     0.018 A 
ATOM      9  C   UNL d   1      13.149  14.714  -3.917  0.00  0.00     0.004 A 
ATOM     10  C   UNL d   1      12.771  14.067  -4.283  0.00  0.00     0.024 A 
ATOM     11  C   UNL d   1      13.135  13.333  -4.302  0.00  0.00     0.094 A 
ATOM     12  C   UNL d   1      13.878  13.234  -3.960  0.00  0.00     0.024 A 
ATOM     13  C   UNL d   1      14.262  13.873  -3.593  0.00  0.00     0.004 A 
BRANCH  11  14
ATOM     14  O   UNL d   1      12.771  12.677  -4.663  0.00  0.00    -0.328 OA
ATOM     15  C   UNL d   1      13.207  12.004  -4.858  0.00  0.00     0.181 C 
ENDBRANCH  11  14
ENDBRANCH   4   8
BRANCH   6  16
ATOM     16  C   UNL d   1      14.790  16.729  -4.724  0.00  0.00     0.128 C 
BRANCH  16  17
ATOM     17  S   UNL d   1      14.514  16.963  -5.471  0.00  0.00    -0.069 SA
BRANCH  17  18
ATOM     18  C   UNL d   1      14.394  17.769  -5.643  0.00  0.00     0.140 A 
ATOM     19  N   UNL d   1      14.920  18.369  -5.455  0.00  0.00    -0.232 NA
ATOM     20  C   UNL d   1      14.594  19.078  -5.720  0.00  0.00     0.088 A 
ATOM     21  C   UNL d   1      14.873  19.859  -5.684  0.00  0.00     0.020 A 
ATOM     22  C   UNL d   1      13.873  18.917  -6.069  0.00  0.00     0.049 A 
ATOM     23  C   UNL d   1      14.422  20.474  -6.000  0.00  0.00     0.002 A 
ATOM     24  C   UNL d   1      13.687  20.300  -6.354  0.00  0.00     0.001 A 
ATOM     25  C   UNL d   1      13.420  19.522  -6.385  0.00  0.00     0.008 A 
ATOM     26  S   UNL d   1      13.741  18.099  -6.024  0.00  0.00    -0.060 SA
ENDBRANCH  17  18
ENDBRANCH  16  17
ENDBRANCH   6  16
BRANCH   3  27
ATOM     27  C   UNL d   1      15.050  16.264  -1.525  0.00  0.00     0.049 A 
ATOM     28  S   UNL d   1      15.223  16.996  -1.214  0.00  0.00    -0.085 SA
ATOM     29  C   UNL d   1      15.455  16.885  -0.432  0.00  0.00     0.035 A 
ATOM     30  C   UNL d   1      15.427  16.095  -0.256  0.00  0.00     0.007 A 
ATOM     31  C   UNL d   1      15.173  15.693  -0.937  0.00  0.00     0.009 A 
ENDBRANCH   3  27
TORSDOF 6
ENDMDL
