MODEL 1
REMARK VINA RESULT:      -5.1      0.000      0.000
REMARK  3 active torsions:
REMARK  status: ('A' for Active; 'I' for Inactive)
REMARK    1  A    between atoms: C_15  and  N_5 
REMARK    2  A    between atoms: C_21  and  C_15 
REMARK    3  A    between atoms: O_20  and  C_21 
ROOT
ATOM      1  C   UNL d   1      57.865  -0.471  30.763  0.00  0.00     0.137 A 
ATOM      2  C   UNL d   1      58.103   0.294  30.960  0.00  0.00     0.192 A 
ATOM      3  C   UNL d   1      58.186  -0.853  30.118  0.00  0.00     0.272 A 
ATOM      4  N   UNL d   1      58.671   0.680  30.503  0.00  0.00    -0.204 NA
ATOM      5  N   UNL d   1      58.763  -0.464  29.652  0.00  0.00    -0.256 N 
ATOM      6  C   UNL d   1      57.296  -0.858  31.220  0.00  0.00     0.205 A 
ATOM      7  C   UNL d   1      58.996   0.293  29.851  0.00  0.00     0.152 A 
ATOM      8  C   UNL d   1      56.966  -0.478  31.874  0.00  0.00     0.062 A 
ATOM      9  O   UNL d   1      57.768   0.666  31.616  0.00  0.00    -0.289 OA
ATOM     10  C   UNL d   1      57.204   0.287  32.071  0.00  0.00     0.105 A 
ATOM     11  O   UNL d   1      57.948  -1.619  29.922  0.00  0.00    -0.266 OA
ATOM     12  O   UNL d   1      57.054  -1.619  31.031  0.00  0.00    -0.286 OA
ATOM     13  C   UNL d   1      56.400  -0.867  32.327  0.00  0.00     0.012 A 
ATOM     14  C   UNL d   1      56.876   0.664  32.721  0.00  0.00     0.025 A 
ATOM     15  C   UNL d   1      56.067  -0.486  32.985  0.00  0.00     0.035 A 
ATOM     16  C   UNL d   1      59.562   0.675  29.394  0.00  0.00     0.041 C 
ATOM     17  C   UNL d   1      56.308   0.278  33.178  0.00  0.00     0.009 A 
ATOM     18 BR   UNL d   1      55.491  -0.875  33.451  0.00  0.00    -0.049 Br
ENDROOT
BRANCH   5  19
ATOM     19  C   UNL d   1      59.095  -0.845  28.995  0.00  0.00     0.111 C 
BRANCH  19  20
ATOM     20  C   UNL d   1      59.807  -1.255  29.072  0.00  0.00     0.135 C 
BRANCH  20  21
ATOM     21  O   UNL d   1      60.076  -1.735  28.457  0.00  0.00    -0.325 OA
ATOM     22  C   UNL d   1      60.797  -2.129  28.526  0.00  0.00     0.182 C 
ENDBRANCH  20  21
ENDBRANCH  19  20
ENDBRANCH   5  19
TORSDOF 3
ENDMDL
MODEL 2
REMARK VINA RESULT:      -3.9      2.024      4.302
REMARK  3 active torsions:
REMARK  status: ('A' for Active; 'I' for Inactive)
REMARK    1  A    between atoms: C_15  and  N_5 
REMARK    2  A    between atoms: C_21  and  C_15 
REMARK    3  A    between atoms: O_20  and  C_21 
ROOT
ATOM      1  C   UNL d   1      57.491  -0.040  31.731  0.00  0.00     0.137 A 
ATOM      2  C   UNL d   1      58.074   0.437  32.067  0.00  0.00     0.192 A 
ATOM      3  C   UNL d   1      56.844  -0.276  32.168  0.00  0.00     0.272 A 
ATOM      4  N   UNL d   1      58.006   0.680  32.852  0.00  0.00    -0.204 NA
ATOM      5  N   UNL d   1      56.772  -0.031  32.966  0.00  0.00    -0.256 N 
ATOM      6  C   UNL d   1      57.559  -0.284  30.945  0.00  0.00     0.205 A 
ATOM      7  C   UNL d   1      57.352   0.441  33.294  0.00  0.00     0.152 A 
ATOM      8  C   UNL d   1      58.210  -0.050  30.496  0.00  0.00     0.062 A 
ATOM      9  O   UNL d   1      58.722   0.666  31.611  0.00  0.00    -0.289 OA
ATOM     10  C   UNL d   1      58.793   0.427  30.833  0.00  0.00     0.105 A 
ATOM     11  O   UNL d   1      56.261  -0.753  31.831  0.00  0.00    -0.266 OA
ATOM     12  O   UNL d   1      56.983  -0.758  30.603  0.00  0.00    -0.286 OA
ATOM     13  C   UNL d   1      58.273  -0.295  29.713  0.00  0.00     0.012 A 
ATOM     14  C   UNL d   1      59.440   0.660  30.386  0.00  0.00     0.025 A 
ATOM     15  C   UNL d   1      58.928  -0.059  29.261  0.00  0.00     0.035 A 
ATOM     16  C   UNL d   1      57.282   0.682  34.077  0.00  0.00     0.041 C 
ATOM     17  C   UNL d   1      59.508   0.417  29.600  0.00  0.00     0.009 A 
ATOM     18 BR   UNL d   1      59.000  -0.305  28.463  0.00  0.00    -0.049 Br
ENDROOT
BRANCH   5  19
ATOM     19  C   UNL d   1      56.118  -0.266  33.417  0.00  0.00     0.111 C 
BRANCH  19  20
ATOM     20  C   UNL d   1      55.512   0.271  33.576  0.00  0.00     0.135 C 
BRANCH  20  21
ATOM     21  O   UNL d   1      54.814   0.012  33.931  0.00  0.00    -0.325 OA
ATOM     22  C   UNL d   1      54.269   0.562  34.219  0.00  0.00     0.182 C 
ENDBRANCH  20  21
ENDBRANCH  19  20
ENDBRANCH   5  19
TORSDOF 3
ENDMDL
MODEL 3
REMARK VINA RESULT:      -3.7      1.341      1.743
REMARK  3 active torsions:
REMARK  status: ('A' for Active; 'I' for Inactive)
REMARK    1  A    between atoms: C_15  and  N_5 
REMARK    2  A    between atoms: C_21  and  C_15 
REMARK    3  A    between atoms: O_20  and  C_21 
ROOT
ATOM      1  C   UNL d   1      57.455   0.645  31.792  0.00  0.00     0.137 A 
ATOM      2  C   UNL d   1      58.047   0.669  32.367  0.00  0.00     0.192 A 
ATOM      3  C   UNL d   1      57.647   0.633  30.999  0.00  0.00     0.272 A 
ATOM      4  N   UNL d   1      58.840   0.681  32.143  0.00  0.00    -0.204 NA
ATOM      5  N   UNL d   1      58.452   0.645  30.768  0.00  0.00    -0.256 N 
ATOM      6  C   UNL d   1      56.661   0.633  32.016  0.00  0.00     0.205 A 
ATOM      7  C   UNL d   1      59.034   0.668  31.341  0.00  0.00     0.152 A 
ATOM      8  C   UNL d   1      56.458   0.645  32.815  0.00  0.00     0.062 A 
ATOM      9  O   UNL d   1      57.835   0.681  33.164  0.00  0.00    -0.289 OA
ATOM     10  C   UNL d   1      57.049   0.669  33.390  0.00  0.00     0.105 A 
ATOM     11  O   UNL d   1      57.056   0.609  30.424  0.00  0.00    -0.266 OA
ATOM     12  O   UNL d   1      56.067   0.609  31.450  0.00  0.00    -0.286 OA
ATOM     13  C   UNL d   1      55.665   0.633  33.034  0.00  0.00     0.012 A 
ATOM     14  C   UNL d   1      56.848   0.681  34.185  0.00  0.00     0.025 A 
ATOM     15  C   UNL d   1      55.461   0.645  33.839  0.00  0.00     0.035 A 
ATOM     16  C   UNL d   1      59.824   0.680  31.116  0.00  0.00     0.041 C 
ATOM     17  C   UNL d   1      56.053   0.669  34.410  0.00  0.00     0.009 A 
ATOM     18 BR   UNL d   1      54.655   0.633  34.069  0.00  0.00    -0.049 Br
ENDROOT
BRANCH   5  19
ATOM     19  C   UNL d   1      58.656   0.633  29.965  0.00  0.00     0.111 C 
BRANCH  19  20
ATOM     20  C   UNL d   1      58.975  -0.051  29.630  0.00  0.00     0.135 C 
BRANCH  20  21
ATOM     21  O   UNL d   1      59.147  -0.074  28.824  0.00  0.00    -0.325 OA
ATOM     22  C   UNL d   1      59.404  -0.778  28.477  0.00  0.00     0.182 C 
ENDBRANCH  20  21
ENDBRANCH  19  20
ENDBRANCH   5  19
TORSDOF 3
ENDMDL
MODEL 4
REMARK VINA RESULT:      -3.6      1.994      4.518
REMARK  3 active torsions:
REMARK  status: ('A' for Active; 'I' for Inactive)
REMARK    1  A    between atoms: C_15  and  N_5 
REMARK    2  A    between atoms: C_21  and  C_15 
REMARK    3  A    between atoms: O_20  and  C_21 
ROOT
ATOM      1  C   UNL d   1      57.320  -0.442  31.595  0.00  0.00     0.137 A 
ATOM      2  C   UNL d   1      57.037  -1.190  31.392  0.00  0.00     0.192 A 
ATOM      3  C   UNL d   1      57.060  -0.070  32.274  0.00  0.00     0.272 A 
ATOM      4  N   UNL d   1      56.487  -1.569  31.876  0.00  0.00    -0.204 NA
ATOM      5  N   UNL d   1      56.502  -0.453  32.768  0.00  0.00    -0.256 N 
ATOM      6  C   UNL d   1      57.870  -0.062  31.111  0.00  0.00     0.205 A 
ATOM      7  C   UNL d   1      56.225  -1.193  32.562  0.00  0.00     0.152 A 
ATOM      8  C   UNL d   1      58.137  -0.431  30.423  0.00  0.00     0.062 A 
ATOM      9  O   UNL d   1      57.309  -1.552  30.702  0.00  0.00    -0.289 OA
ATOM     10  C   UNL d   1      57.854  -1.179  30.220  0.00  0.00     0.105 A 
ATOM     11  O   UNL d   1      57.343   0.678  32.477  0.00  0.00    -0.266 OA
ATOM     12  O   UNL d   1      58.155   0.682  31.307  0.00  0.00    -0.286 OA
ATOM     13  C   UNL d   1      58.685  -0.049  29.943  0.00  0.00     0.012 A 
ATOM     14  C   UNL d   1      58.120  -1.545  29.536  0.00  0.00     0.025 A 
ATOM     15  C   UNL d   1      58.954  -0.420  29.251  0.00  0.00     0.035 A 
ATOM     16  C   UNL d   1      55.678  -1.569  33.046  0.00  0.00     0.041 C 
ATOM     17  C   UNL d   1      58.670  -1.166  29.051  0.00  0.00     0.009 A 
ATOM     18 BR   UNL d   1      59.512  -0.037  28.758  0.00  0.00    -0.049 Br
ENDROOT
BRANCH   5  19
ATOM     19  C   UNL d   1      56.233  -0.082  33.459  0.00  0.00     0.111 C 
BRANCH  19  20
ATOM     20  C   UNL d   1      55.527   0.344  33.450  0.00  0.00     0.135 C 
BRANCH  20  21
ATOM     21  O   UNL d   1      55.241   0.682  34.146  0.00  0.00    -0.325 OA
ATOM     22  C   UNL d   1      54.516   0.438  34.455  0.00  0.00     0.182 C 
ENDBRANCH  20  21
ENDBRANCH  19  20
ENDBRANCH   5  19
TORSDOF 3
ENDMDL
MODEL 5
REMARK VINA RESULT:      -3.0      9.389      9.931
REMARK  3 active torsions:
REMARK  status: ('A' for Active; 'I' for Inactive)
REMARK    1  A    between atoms: C_15  and  N_5 
REMARK    2  A    between atoms: C_21  and  C_15 
REMARK    3  A    between atoms: O_20  and  C_21 
ROOT
ATOM      1  C   UNL d   1      58.774  -9.818  31.853  0.00  0.00     0.137 A 
ATOM      2  C   UNL d   1      59.429  -9.818  31.350  0.00  0.00     0.192 A 
ATOM      3  C   UNL d   1      58.873  -9.818  32.663  0.00  0.00     0.272 A 
ATOM      4  N   UNL d   1      60.191  -9.818  31.664  0.00  0.00    -0.204 NA
ATOM      5  N   UNL d   1      59.647  -9.818  32.986  0.00  0.00    -0.256 N 
ATOM      6  C   UNL d   1      58.011  -9.818  31.539  0.00  0.00     0.205 A 
ATOM      7  C   UNL d   1      60.291  -9.818  32.483  0.00  0.00     0.152 A 
ATOM      8  C   UNL d   1      57.902  -9.818  30.721  0.00  0.00     0.062 A 
ATOM      9  O   UNL d   1      59.311  -9.818  30.534  0.00  0.00    -0.289 OA
ATOM     10  C   UNL d   1      58.556  -9.818  30.219  0.00  0.00     0.105 A 
ATOM     11  O   UNL d   1      58.219  -9.818  33.166  0.00  0.00    -0.266 OA
ATOM     12  O   UNL d   1      57.356  -9.818  32.033  0.00  0.00    -0.286 OA
ATOM     13  C   UNL d   1      57.140  -9.818  30.413  0.00  0.00     0.012 A 
ATOM     14  C   UNL d   1      58.448  -9.818  29.406  0.00  0.00     0.025 A 
ATOM     15  C   UNL d   1      57.030  -9.818  29.590  0.00  0.00     0.035 A 
ATOM     16  C   UNL d   1      61.049  -9.818  32.799  0.00  0.00     0.041 C 
ATOM     17  C   UNL d   1      57.685  -9.818  29.091  0.00  0.00     0.009 A 
ATOM     18 BR   UNL d   1      56.257  -9.818  29.268  0.00  0.00    -0.049 Br
ENDROOT
BRANCH   5  19
ATOM     19  C   UNL d   1      59.756  -9.818  33.808  0.00  0.00     0.111 C 
BRANCH  19  20
ATOM     20  C   UNL d   1      59.811  -9.103  34.216  0.00  0.00     0.135 C 
BRANCH  20  21
ATOM     21  O   UNL d   1      59.956  -9.102  35.028  0.00  0.00    -0.325 OA
ATOM     22  C   UNL d   1      59.860  -8.408  35.463  0.00  0.00     0.182 C 
ENDBRANCH  20  21
ENDBRANCH  19  20
ENDBRANCH   5  19
TORSDOF 3
ENDMDL
