MODEL 1
REMARK VINA RESULT:      17.1      0.000      0.000
REMARK  5 active torsions:
REMARK  status: ('A' for Active; 'I' for Inactive)
REMARK    1  A    between atoms: C_5  and  C_1 
REMARK    2  A    between atoms: C_9  and  N_2 
REMARK    3  A    between atoms: N_8  and  C_5 
REMARK    4  A    between atoms: N_6  and  C_10 
REMARK    5  A    between atoms: C_18  and  N_8 
ROOT
ATOM      1  C   UNL d   1      45.621 -15.311  44.417  0.00  0.00     0.067 A 
ATOM      2  N   UNL d   1      46.093 -16.543  44.036  0.00  0.00    -0.230 N 
ATOM      3  C   UNL d   1      45.498 -16.148  44.504  0.00  0.00     0.087 A 
ATOM      4  N   UNL d   1      46.579 -15.949  43.665  0.00  0.00    -0.164 NA
ATOM      5  C   UNL d   1      46.286 -15.189  43.902  0.00  0.00     0.124 A 
ATOM      6  C   UNL d   1      44.918 -16.512  44.951  0.00  0.00     0.021 C 
ENDROOT
BRANCH   1   7
ATOM      7  C   UNL d   1      45.170 -14.720  44.775  0.00  0.00     0.139 C 
ATOM      8  S   UNL d   1      44.387 -14.858  44.955  0.00  0.00    -0.057 SA
BRANCH   7   9
ATOM      9  N   UNL d   1      45.509 -13.999  44.947  0.00  0.00    -0.235 NA
BRANCH   9  10
ATOM     10  C   UNL d   1      45.393 -13.370  44.447  0.00  0.00     0.082 A 
ATOM     11  C   UNL d   1      45.912 -12.737  44.451  0.00  0.00     0.019 A 
ATOM     12  C   UNL d   1      45.793 -12.118  43.954  0.00  0.00     0.002 A 
ATOM     13  C   UNL d   1      45.149 -12.112  43.438  0.00  0.00     0.000 A 
ATOM     14  C   UNL d   1      44.632 -12.736  43.431  0.00  0.00     0.002 A 
ATOM     15  C   UNL d   1      44.751 -13.370  43.936  0.00  0.00     0.019 A 
ENDBRANCH   9  10
ENDBRANCH   7   9
ENDBRANCH   1   7
BRANCH   2  16
ATOM     16  C   UNL d   1      46.189 -17.358  43.952  0.00  0.00     0.083 A 
ATOM     17  C   UNL d   1      46.280 -17.827  44.631  0.00  0.00     0.021 A 
ATOM     18  C   UNL d   1      46.377 -18.644  44.556  0.00  0.00     0.025 A 
ATOM     19  C   UNL d   1      46.383 -18.992  43.802  0.00  0.00     0.127 A 
ATOM     20  C   UNL d   1      46.292 -18.522  43.123  0.00  0.00     0.025 A 
ATOM     21  C   UNL d   1      46.196 -17.706  43.207  0.00  0.00     0.021 A 
BRANCH  19  22
ATOM     22  N   UNL d   1      46.480 -19.809  43.727  0.00  0.00    -0.114 N 
ATOM     23  O   UNL d   1      46.422 -20.298  44.387  0.00  0.00    -0.532 OA
ATOM     24  O   UNL d   1      46.637 -20.144  42.986  0.00  0.00    -0.532 OA
ENDBRANCH  19  22
ENDBRANCH   2  16
TORSDOF 5
ENDMDL
