MODEL 1
REMARK VINA RESULT:      -7.2      0.000      0.000
REMARK  12 active torsions:
REMARK  status: ('A' for Active; 'I' for Inactive)
REMARK    1  A    between atoms: C_23  and  N_1 
REMARK    2  A    between atoms: S_8  and  C_2 
REMARK    3  A    between atoms: C_7  and  C_11 
REMARK       I    between atoms: N_12  and  C_7 
REMARK    4  A    between atoms: C_24  and  S_8 
REMARK    5  A    between atoms: C_25  and  N_12 
REMARK    6  A    between atoms: C_13  and  C_25 
REMARK    7  A    between atoms: C_15  and  C_24 
REMARK    8  A    between atoms: O_26  and  C_15 
REMARK    9  A    between atoms: C_28  and  C_23 
REMARK   10  A    between atoms: C_27  and  O_26 
REMARK   11  A    between atoms: C_30  and  C_28 
REMARK   12  A    between atoms: C_29  and  C_30 
ROOT
ATOM      1  N   UNL d   1      53.006  33.236  53.287  0.00  0.00    -0.253 N 
ATOM      2  C   UNL d   1      52.566  32.572  53.111  0.00  0.00     0.182 A 
ATOM      3  C   UNL d   1      52.701  33.986  53.146  0.00  0.00     0.268 A 
ATOM      4  N   UNL d   1      51.816  32.660  52.792  0.00  0.00    -0.222 NA
ATOM      5  C   UNL d   1      51.955  34.076  52.828  0.00  0.00     0.074 A 
ATOM      6  C   UNL d   1      51.501  33.405  52.646  0.00  0.00     0.088 A 
ATOM      7  C   UNL d   1      50.742  33.489  52.323  0.00  0.00     0.024 A 
ATOM      8  C   UNL d   1      51.639  34.825  52.682  0.00  0.00     0.006 A 
ATOM      9  C   UNL d   1      50.436  34.243  52.181  0.00  0.00     0.059 A 
ATOM     10  O   UNL d   1      53.155  34.657  53.327  0.00  0.00    -0.267 OA
ATOM     11  C   UNL d   1      50.889  34.913  52.362  0.00  0.00     0.005 A 
ENDROOT
BRANCH   9  12
ATOM     12  C   UNL d   1      49.675  34.330  51.857  0.00  0.00     0.279 C 
ATOM     13  N   UNL d   1      49.123  34.766  52.261  0.00  0.00    -0.204 NA
ATOM     14  O   UNL d   1      49.505  33.971  51.137  0.00  0.00    -0.265 OA
BRANCH  13  15
ATOM     15  C   UNL d   1      49.311  35.118  52.980  0.00  0.00     0.127 C 
BRANCH  15  16
ATOM     16  C   UNL d   1      48.774  35.628  53.343  0.00  0.00     0.119 A 
ATOM     17  O   UNL d   1      48.840  36.152  53.958  0.00  0.00    -0.304 OA
ATOM     18  C   UNL d   1      48.118  36.520  54.088  0.00  0.00     0.123 A 
ATOM     19  C   UNL d   1      47.595  36.203  53.526  0.00  0.00     0.029 A 
ATOM     20  C   UNL d   1      47.989  35.661  53.070  0.00  0.00     0.028 A 
ENDBRANCH  15  16
ENDBRANCH  13  15
ENDBRANCH   9  12
BRANCH   2  21
ATOM     21  S   UNL d   1      52.871  31.818  53.253  0.00  0.00    -0.044 SA
BRANCH  21  22
ATOM     22  C   UNL d   1      52.421  31.152  53.093  0.00  0.00     0.107 C 
BRANCH  22  23
ATOM     23  C   UNL d   1      52.767  30.404  53.147  0.00  0.00     0.307 C 
ATOM     24  O   UNL d   1      53.045  30.016  52.468  0.00  0.00    -0.258 OA
BRANCH  23  25
ATOM     25  O   UNL d   1      52.834  30.045  53.893  0.00  0.00    -0.271 OA
BRANCH  25  26
ATOM     26  C   UNL d   1      53.171  29.292  53.942  0.00  0.00     0.126 C 
ATOM     27  C   UNL d   1      53.283  28.966  54.678  0.00  0.00     0.029 C 
ENDBRANCH  25  26
ENDBRANCH  23  25
ENDBRANCH  22  23
ENDBRANCH  21  22
ENDBRANCH   2  21
BRANCH   1  28
ATOM     28  C   UNL d   1      53.770  33.142  53.613  0.00  0.00     0.085 C 
BRANCH  28  29
ATOM     29  C   UNL d   1      53.926  33.383  54.385  0.00  0.00     0.019 C 
BRANCH  29  30
ATOM     30  C   UNL d   1      54.653  33.260  54.729  0.00  0.00     0.002 C 
BRANCH  30  31
ATOM     31  C   UNL d   1      54.831  33.561  55.474  0.00  0.00     0.000 C 
ATOM     32  C   UNL d   1      55.528  33.937  55.612  0.00  0.00     0.000 C 
ENDBRANCH  30  31
ENDBRANCH  29  30
ENDBRANCH  28  29
ENDBRANCH   1  28
TORSDOF 12
ENDMDL
MODEL 2
REMARK VINA RESULT:      -7.1      1.645      5.276
REMARK  12 active torsions:
REMARK  status: ('A' for Active; 'I' for Inactive)
REMARK    1  A    between atoms: C_23  and  N_1 
REMARK    2  A    between atoms: S_8  and  C_2 
REMARK    3  A    between atoms: C_7  and  C_11 
REMARK       I    between atoms: N_12  and  C_7 
REMARK    4  A    between atoms: C_24  and  S_8 
REMARK    5  A    between atoms: C_25  and  N_12 
REMARK    6  A    between atoms: C_13  and  C_25 
REMARK    7  A    between atoms: C_15  and  C_24 
REMARK    8  A    between atoms: O_26  and  C_15 
REMARK    9  A    between atoms: C_28  and  C_23 
REMARK   10  A    between atoms: C_27  and  O_26 
REMARK   11  A    between atoms: C_30  and  C_28 
REMARK   12  A    between atoms: C_29  and  C_30 
ROOT
ATOM      1  N   UNL d   1      52.733  33.778  53.228  0.00  0.00    -0.253 N 
ATOM      2  C   UNL d   1      51.993  33.505  53.018  0.00  0.00     0.182 A 
ATOM      3  C   UNL d   1      53.366  33.257  53.291  0.00  0.00     0.268 A 
ATOM      4  N   UNL d   1      51.887  32.706  52.871  0.00  0.00    -0.222 NA
ATOM      5  C   UNL d   1      53.263  32.461  53.145  0.00  0.00     0.074 A 
ATOM      6  C   UNL d   1      52.513  32.176  52.931  0.00  0.00     0.088 A 
ATOM      7  C   UNL d   1      52.400  31.368  52.781  0.00  0.00     0.024 A 
ATOM      8  C   UNL d   1      53.891  31.929  53.205  0.00  0.00     0.006 A 
ATOM      9  C   UNL d   1      53.036  30.845  52.844  0.00  0.00     0.059 A 
ATOM     10  O   UNL d   1      54.116  33.543  53.505  0.00  0.00    -0.267 OA
ATOM     11  C   UNL d   1      53.785  31.130  53.058  0.00  0.00     0.005 A 
ENDROOT
BRANCH   9  12
ATOM     12  C   UNL d   1      52.926  30.034  52.694  0.00  0.00     0.279 C 
ATOM     13  N   UNL d   1      52.949  29.513  53.315  0.00  0.00    -0.204 NA
ATOM     14  O   UNL d   1      52.796  29.786  51.921  0.00  0.00    -0.265 OA
BRANCH  13  15
ATOM     15  C   UNL d   1      53.080  29.779  54.082  0.00  0.00     0.127 C 
BRANCH  15  16
ATOM     16  C   UNL d   1      53.209  29.238  54.691  0.00  0.00     0.119 A 
ATOM     17  O   UNL d   1      53.453  28.465  54.701  0.00  0.00    -0.304 OA
ATOM     18  C   UNL d   1      53.486  28.195  55.475  0.00  0.00     0.123 A 
ATOM     19  C   UNL d   1      53.252  28.834  55.952  0.00  0.00     0.029 A 
ATOM     20  C   UNL d   1      53.083  29.471  55.480  0.00  0.00     0.028 A 
ENDBRANCH  15  16
ENDBRANCH  13  15
ENDBRANCH   9  12
BRANCH   2  21
ATOM     21  S   UNL d   1      51.357  34.028  52.955  0.00  0.00    -0.044 SA
BRANCH  21  22
ATOM     22  C   UNL d   1      50.654  33.783  52.613  0.00  0.00     0.107 C 
BRANCH  22  23
ATOM     23  C   UNL d   1      50.043  34.329  52.506  0.00  0.00     0.307 C 
ATOM     24  O   UNL d   1      49.702  34.717  53.156  0.00  0.00    -0.258 OA
BRANCH  23  25
ATOM     25  O   UNL d   1      49.774  34.485  51.736  0.00  0.00    -0.271 OA
BRANCH  25  26
ATOM     26  C   UNL d   1      48.963  34.577  51.610  0.00  0.00     0.126 C 
ATOM     27  C   UNL d   1      48.694  34.643  50.845  0.00  0.00     0.029 C 
ENDBRANCH  25  26
ENDBRANCH  23  25
ENDBRANCH  22  23
ENDBRANCH  21  22
ENDBRANCH   2  21
BRANCH   1  28
ATOM     28  C   UNL d   1      52.838  34.594  53.377  0.00  0.00     0.085 C 
BRANCH  28  29
ATOM     29  C   UNL d   1      53.010  34.859  54.139  0.00  0.00     0.019 C 
BRANCH  29  30
ATOM     30  C   UNL d   1      53.194  35.638  54.284  0.00  0.00     0.002 C 
BRANCH  30  31
ATOM     31  C   UNL d   1      53.178  35.946  55.047  0.00  0.00     0.000 C 
ATOM     32  C   UNL d   1      52.960  36.709  55.181  0.00  0.00     0.000 C 
ENDBRANCH  30  31
ENDBRANCH  29  30
ENDBRANCH  28  29
ENDBRANCH   1  28
TORSDOF 12
ENDMDL
MODEL 3
REMARK VINA RESULT:      -4.9      1.378      2.983
REMARK  12 active torsions:
REMARK  status: ('A' for Active; 'I' for Inactive)
REMARK    1  A    between atoms: C_23  and  N_1 
REMARK    2  A    between atoms: S_8  and  C_2 
REMARK    3  A    between atoms: C_7  and  C_11 
REMARK       I    between atoms: N_12  and  C_7 
REMARK    4  A    between atoms: C_24  and  S_8 
REMARK    5  A    between atoms: C_25  and  N_12 
REMARK    6  A    between atoms: C_13  and  C_25 
REMARK    7  A    between atoms: C_15  and  C_24 
REMARK    8  A    between atoms: O_26  and  C_15 
REMARK    9  A    between atoms: C_28  and  C_23 
REMARK   10  A    between atoms: C_27  and  O_26 
REMARK   11  A    between atoms: C_30  and  C_28 
REMARK   12  A    between atoms: C_29  and  C_30 
ROOT
ATOM      1  N   UNL d   1      51.597  33.292  53.324  0.00  0.00    -0.253 N 
ATOM      2  C   UNL d   1      51.831  34.074  53.344  0.00  0.00     0.182 A 
ATOM      3  C   UNL d   1      50.849  33.088  53.052  0.00  0.00     0.268 A 
ATOM      4  N   UNL d   1      51.311  34.654  53.090  0.00  0.00    -0.222 NA
ATOM      5  C   UNL d   1      50.330  33.665  52.799  0.00  0.00     0.074 A 
ATOM      6  C   UNL d   1      50.560  34.462  52.816  0.00  0.00     0.088 A 
ATOM      7  C   UNL d   1      50.038  35.054  52.561  0.00  0.00     0.024 A 
ATOM      8  C   UNL d   1      49.575  33.471  52.524  0.00  0.00     0.006 A 
ATOM      9  C   UNL d   1      49.286  34.849  52.288  0.00  0.00     0.059 A 
ATOM     10  O   UNL d   1      50.619  32.290  53.035  0.00  0.00    -0.267 OA
ATOM     11  C   UNL d   1      49.056  34.052  52.270  0.00  0.00     0.005 A 
ENDROOT
BRANCH   9  12
ATOM     12  C   UNL d   1      48.760  35.440  52.031  0.00  0.00     0.279 C 
ATOM     13  N   UNL d   1      48.311  35.833  52.581  0.00  0.00    -0.204 NA
ATOM     14  O   UNL d   1      48.711  35.608  51.228  0.00  0.00    -0.265 OA
BRANCH  13  15
ATOM     15  C   UNL d   1      48.374  35.652  53.380  0.00  0.00     0.127 C 
BRANCH  15  16
ATOM     16  C   UNL d   1      47.827  35.957  53.917  0.00  0.00     0.119 A 
ATOM     17  O   UNL d   1      47.033  35.836  54.027  0.00  0.00    -0.304 OA
ATOM     18  C   UNL d   1      46.768  36.293  54.655  0.00  0.00     0.123 A 
ATOM     19  C   UNL d   1      47.431  36.707  54.934  0.00  0.00     0.029 A 
ATOM     20  C   UNL d   1      48.078  36.507  54.490  0.00  0.00     0.028 A 
ENDBRANCH  15  16
ENDBRANCH  13  15
ENDBRANCH   9  12
BRANCH   2  21
ATOM     21  S   UNL d   1      52.583  34.279  53.617  0.00  0.00    -0.044 SA
BRANCH  21  22
ATOM     22  C   UNL d   1      52.667  34.810  54.235  0.00  0.00     0.107 C 
BRANCH  22  23
ATOM     23  C   UNL d   1      53.424  35.015  54.494  0.00  0.00     0.307 C 
ATOM     24  O   UNL d   1      53.791  35.708  54.222  0.00  0.00    -0.258 OA
BRANCH  23  25
ATOM     25  O   UNL d   1      53.815  34.517  55.030  0.00  0.00    -0.271 OA
BRANCH  25  26
ATOM     26  C   UNL d   1      54.640  34.544  55.069  0.00  0.00     0.126 C 
ATOM     27  C   UNL d   1      55.033  33.913  55.400  0.00  0.00     0.029 C 
ENDBRANCH  25  26
ENDBRANCH  23  25
ENDBRANCH  22  23
ENDBRANCH  21  22
ENDBRANCH   2  21
BRANCH   1  28
ATOM     28  C   UNL d   1      52.130  32.702  53.583  0.00  0.00     0.085 C 
BRANCH  28  29
ATOM     29  C   UNL d   1      52.388  32.116  53.064  0.00  0.00     0.019 C 
BRANCH  29  30
ATOM     30  C   UNL d   1      52.962  31.581  53.281  0.00  0.00     0.002 C 
BRANCH  30  31
ATOM     31  C   UNL d   1      52.998  30.832  52.941  0.00  0.00     0.000 C 
ATOM     32  C   UNL d   1      53.416  30.240  53.290  0.00  0.00     0.000 C 
ENDBRANCH  30  31
ENDBRANCH  29  30
ENDBRANCH  28  29
ENDBRANCH   1  28
TORSDOF 12
ENDMDL
MODEL 4
REMARK VINA RESULT:      -4.6      1.375      2.968
REMARK  12 active torsions:
REMARK  status: ('A' for Active; 'I' for Inactive)
REMARK    1  A    between atoms: C_23  and  N_1 
REMARK    2  A    between atoms: S_8  and  C_2 
REMARK    3  A    between atoms: C_7  and  C_11 
REMARK       I    between atoms: N_12  and  C_7 
REMARK    4  A    between atoms: C_24  and  S_8 
REMARK    5  A    between atoms: C_25  and  N_12 
REMARK    6  A    between atoms: C_13  and  C_25 
REMARK    7  A    between atoms: C_15  and  C_24 
REMARK    8  A    between atoms: O_26  and  C_15 
REMARK    9  A    between atoms: C_28  and  C_23 
REMARK   10  A    between atoms: C_27  and  O_26 
REMARK   11  A    between atoms: C_30  and  C_28 
REMARK   12  A    between atoms: C_29  and  C_30 
ROOT
ATOM      1  N   UNL d   1      52.633  32.082  53.105  0.00  0.00    -0.253 N 
ATOM      2  C   UNL d   1      53.070  32.763  53.207  0.00  0.00     0.182 A 
ATOM      3  C   UNL d   1      51.812  32.116  53.068  0.00  0.00     0.268 A 
ATOM      4  N   UNL d   1      52.684  33.483  53.272  0.00  0.00    -0.222 NA
ATOM      5  C   UNL d   1      51.426  32.832  53.132  0.00  0.00     0.074 A 
ATOM      6  C   UNL d   1      51.864  33.530  53.236  0.00  0.00     0.088 A 
ATOM      7  C   UNL d   1      51.478  34.260  53.302  0.00  0.00     0.024 A 
ATOM      8  C   UNL d   1      50.602  32.879  53.096  0.00  0.00     0.006 A 
ATOM      9  C   UNL d   1      50.654  34.295  53.265  0.00  0.00     0.059 A 
ATOM     10  O   UNL d   1      51.374  31.419  52.964  0.00  0.00    -0.267 OA
ATOM     11  C   UNL d   1      50.215  33.599  53.161  0.00  0.00     0.005 A 
ENDROOT
BRANCH   9  12
ATOM     12  C   UNL d   1      50.264  35.027  53.331  0.00  0.00     0.279 C 
ATOM     13  N   UNL d   1      49.691  35.218  52.788  0.00  0.00    -0.204 NA
ATOM     14  O   UNL d   1      50.471  35.535  53.944  0.00  0.00    -0.265 OA
BRANCH  13  15
ATOM     15  C   UNL d   1      49.498  34.698  52.182  0.00  0.00     0.127 C 
BRANCH  15  16
ATOM     16  C   UNL d   1      48.846  34.849  51.700  0.00  0.00     0.119 A 
ATOM     17  O   UNL d   1      48.261  35.409  51.722  0.00  0.00    -0.304 OA
ATOM     18  C   UNL d   1      47.746  35.297  51.093  0.00  0.00     0.123 A 
ATOM     19  C   UNL d   1      48.034  34.640  50.675  0.00  0.00     0.029 A 
ATOM     20  C   UNL d   1      48.703  34.364  51.039  0.00  0.00     0.028 A 
ENDBRANCH  15  16
ENDBRANCH  13  15
ENDBRANCH   9  12
BRANCH   2  21
ATOM     21  S   UNL d   1      53.895  32.728  53.245  0.00  0.00    -0.044 SA
BRANCH  21  22
ATOM     22  C   UNL d   1      54.318  33.329  53.608  0.00  0.00     0.107 C 
BRANCH  22  23
ATOM     23  C   UNL d   1      55.109  33.204  53.810  0.00  0.00     0.307 C 
ATOM     24  O   UNL d   1      55.683  33.093  53.222  0.00  0.00    -0.258 OA
BRANCH  23  25
ATOM     25  O   UNL d   1      55.322  33.192  54.612  0.00  0.00    -0.271 OA
BRANCH  25  26
ATOM     26  C   UNL d   1      55.412  33.911  55.010  0.00  0.00     0.126 C 
ATOM     27  C   UNL d   1      55.284  33.927  55.813  0.00  0.00     0.029 C 
ENDBRANCH  25  26
ENDBRANCH  23  25
ENDBRANCH  22  23
ENDBRANCH  21  22
ENDBRANCH   2  21
BRANCH   1  28
ATOM     28  C   UNL d   1      53.030  31.349  53.039  0.00  0.00     0.085 C 
BRANCH  28  29
ATOM     29  C   UNL d   1      52.945  30.775  53.624  0.00  0.00     0.019 C 
BRANCH  29  30
ATOM     30  C   UNL d   1      53.241  30.024  53.526  0.00  0.00     0.002 C 
BRANCH  30  31
ATOM     31  C   UNL d   1      53.511  29.584  54.167  0.00  0.00     0.000 C 
ATOM     32  C   UNL d   1      53.273  28.824  54.277  0.00  0.00     0.000 C 
ENDBRANCH  30  31
ENDBRANCH  29  30
ENDBRANCH  28  29
ENDBRANCH   1  28
TORSDOF 12
ENDMDL
MODEL 5
REMARK VINA RESULT:      -4.5      1.450      5.486
REMARK  12 active torsions:
REMARK  status: ('A' for Active; 'I' for Inactive)
REMARK    1  A    between atoms: C_23  and  N_1 
REMARK    2  A    between atoms: S_8  and  C_2 
REMARK    3  A    between atoms: C_7  and  C_11 
REMARK       I    between atoms: N_12  and  C_7 
REMARK    4  A    between atoms: C_24  and  S_8 
REMARK    5  A    between atoms: C_25  and  N_12 
REMARK    6  A    between atoms: C_13  and  C_25 
REMARK    7  A    between atoms: C_15  and  C_24 
REMARK    8  A    between atoms: O_26  and  C_15 
REMARK    9  A    between atoms: C_28  and  C_23 
REMARK   10  A    between atoms: C_27  and  O_26 
REMARK   11  A    between atoms: C_30  and  C_28 
REMARK   12  A    between atoms: C_29  and  C_30 
ROOT
ATOM      1  N   UNL d   1      51.491  33.491  53.472  0.00  0.00    -0.253 N 
ATOM      2  C   UNL d   1      52.293  33.627  53.534  0.00  0.00     0.182 A 
ATOM      3  C   UNL d   1      51.210  32.746  53.266  0.00  0.00     0.268 A 
ATOM      4  N   UNL d   1      52.817  33.014  53.390  0.00  0.00    -0.222 NA
ATOM      5  C   UNL d   1      51.731  32.134  53.121  0.00  0.00     0.074 A 
ATOM      6  C   UNL d   1      52.548  32.265  53.183  0.00  0.00     0.088 A 
ATOM      7  C   UNL d   1      53.083  31.648  53.038  0.00  0.00     0.024 A 
ATOM      8  C   UNL d   1      51.460  31.382  52.914  0.00  0.00     0.006 A 
ATOM      9  C   UNL d   1      52.801  30.900  52.831  0.00  0.00     0.059 A 
ATOM     10  O   UNL d   1      50.393  32.615  53.204  0.00  0.00    -0.267 OA
ATOM     11  C   UNL d   1      51.984  30.768  52.769  0.00  0.00     0.005 A 
ENDROOT
BRANCH   9  12
ATOM     12  C   UNL d   1      53.335  30.279  52.685  0.00  0.00     0.279 C 
ATOM     13  N   UNL d   1      53.486  29.743  53.275  0.00  0.00    -0.204 NA
ATOM     14  O   UNL d   1      53.694  30.227  51.947  0.00  0.00    -0.265 OA
BRANCH  13  15
ATOM     15  C   UNL d   1      53.117  29.810  54.007  0.00  0.00     0.127 C 
BRANCH  15  16
ATOM     16  C   UNL d   1      53.239  29.235  54.586  0.00  0.00     0.119 A 
ATOM     17  O   UNL d   1      53.407  28.443  54.551  0.00  0.00    -0.304 OA
ATOM     18  C   UNL d   1      53.471  28.139  55.311  0.00  0.00     0.123 A 
ATOM     19  C   UNL d   1      53.337  28.777  55.825  0.00  0.00     0.029 A 
ATOM     20  C   UNL d   1      53.195  29.446  55.390  0.00  0.00     0.028 A 
ENDBRANCH  15  16
ENDBRANCH  13  15
ENDBRANCH   9  12
BRANCH   2  21
ATOM     21  S   UNL d   1      52.575  34.376  53.741  0.00  0.00    -0.044 SA
BRANCH  21  22
ATOM     22  C   UNL d   1      53.374  34.493  53.877  0.00  0.00     0.107 C 
BRANCH  22  23
ATOM     23  C   UNL d   1      53.613  34.981  54.499  0.00  0.00     0.307 C 
ATOM     24  O   UNL d   1      53.422  35.789  54.500  0.00  0.00    -0.258 OA
BRANCH  23  25
ATOM     25  O   UNL d   1      54.047  34.653  55.126  0.00  0.00    -0.271 OA
BRANCH  25  26
ATOM     26  C   UNL d   1      54.869  34.613  55.061  0.00  0.00     0.126 C 
ATOM     27  C   UNL d   1      55.266  34.051  55.497  0.00  0.00     0.029 C 
ENDBRANCH  25  26
ENDBRANCH  23  25
ENDBRANCH  22  23
ENDBRANCH  21  22
ENDBRANCH   2  21
BRANCH   1  28
ATOM     28  C   UNL d   1      50.959  34.119  53.620  0.00  0.00     0.085 C 
BRANCH  28  29
ATOM     29  C   UNL d   1      50.392  34.325  53.059  0.00  0.00     0.019 C 
BRANCH  29  30
ATOM     30  C   UNL d   1      49.863  34.928  53.193  0.00  0.00     0.002 C 
BRANCH  30  31
ATOM     31  C   UNL d   1      49.282  35.119  52.642  0.00  0.00     0.000 C 
ATOM     32  C   UNL d   1      48.624  35.528  52.860  0.00  0.00     0.000 C 
ENDBRANCH  30  31
ENDBRANCH  29  30
ENDBRANCH  28  29
ENDBRANCH   1  28
TORSDOF 12
ENDMDL
