MODEL 1
REMARK VINA RESULT:      20.4      0.000      0.000
REMARK  5 active torsions:
REMARK  status: ('A' for Active; 'I' for Inactive)
REMARK    1  A    between atoms: C_16  and  N_2 
REMARK    2  A    between atoms: S_9  and  C_4 
REMARK    3  A    between atoms: C_17  and  S_9 
REMARK    4  A    between atoms: C_10  and  C_17 
REMARK       I    between atoms: N_12  and  C_10 
REMARK    5  A    between atoms: C_14  and  N_12 
ROOT
ATOM      1  C   UNL d   1      46.428 -18.852  42.557  0.00  0.00     0.104 A 
ATOM      2  N   UNL d   1      46.372 -18.696  43.974  0.00  0.00    -0.252 N 
ATOM      3  C   UNL d   1      46.482 -19.176  43.302  0.00  0.00     0.274 A 
ATOM      4  C   UNL d   1      46.209 -17.893  43.879  0.00  0.00     0.182 A 
ATOM      5  C   UNL d   1      46.264 -18.049  42.463  0.00  0.00     0.095 A 
ATOM      6  N   UNL d   1      46.155 -17.570  43.113  0.00  0.00    -0.222 NA
ATOM      7  S   UNL d   1      46.508 -19.183  41.809  0.00  0.00    -0.081 SA
ATOM      8  C   UNL d   1      46.244 -17.884  41.655  0.00  0.00     0.026 A 
ATOM      9  O   UNL d   1      46.646 -19.979  43.397  0.00  0.00    -0.266 OA
ATOM     10  C   UNL d   1      46.393 -18.579  41.252  0.00  0.00     0.031 A 
ATOM     11  C   UNL d   1      46.423 -18.656  40.431  0.00  0.00     0.007 C 
ENDROOT
BRANCH   4  12
ATOM     12  S   UNL d   1      46.097 -17.404  44.545  0.00  0.00    -0.044 SA
BRANCH  12  13
ATOM     13  C   UNL d   1      45.782 -16.647  44.446  0.00  0.00     0.101 C 
BRANCH  13  14
ATOM     14  C   UNL d   1      45.040 -16.465  44.759  0.00  0.00     0.286 C 
ATOM     15  N   UNL d   1      44.823 -15.678  44.877  0.00  0.00    -0.208 NA
ATOM     16  O   UNL d   1      44.514 -17.072  44.954  0.00  0.00    -0.265 OA
BRANCH  15  17
ATOM     17  C   UNL d   1      45.349 -15.073  44.682  0.00  0.00     0.085 A 
ATOM     18  C   UNL d   1      45.096 -14.449  44.218  0.00  0.00     0.019 A 
ATOM     19  C   UNL d   1      45.621 -13.845  44.023  0.00  0.00     0.002 A 
ATOM     20  C   UNL d   1      45.363 -13.205  43.547  0.00  0.00     0.000 C 
ATOM     21  C   UNL d   1      46.395 -13.870  44.295  0.00  0.00     0.000 A 
ATOM     22  C   UNL d   1      46.647 -14.501  44.763  0.00  0.00     0.002 A 
ATOM     23  C   UNL d   1      46.123 -15.098  44.954  0.00  0.00     0.019 A 
ENDBRANCH  15  17
ENDBRANCH  13  14
ENDBRANCH  12  13
ENDBRANCH   4  12
BRANCH   2  24
ATOM     24  C   UNL d   1      46.427 -19.024  44.736  0.00  0.00     0.085 C 
ATOM     25  C   UNL d   1      46.507 -19.841  44.828  0.00  0.00     0.021 C 
ENDBRANCH   2  24
TORSDOF 5
ENDMDL
