MODEL 1
REMARK VINA RESULT:      -3.0      0.000      0.000
REMARK  3 active torsions:
REMARK  status: ('A' for Active; 'I' for Inactive)
REMARK    1  A    between atoms: C_4  and  C_1 
REMARK    2  A    between atoms: N_7  and  C_4 
REMARK    3  A    between atoms: C_9  and  N_7 
ROOT
ATOM      1  C   UNL d   1      33.064  18.886 -23.194  0.00  0.00     0.171 C 
ATOM      2  S   UNL d   1      33.234  18.935 -24.001  0.00  0.00    -0.054 SA
ENDROOT
BRANCH   1   3
ATOM      3  C   UNL d   1      33.051  19.572 -22.736  0.00  0.00     0.191 A 
ATOM      4  N   UNL d   1      33.223  20.334 -23.006  0.00  0.00    -0.223 NA
ATOM      5  C   UNL d   1      33.143  20.853 -22.366  0.00  0.00     0.101 A 
ATOM      6  C   UNL d   1      33.241  21.670 -22.296  0.00  0.00     0.021 A 
ATOM      7  C   UNL d   1      32.922  20.407 -21.704  0.00  0.00     0.101 A 
ATOM      8  C   UNL d   1      33.121  22.039 -21.575  0.00  0.00     0.002 A 
ATOM      9  C   UNL d   1      32.900  21.593 -20.912  0.00  0.00     0.002 A 
ATOM     10  C   UNL d   1      32.801  20.782 -20.977  0.00  0.00     0.021 A 
ATOM     11  N   UNL d   1      32.867  19.615 -21.939  0.00  0.00    -0.223 NA
ENDBRANCH   1   3
BRANCH   1  12
ATOM     12  N   UNL d   1      32.909  18.158 -22.846  0.00  0.00    -0.232 NA
BRANCH  12  13
ATOM     13  C   UNL d   1      32.681  17.515 -23.317  0.00  0.00     0.083 A 
ATOM     14  C   UNL d   1      31.908  17.463 -23.595  0.00  0.00     0.020 A 
ATOM     15  C   UNL d   1      31.674  16.829 -24.062  0.00  0.00     0.013 A 
ATOM     16  C   UNL d   1      32.228  16.238 -24.252  0.00  0.00     0.058 A 
ATOM     17  C   UNL d   1      33.004  16.288 -23.974  0.00  0.00     0.013 A 
ATOM     18 CL   UNL d   1      32.002  15.601 -24.718  0.00  0.00    -0.082 Cl
ATOM     19  C   UNL d   1      33.224  16.931 -23.506  0.00  0.00     0.020 A 
ENDBRANCH  12  13
ENDBRANCH   1  12
TORSDOF 3
ENDMDL
MODEL 2
REMARK VINA RESULT:      -2.9      2.212      4.561
REMARK  3 active torsions:
REMARK  status: ('A' for Active; 'I' for Inactive)
REMARK    1  A    between atoms: C_4  and  C_1 
REMARK    2  A    between atoms: N_7  and  C_4 
REMARK    3  A    between atoms: C_9  and  N_7 
ROOT
ATOM      1  C   UNL d   1      32.981  19.965 -22.374  0.00  0.00     0.171 C 
ATOM      2  S   UNL d   1      33.226  20.661 -22.744  0.00  0.00    -0.054 SA
ENDROOT
BRANCH   1   3
ATOM      3  C   UNL d   1      32.951  19.261 -22.803  0.00  0.00     0.191 A 
ATOM      4  N   UNL d   1      32.664  19.180 -23.574  0.00  0.00    -0.223 NA
ATOM      5  C   UNL d   1      32.737  18.384 -23.788  0.00  0.00     0.101 A 
ATOM      6  C   UNL d   1      32.546  17.973 -24.478  0.00  0.00     0.021 A 
ATOM      7  C   UNL d   1      33.070  17.978 -23.146  0.00  0.00     0.101 A 
ATOM      8  C   UNL d   1      32.685  17.167 -24.530  0.00  0.00     0.002 A 
ATOM      9  C   UNL d   1      33.018  16.762 -23.888  0.00  0.00     0.002 A 
ATOM     10  C   UNL d   1      33.209  17.165 -23.201  0.00  0.00     0.021 A 
ATOM     11  N   UNL d   1      33.200  18.527 -22.540  0.00  0.00    -0.223 NA
ENDBRANCH   1   3
BRANCH   1  12
ATOM     12  N   UNL d   1      32.767  19.971 -21.580  0.00  0.00    -0.232 NA
BRANCH  12  13
ATOM     13  C   UNL d   1      32.728  20.688 -21.167  0.00  0.00     0.083 A 
ATOM     14  C   UNL d   1      32.174  21.257 -21.383  0.00  0.00     0.020 A 
ATOM     15  C   UNL d   1      32.129  21.971 -20.979  0.00  0.00     0.013 A 
ATOM     16  C   UNL d   1      32.651  22.114 -20.347  0.00  0.00     0.058 A 
ATOM     17  C   UNL d   1      33.208  21.545 -20.129  0.00  0.00     0.013 A 
ATOM     18 CL   UNL d   1      32.613  22.825 -19.938  0.00  0.00    -0.082 Cl
ATOM     19  C   UNL d   1      33.241  20.833 -20.544  0.00  0.00     0.020 A 
ENDBRANCH  12  13
ENDBRANCH   1  12
TORSDOF 3
ENDMDL
MODEL 3
REMARK VINA RESULT:      -2.6      1.037      1.440
REMARK  3 active torsions:
REMARK  status: ('A' for Active; 'I' for Inactive)
REMARK    1  A    between atoms: C_4  and  C_1 
REMARK    2  A    between atoms: N_7  and  C_4 
REMARK    3  A    between atoms: C_9  and  N_7 
ROOT
ATOM      1  C   UNL d   1      33.140  19.809 -22.219  0.00  0.00     0.171 C 
ATOM      2  S   UNL d   1      33.239  19.214 -21.654  0.00  0.00    -0.054 SA
ENDROOT
BRANCH   1   3
ATOM      3  C   UNL d   1      32.960  20.576 -21.977  0.00  0.00     0.191 A 
ATOM      4  N   UNL d   1      33.141  21.267 -22.394  0.00  0.00    -0.223 NA
ATOM      5  C   UNL d   1      32.861  21.909 -21.953  0.00  0.00     0.101 A 
ATOM      6  C   UNL d   1      32.878  22.724 -22.083  0.00  0.00     0.021 A 
ATOM      7  C   UNL d   1      32.508  21.610 -21.265  0.00  0.00     0.101 A 
ATOM      8  C   UNL d   1      32.549  23.236 -21.535  0.00  0.00     0.002 A 
ATOM      9  C   UNL d   1      32.196  22.937 -20.847  0.00  0.00     0.002 A 
ATOM     10  C   UNL d   1      32.176  22.129 -20.714  0.00  0.00     0.021 A 
ATOM     11  N   UNL d   1      32.573  20.785 -21.286  0.00  0.00    -0.223 NA
ENDBRANCH   1   3
BRANCH   1  12
ATOM     12  N   UNL d   1      33.221  19.639 -23.020  0.00  0.00    -0.232 NA
BRANCH  12  13
ATOM     13  C   UNL d   1      32.983  18.901 -23.312  0.00  0.00     0.083 A 
ATOM     14  C   UNL d   1      32.585  18.852 -24.031  0.00  0.00     0.020 A 
ATOM     15  C   UNL d   1      32.346  18.125 -24.327  0.00  0.00     0.013 A 
ATOM     16  C   UNL d   1      32.510  17.435 -23.892  0.00  0.00     0.058 A 
ATOM     17  C   UNL d   1      32.909  17.481 -23.171  0.00  0.00     0.013 A 
ATOM     18 CL   UNL d   1      32.274  16.704 -24.182  0.00  0.00    -0.082 Cl
ATOM     19  C   UNL d   1      33.143  18.219 -22.886  0.00  0.00     0.020 A 
ENDBRANCH  12  13
ENDBRANCH   1  12
TORSDOF 3
ENDMDL
MODEL 4
REMARK VINA RESULT:      -2.4      2.441      4.891
REMARK  3 active torsions:
REMARK  status: ('A' for Active; 'I' for Inactive)
REMARK    1  A    between atoms: C_4  and  C_1 
REMARK    2  A    between atoms: N_7  and  C_4 
REMARK    3  A    between atoms: C_9  and  N_7 
ROOT
ATOM      1  C   UNL d   1      33.220  20.500 -21.747  0.00  0.00     0.171 C 
ATOM      2  S   UNL d   1      33.241  20.332 -20.939  0.00  0.00    -0.054 SA
ENDROOT
BRANCH   1   3
ATOM      3  C   UNL d   1      33.178  19.883 -22.293  0.00  0.00     0.191 A 
ATOM      4  N   UNL d   1      33.217  19.078 -22.112  0.00  0.00    -0.223 NA
ATOM      5  C   UNL d   1      33.153  18.656 -22.821  0.00  0.00     0.101 A 
ATOM      6  C   UNL d   1      33.156  17.848 -22.991  0.00  0.00     0.021 A 
ATOM      7  C   UNL d   1      33.074  19.206 -23.437  0.00  0.00     0.101 A 
ATOM      8  C   UNL d   1      33.080  17.589 -23.764  0.00  0.00     0.002 A 
ATOM      9  C   UNL d   1      33.001  18.139 -24.380  0.00  0.00     0.002 A 
ATOM     10  C   UNL d   1      32.999  18.942 -24.216  0.00  0.00     0.021 A 
ATOM     11  N   UNL d   1      33.090  19.963 -23.103  0.00  0.00    -0.223 NA
ENDBRANCH   1   3
BRANCH   1  12
ATOM     12  N   UNL d   1      33.241  21.279 -22.010  0.00  0.00    -0.232 NA
BRANCH  12  13
ATOM     13  C   UNL d   1      32.968  21.889 -21.518  0.00  0.00     0.083 A 
ATOM     14  C   UNL d   1      33.187  21.906 -20.725  0.00  0.00     0.020 A 
ATOM     15  C   UNL d   1      32.921  22.506 -20.232  0.00  0.00     0.013 A 
ATOM     16  C   UNL d   1      32.427  23.099 -20.543  0.00  0.00     0.058 A 
ATOM     17  C   UNL d   1      32.205  23.084 -21.338  0.00  0.00     0.013 A 
ATOM     18 CL   UNL d   1      32.157  23.702 -20.056  0.00  0.00    -0.082 Cl
ATOM     19  C   UNL d   1      32.481  22.474 -21.821  0.00  0.00     0.020 A 
ENDBRANCH  12  13
ENDBRANCH   1  12
TORSDOF 3
ENDMDL
MODEL 5
REMARK VINA RESULT:      -2.3      1.111      1.769
REMARK  3 active torsions:
REMARK  status: ('A' for Active; 'I' for Inactive)
REMARK    1  A    between atoms: C_4  and  C_1 
REMARK    2  A    between atoms: N_7  and  C_4 
REMARK    3  A    between atoms: C_9  and  N_7 
ROOT
ATOM      1  C   UNL d   1      32.513  17.807 -23.932  0.00  0.00     0.171 C 
ATOM      2  S   UNL d   1      32.718  17.768 -24.731  0.00  0.00    -0.054 SA
ENDROOT
BRANCH   1   3
ATOM      3  C   UNL d   1      32.684  18.488 -23.498  0.00  0.00     0.191 A 
ATOM      4  N   UNL d   1      32.783  18.524 -22.678  0.00  0.00    -0.223 NA
ATOM      5  C   UNL d   1      32.946  19.310 -22.478  0.00  0.00     0.101 A 
ATOM      6  C   UNL d   1      33.094  19.682 -21.755  0.00  0.00     0.021 A 
ATOM      7  C   UNL d   1      32.946  19.755 -23.177  0.00  0.00     0.101 A 
ATOM      8  C   UNL d   1      33.241  20.487 -21.728  0.00  0.00     0.002 A 
ATOM      9  C   UNL d   1      33.241  20.932 -22.428  0.00  0.00     0.002 A 
ATOM     10  C   UNL d   1      33.094  20.568 -23.147  0.00  0.00     0.021 A 
ATOM     11  N   UNL d   1      32.783  19.241 -23.805  0.00  0.00    -0.223 NA
ENDBRANCH   1   3
BRANCH   1  12
ATOM     12  N   UNL d   1      32.140  17.171 -23.566  0.00  0.00    -0.232 NA
BRANCH  12  13
ATOM     13  C   UNL d   1      31.519  16.780 -23.951  0.00  0.00     0.083 A 
ATOM     14  C   UNL d   1      30.744  17.032 -23.841  0.00  0.00     0.020 A 
ATOM     15  C   UNL d   1      30.122  16.649 -24.218  0.00  0.00     0.013 A 
ATOM     16  C   UNL d   1      30.286  16.002 -24.715  0.00  0.00     0.058 A 
ATOM     17  C   UNL d   1      31.063  15.747 -24.828  0.00  0.00     0.013 A 
ATOM     18 CL   UNL d   1      29.671  15.615 -25.096  0.00  0.00    -0.082 Cl
ATOM     19  C   UNL d   1      31.676  16.142 -24.441  0.00  0.00     0.020 A 
ENDBRANCH  12  13
ENDBRANCH   1  12
TORSDOF 3
ENDMDL
MODEL 6
REMARK VINA RESULT:      -2.1      2.675      5.081
REMARK  3 active torsions:
REMARK  status: ('A' for Active; 'I' for Inactive)
REMARK    1  A    between atoms: C_4  and  C_1 
REMARK    2  A    between atoms: N_7  and  C_4 
REMARK    3  A    between atoms: C_9  and  N_7 
ROOT
ATOM      1  C   UNL d   1      31.589  16.048 -23.923  0.00  0.00     0.171 C 
ATOM      2  S   UNL d   1      32.065  15.598 -23.420  0.00  0.00    -0.054 SA
ENDROOT
BRANCH   1   3
ATOM      3  C   UNL d   1      30.776  15.910 -23.950  0.00  0.00     0.191 A 
ATOM      4  N   UNL d   1      30.280  15.824 -23.295  0.00  0.00    -0.223 NA
ATOM      5  C   UNL d   1      29.512  15.693 -23.574  0.00  0.00     0.101 A 
ATOM      6  C   UNL d   1      28.793  15.569 -23.188  0.00  0.00     0.021 A 
ATOM      7  C   UNL d   1      29.539  15.699 -24.402  0.00  0.00     0.101 A 
ATOM      8  C   UNL d   1      28.107  15.453 -23.621  0.00  0.00     0.002 A 
ATOM      9  C   UNL d   1      28.134  15.458 -24.450  0.00  0.00     0.002 A 
ATOM     10  C   UNL d   1      28.846  15.581 -24.837  0.00  0.00     0.021 A 
ATOM     11  N   UNL d   1      30.324  15.833 -24.629  0.00  0.00    -0.223 NA
ENDBRANCH   1   3
BRANCH   1  12
ATOM     12  N   UNL d   1      31.921  16.634 -24.396  0.00  0.00    -0.232 NA
BRANCH  12  13
ATOM     13  C   UNL d   1      32.253  17.308 -24.046  0.00  0.00     0.083 A 
ATOM     14  C   UNL d   1      32.826  17.228 -23.461  0.00  0.00     0.020 A 
ATOM     15  C   UNL d   1      33.160  17.891 -23.110  0.00  0.00     0.013 A 
ATOM     16  C   UNL d   1      32.912  18.648 -23.353  0.00  0.00     0.058 A 
ATOM     17  C   UNL d   1      32.337  18.731 -23.940  0.00  0.00     0.013 A 
ATOM     18 CL   UNL d   1      33.241  19.316 -23.007  0.00  0.00    -0.082 Cl
ATOM     19  C   UNL d   1      32.011  18.055 -24.283  0.00  0.00     0.020 A 
ENDBRANCH  12  13
ENDBRANCH   1  12
TORSDOF 3
ENDMDL
MODEL 7
REMARK VINA RESULT:      -1.8      1.895      4.484
REMARK  3 active torsions:
REMARK  status: ('A' for Active; 'I' for Inactive)
REMARK    1  A    between atoms: C_4  and  C_1 
REMARK    2  A    between atoms: N_7  and  C_4 
REMARK    3  A    between atoms: C_9  and  N_7 
ROOT
ATOM      1  C   UNL d   1      32.504  18.314 -23.923  0.00  0.00     0.171 C 
ATOM      2  S   UNL d   1      32.596  18.849 -24.545  0.00  0.00    -0.054 SA
ENDROOT
BRANCH   1   3
ATOM      3  C   UNL d   1      31.964  17.694 -23.992  0.00  0.00     0.191 A 
ATOM      4  N   UNL d   1      31.297  17.690 -24.481  0.00  0.00    -0.223 NA
ATOM      5  C   UNL d   1      30.914  16.964 -24.378  0.00  0.00     0.101 A 
ATOM      6  C   UNL d   1      30.230  16.643 -24.712  0.00  0.00     0.021 A 
ATOM      7  C   UNL d   1      31.347  16.524 -23.825  0.00  0.00     0.101 A 
ATOM      8  C   UNL d   1      29.980  15.893 -24.498  0.00  0.00     0.002 A 
ATOM      9  C   UNL d   1      30.413  15.453 -23.945  0.00  0.00     0.002 A 
ATOM     10  C   UNL d   1      31.092  15.767 -23.611  0.00  0.00     0.021 A 
ATOM     11  N   UNL d   1      31.996  16.981 -23.590  0.00  0.00    -0.223 NA
ENDBRANCH   1   3
BRANCH   1  12
ATOM     12  N   UNL d   1      32.949  18.396 -23.236  0.00  0.00    -0.232 NA
BRANCH  12  13
ATOM     13  C   UNL d   1      33.022  19.139 -22.877  0.00  0.00     0.083 A 
ATOM     14  C   UNL d   1      32.952  19.823 -23.330  0.00  0.00     0.020 A 
ATOM     15  C   UNL d   1      33.023  20.563 -22.983  0.00  0.00     0.013 A 
ATOM     16  C   UNL d   1      33.168  20.616 -22.165  0.00  0.00     0.058 A 
ATOM     17  C   UNL d   1      33.238  19.931 -21.708  0.00  0.00     0.013 A 
ATOM     18 CL   UNL d   1      33.240  21.352 -21.809  0.00  0.00    -0.082 Cl
ATOM     19  C   UNL d   1      33.164  19.195 -22.072  0.00  0.00     0.020 A 
ENDBRANCH  12  13
ENDBRANCH   1  12
TORSDOF 3
ENDMDL
MODEL 8
REMARK VINA RESULT:      -0.4      3.227      5.213
REMARK  3 active torsions:
REMARK  status: ('A' for Active; 'I' for Inactive)
REMARK    1  A    between atoms: C_4  and  C_1 
REMARK    2  A    between atoms: N_7  and  C_4 
REMARK    3  A    between atoms: C_9  and  N_7 
ROOT
ATOM      1  C   UNL d   1      29.842  17.273 -24.770  0.00  0.00     0.171 C 
ATOM      2  S   UNL d   1      29.753  18.027 -25.095  0.00  0.00    -0.054 SA
ENDROOT
BRANCH   1   3
ATOM      3  C   UNL d   1      29.202  16.910 -24.396  0.00  0.00     0.191 A 
ATOM      4  N   UNL d   1      28.751  16.291 -24.707  0.00  0.00    -0.223 NA
ATOM      5  C   UNL d   1      28.170  16.098 -24.151  0.00  0.00     0.101 A 
ATOM      6  C   UNL d   1      27.566  15.534 -24.148  0.00  0.00     0.021 A 
ATOM      7  C   UNL d   1      28.265  16.601 -23.498  0.00  0.00     0.101 A 
ATOM      8  C   UNL d   1      27.064  15.471 -23.504  0.00  0.00     0.002 A 
ATOM      9  C   UNL d   1      27.160  15.973 -22.852  0.00  0.00     0.002 A 
ATOM     10  C   UNL d   1      27.757  16.534 -22.850  0.00  0.00     0.021 A 
ATOM     11  N   UNL d   1      28.906  17.101 -23.656  0.00  0.00    -0.223 NA
ENDBRANCH   1   3
BRANCH   1  12
ATOM     12  N   UNL d   1      30.564  16.883 -24.817  0.00  0.00    -0.232 NA
BRANCH  12  13
ATOM     13  C   UNL d   1      31.236  17.213 -24.460  0.00  0.00     0.083 A 
ATOM     14  C   UNL d   1      31.536  17.929 -24.733  0.00  0.00     0.020 A 
ATOM     15  C   UNL d   1      32.201  18.263 -24.386  0.00  0.00     0.013 A 
ATOM     16  C   UNL d   1      32.570  17.868 -23.752  0.00  0.00     0.058 A 
ATOM     17  C   UNL d   1      32.270  17.150 -23.476  0.00  0.00     0.013 A 
ATOM     18 CL   UNL d   1      33.235  18.195 -23.399  0.00  0.00    -0.082 Cl
ATOM     19  C   UNL d   1      31.602  16.828 -23.836  0.00  0.00     0.020 A 
ENDBRANCH  12  13
ENDBRANCH   1  12
TORSDOF 3
ENDMDL
