MODEL 1
REMARK VINA RESULT:      19.0      0.000      0.000
REMARK  1 active torsions:
REMARK  status: ('A' for Active; 'I' for Inactive)
REMARK    1  A    between atoms: C_7  and  C_4 
ROOT
ATOM      1  N   UNL d   1     -52.476  25.325  33.336  0.00  0.00    -0.242 NA
ATOM      2  C   UNL d   1     -51.256  24.566  33.360  0.00  0.00     0.156 A 
ATOM      3  N   UNL d   1     -51.695  23.866  33.363  0.00  0.00    -0.231 NA
ATOM      4  C   UNL d   1     -51.651  25.300  33.346  0.00  0.00     0.110 A 
ATOM      5  C   UNL d   1     -52.907  24.619  33.340  0.00  0.00     0.099 A 
ATOM      6  C   UNL d   1     -52.512  23.895  33.354  0.00  0.00     0.100 A 
ATOM      7 CL   UNL d   1     -50.433  24.545  33.369  0.00  0.00    -0.060 Cl
ATOM      8  C   UNL d   1     -53.738  24.637  33.330  0.00  0.00     0.021 A 
ATOM      9  C   UNL d   1     -52.948  23.188  33.358  0.00  0.00     0.021 A 
ATOM     10  C   UNL d   1     -53.771  23.209  33.348  0.00  0.00     0.002 A 
ATOM     11  C   UNL d   1     -54.166  23.933  33.334  0.00  0.00     0.002 A 
ENDROOT
BRANCH   4  12
ATOM     12  C   UNL d   1     -51.219  25.995  33.342  0.00  0.00     0.020 A 
ATOM     13  C   UNL d   1     -50.400  25.973  33.366  0.00  0.00     0.002 A 
ATOM     14  C   UNL d   1     -49.962  26.667  33.362  0.00  0.00     0.000 A 
ATOM     15  C   UNL d   1     -50.353  27.403  33.334  0.00  0.00     0.000 A 
ATOM     16  C   UNL d   1     -51.185  27.423  33.309  0.00  0.00     0.000 A 
ATOM     17  C   UNL d   1     -49.921  28.107  33.329  0.00  0.00     0.000 C 
ATOM     18  C   UNL d   1     -51.613  26.719  33.313  0.00  0.00     0.002 A 
ENDBRANCH   4  12
TORSDOF 1
ENDMDL
