MODEL 1
REMARK VINA RESULT:      -8.7      0.000      0.000
REMARK  2 active torsions:
REMARK  status: ('A' for Active; 'I' for Inactive)
REMARK    1  A    between atoms: N_2  and  S_1 
REMARK    2  A    between atoms: C_4  and  S_1 
ROOT
ATOM      1  N   UNL d   1     -49.396  13.433  22.315  0.00  0.00    -0.231 N 
ATOM      2  C   UNL d   1     -49.805  12.871  22.769  0.00  0.00     0.075 A 
ATOM      3  C   UNL d   1     -50.622  12.835  22.740  0.00  0.00     0.017 A 
ATOM      4  C   UNL d   1     -49.820  13.959  21.832  0.00  0.00     0.092 A 
ATOM      5  C   UNL d   1     -49.382  12.345  23.252  0.00  0.00     0.018 A 
ATOM      6  C   UNL d   1     -50.637  13.923  21.803  0.00  0.00     0.020 A 
ATOM      7  C   UNL d   1     -51.047  13.361  22.257  0.00  0.00     0.003 A 
ATOM      8  C   UNL d   1     -51.032  12.272  23.193  0.00  0.00     0.002 A 
ATOM      9  C   UNL d   1     -49.791  11.791  23.698  0.00  0.00     0.002 A 
ATOM     10  C   UNL d   1     -50.608  11.755  23.669  0.00  0.00     0.000 A 
ENDROOT
BRANCH   1  11
ATOM     11  S   UNL d   1     -48.579  13.469  22.344  0.00  0.00     0.271 S 
ATOM     12  O   UNL d   1     -48.522  12.876  21.471  0.00  0.00    -0.200 OA
ATOM     13  O   UNL d   1     -48.627  13.975  23.090  0.00  0.00    -0.200 OA
BRANCH  11  14
ATOM     14  C   UNL d   1     -47.751  13.505  22.374  0.00  0.00     0.104 A 
ATOM     15  C   UNL d   1     -47.386  14.109  22.801  0.00  0.00     0.014 A 
ATOM     16  C   UNL d   1     -46.569  14.149  22.832  0.00  0.00     0.012 A 
ATOM     17  C   UNL d   1     -46.112  13.590  22.441  0.00  0.00     0.058 A 
ATOM     18  C   UNL d   1     -46.479  12.986  22.014  0.00  0.00     0.012 A 
ATOM     19 CL   UNL d   1     -45.285  13.626  22.470  0.00  0.00    -0.082 Cl
ATOM     20  C   UNL d   1     -47.306  12.950  21.984  0.00  0.00     0.014 A 
ENDBRANCH  11  14
ENDBRANCH   1  11
TORSDOF 2
ENDMDL
MODEL 2
REMARK VINA RESULT:      -8.6      1.934      3.376
REMARK  2 active torsions:
REMARK  status: ('A' for Active; 'I' for Inactive)
REMARK    1  A    between atoms: N_2  and  S_1 
REMARK    2  A    between atoms: C_4  and  S_1 
ROOT
ATOM      1  N   UNL d   1     -47.232  13.386  22.543  0.00  0.00    -0.231 N 
ATOM      2  C   UNL d   1     -47.093  12.665  22.930  0.00  0.00     0.075 A 
ATOM      3  C   UNL d   1     -46.332  12.373  22.994  0.00  0.00     0.017 A 
ATOM      4  C   UNL d   1     -46.594  13.809  22.220  0.00  0.00     0.092 A 
ATOM      5  C   UNL d   1     -47.731  12.242  23.253  0.00  0.00     0.018 A 
ATOM      6  C   UNL d   1     -45.833  13.517  22.283  0.00  0.00     0.020 A 
ATOM      7  C   UNL d   1     -45.694  12.795  22.671  0.00  0.00     0.003 A 
ATOM      8  C   UNL d   1     -46.192  11.651  23.381  0.00  0.00     0.002 A 
ATOM      9  C   UNL d   1     -47.588  11.531  23.635  0.00  0.00     0.002 A 
ATOM     10  C   UNL d   1     -46.827  11.238  23.698  0.00  0.00     0.000 A 
ENDROOT
BRANCH   1  11
ATOM     11  S   UNL d   1     -47.994  13.679  22.479  0.00  0.00     0.271 S 
ATOM     12  O   UNL d   1     -48.103  13.195  21.546  0.00  0.00    -0.200 OA
ATOM     13  O   UNL d   1     -47.902  14.093  23.276  0.00  0.00    -0.200 OA
BRANCH  11  14
ATOM     14  C   UNL d   1     -48.766  13.976  22.415  0.00  0.00     0.104 A 
ATOM     15  C   UNL d   1     -49.037  14.525  22.968  0.00  0.00     0.014 A 
ATOM     16  C   UNL d   1     -49.797  14.820  22.908  0.00  0.00     0.012 A 
ATOM     17  C   UNL d   1     -50.291  14.572  22.301  0.00  0.00     0.058 A 
ATOM     18  C   UNL d   1     -50.019  14.022  21.748  0.00  0.00     0.012 A 
ATOM     19 CL   UNL d   1     -51.063  14.868  22.236  0.00  0.00    -0.082 Cl
ATOM     20  C   UNL d   1     -49.248  13.726  21.813  0.00  0.00     0.014 A 
ENDBRANCH  11  14
ENDBRANCH   1  11
TORSDOF 2
ENDMDL
