MODEL 1
REMARK VINA RESULT:      41.3      0.000      0.000
REMARK  3 active torsions:
REMARK  status: ('A' for Active; 'I' for Inactive)
REMARK    1  A    between atoms: C_6  and  N_1 
REMARK    2  A    between atoms: C_5  and  C_6 
REMARK       I    between atoms: N_8  and  C_5 
REMARK    3  A    between atoms: C_10  and  N_8 
ROOT
ATOM      1  C   UNL d   1     -54.772-102.310 -41.265  0.00  0.00     0.297 C 
ATOM      2  N   UNL d   1     -54.841-101.508 -41.460  0.00  0.00    -0.207 NA
ATOM      3  O   UNL d   1     -54.722-102.874 -41.860  0.00  0.00    -0.264 OA
ENDROOT
BRANCH   1   4
ATOM      4  C   UNL d   1     -54.754-102.540 -40.474  0.00  0.00     0.145 C 
BRANCH   4   5
ATOM      5  N   UNL d   1     -54.788-101.974 -39.880  0.00  0.00    -0.282 N 
ATOM      6  C   UNL d   1     -54.830-101.155 -39.984  0.00  0.00     0.183 A 
ATOM      7  N   UNL d   1     -54.854-100.804 -39.238  0.00  0.00    -0.224 NA
ATOM      8  C   UNL d   1     -54.825-101.403 -38.669  0.00  0.00     0.099 A 
ATOM      9  C   UNL d   1     -54.784-102.127 -39.069  0.00  0.00     0.083 A 
ATOM     10  C   UNL d   1     -54.831-101.380 -37.846  0.00  0.00     0.021 A 
ATOM     11  C   UNL d   1     -54.750-102.824 -38.632  0.00  0.00     0.019 A 
ATOM     12  C   UNL d   1     -54.755-102.813 -37.816  0.00  0.00     0.002 A 
ATOM     13  C   UNL d   1     -54.796-102.085 -37.411  0.00  0.00     0.002 A 
ENDBRANCH   4   5
ENDBRANCH   1   4
BRANCH   2  14
ATOM     14  C   UNL d   1     -54.853-101.343 -42.272  0.00  0.00     0.085 A 
ATOM     15  C   UNL d   1     -54.803-100.568 -42.531  0.00  0.00     0.019 A 
ATOM     16  C   UNL d   1     -54.814-100.397 -43.337  0.00  0.00     0.002 A 
ATOM     17  C   UNL d   1     -54.763 -99.615 -43.597  0.00  0.00     0.000 C 
ATOM     18  C   UNL d   1     -54.878-101.019 -43.888  0.00  0.00     0.000 A 
ATOM     19  C   UNL d   1     -54.929-101.796 -43.626  0.00  0.00     0.002 A 
ATOM     20  C   UNL d   1     -54.890-100.854 -44.700  0.00  0.00     0.000 C 
ATOM     21  C   UNL d   1     -54.916-101.962 -42.814  0.00  0.00     0.019 A 
ENDBRANCH   2  14
TORSDOF 3
ENDMDL
