MODEL 1
REMARK VINA RESULT:      32.6      0.000      0.000
REMARK  4 active torsions:
REMARK  status: ('A' for Active; 'I' for Inactive)
REMARK    1  A    between atoms: C_8  and  C_1 
REMARK    2  A    between atoms: N_4  and  C_2 
REMARK       I    between atoms: C_6  and  N_4 
REMARK    3  A    between atoms: C_9  and  C_6 
REMARK    4  A    between atoms: O_16  and  C_8 
ROOT
ATOM      1  C   UNL d   1      14.574  12.991  -0.668  0.00  0.00     0.110 A 
ATOM      2  C   UNL d   1      14.276  13.409  -1.325  0.00  0.00     0.096 A 
ATOM      3  S   UNL d   1      14.991  13.508  -0.245  0.00  0.00    -0.080 SA
ATOM      4  C   UNL d   1      14.516  14.164  -1.286  0.00  0.00     0.024 A 
ATOM      5  C   UNL d   1      14.976  14.254  -0.605  0.00  0.00     0.031 A 
ATOM      6  C   UNL d   1      14.391  14.823  -1.779  0.00  0.00     0.002 A 
ATOM      7  C   UNL d   1      15.304  14.969  -0.412  0.00  0.00     0.006 A 
ATOM      8  C   UNL d   1      14.716  15.537  -1.590  0.00  0.00     0.000 A 
ATOM      9  C   UNL d   1      15.178  15.609  -0.897  0.00  0.00     0.001 A 
ENDROOT
BRANCH   2  10
ATOM     10  N   UNL d   1      13.801  13.087  -1.926  0.00  0.00    -0.207 NA
ATOM     11  C   UNL d   1      14.128  12.970  -2.684  0.00  0.00     0.285 C 
ATOM     12  O   UNL d   1      14.913  13.179  -2.808  0.00  0.00    -0.265 OA
BRANCH  11  13
ATOM     13  C   UNL d   1      13.686  12.656  -3.291  0.00  0.00     0.087 A 
ATOM     14  S   UNL d   1      13.762  11.886  -3.573  0.00  0.00    -0.082 SA
ATOM     15  C   UNL d   1      13.229  11.780  -4.178  0.00  0.00     0.036 A 
ATOM     16  C   UNL d   1      12.815  12.503  -4.271  0.00  0.00     0.008 A 
ATOM     17  C   UNL d   1      13.096  13.033  -3.730  0.00  0.00     0.012 A 
ENDBRANCH  11  13
ENDBRANCH   2  10
BRANCH   1  18
ATOM     18  C   UNL d   1      14.476  12.178  -0.457  0.00  0.00     0.303 C 
ATOM     19  O   UNL d   1      15.131  11.779  -0.164  0.00  0.00    -0.259 OA
BRANCH  18  20
ATOM     20  O   UNL d   1      13.754  11.805  -0.541  0.00  0.00    -0.295 OA
ATOM     21  C   UNL d   1      13.147  11.945  -0.016  0.00  0.00     0.185 C 
ENDBRANCH  18  20
ENDBRANCH   1  18
TORSDOF 4
ENDMDL
MODEL 2
REMARK VINA RESULT:      33.2      1.261      2.480
REMARK  4 active torsions:
REMARK  status: ('A' for Active; 'I' for Inactive)
REMARK    1  A    between atoms: C_8  and  C_1 
REMARK    2  A    between atoms: N_4  and  C_2 
REMARK       I    between atoms: C_6  and  N_4 
REMARK    3  A    between atoms: C_9  and  C_6 
REMARK    4  A    between atoms: O_16  and  C_8 
ROOT
ATOM      1  C   UNL d   1      14.474  14.238  -1.845  0.00  0.00     0.110 A 
ATOM      2  C   UNL d   1      14.390  13.450  -2.106  0.00  0.00     0.096 A 
ATOM      3  S   UNL d   1      14.643  14.202  -1.077  0.00  0.00    -0.080 SA
ATOM      4  C   UNL d   1      14.509  12.958  -1.496  0.00  0.00     0.024 A 
ATOM      5  C   UNL d   1      14.673  13.413  -0.825  0.00  0.00     0.031 A 
ATOM      6  C   UNL d   1      14.496  12.129  -1.428  0.00  0.00     0.002 A 
ATOM      7  C   UNL d   1      14.820  13.065  -0.108  0.00  0.00     0.006 A 
ATOM      8  C   UNL d   1      14.643  11.779  -0.716  0.00  0.00     0.000 A 
ATOM      9  C   UNL d   1      14.807  12.255  -0.048  0.00  0.00     0.001 A 
ENDROOT
BRANCH   2  10
ATOM     10  N   UNL d   1      14.210  13.217  -2.882  0.00  0.00    -0.207 NA
ATOM     11  C   UNL d   1      13.563  12.707  -3.015  0.00  0.00     0.285 C 
ATOM     12  O   UNL d   1      13.127  12.453  -2.366  0.00  0.00    -0.265 OA
BRANCH  11  13
ATOM     13  C   UNL d   1      13.364  12.462  -3.765  0.00  0.00     0.087 A 
ATOM     14  S   UNL d   1      12.826  11.862  -3.932  0.00  0.00    -0.082 SA
ATOM     15  C   UNL d   1      12.775  11.779  -4.739  0.00  0.00     0.036 A 
ATOM     16  C   UNL d   1      13.295  12.343  -5.078  0.00  0.00     0.008 A 
ATOM     17  C   UNL d   1      13.651  12.756  -4.481  0.00  0.00     0.012 A 
ENDBRANCH  11  13
ENDBRANCH   2  10
BRANCH   1  18
ATOM     18  C   UNL d   1      14.401  14.960  -2.279  0.00  0.00     0.303 C 
ATOM     19  O   UNL d   1      13.727  15.064  -2.736  0.00  0.00    -0.259 OA
BRANCH  18  20
ATOM     20  O   UNL d   1      14.982  15.534  -2.243  0.00  0.00    -0.295 OA
ATOM     21  C   UNL d   1      14.805  16.294  -2.008  0.00  0.00     0.185 C 
ENDBRANCH  18  20
ENDBRANCH   1  18
TORSDOF 4
ENDMDL
