MODEL 1
REMARK VINA RESULT:      -8.9      0.000      0.000
REMARK  8 active torsions:
REMARK  status: ('A' for Active; 'I' for Inactive)
REMARK    1  A    between atoms: C_11  and  C_3 
REMARK    2  A    between atoms: C_10  and  C_4 
REMARK    3  A    between atoms: O_18  and  C_10 
REMARK    4  A    between atoms: N_17  and  C_11 
REMARK    5  A    between atoms: C_12  and  C_15 
REMARK    6  A    between atoms: C_15  and  C_23 
REMARK    7  A    between atoms: C_23  and  N_17 
REMARK    8  A    between atoms: C_24  and  O_18 
ROOT
ATOM      1  C   UNL d   1      53.363  32.769  53.686  0.00  0.00     0.035 A 
ATOM      2  C   UNL d   1      53.795  32.095  53.901  0.00  0.00     0.100 A 
ATOM      3  C   UNL d   1      52.681  32.693  53.224  0.00  0.00     0.060 A 
ATOM      4  C   UNL d   1      53.732  33.423  54.002  0.00  0.00     0.088 A 
ATOM      5  O   UNL d   1      54.412  32.340  54.339  0.00  0.00    -0.307 OA
ATOM      6  C   UNL d   1      54.387  33.141  54.408  0.00  0.00     0.105 A 
ATOM      7  C   UNL d   1      52.436  31.944  52.981  0.00  0.00     0.197 A 
ATOM      8  C   UNL d   1      53.539  31.372  53.654  0.00  0.00     0.026 A 
ATOM      9  C   UNL d   1      52.857  31.296  53.192  0.00  0.00     0.041 A 
ATOM     10  O   UNL d   1      51.739  31.867  52.509  0.00  0.00    -0.286 OA
ATOM     11  C   UNL d   1      54.920  33.618  54.813  0.00  0.00     0.027 C 
ATOM     12  C   UNL d   1      53.971  30.697  53.870  0.00  0.00     0.002 A 
ATOM     13  C   UNL d   1      52.613  30.547  52.949  0.00  0.00     0.003 A 
ATOM     14  C   UNL d   1      53.036  29.881  53.160  0.00  0.00     0.000 A 
ATOM     15  C   UNL d   1      53.718  29.956  53.622  0.00  0.00     0.000 A 
ENDROOT
BRANCH   3  16
ATOM     16  C   UNL d   1      52.231  33.388  52.999  0.00  0.00     0.102 C 
BRANCH  16  17
ATOM     17  N   UNL d   1      51.406  33.330  52.852  0.00  0.00    -0.242 NA
BRANCH  17  18
ATOM     18  C   UNL d   1      50.984  33.973  52.618  0.00  0.00     0.105 C 
BRANCH  18  19
ATOM     19  C   UNL d   1      50.206  34.083  52.873  0.00  0.00     0.091 C 
BRANCH  19  20
ATOM     20  C   UNL d   1      49.718  34.637  52.494  0.00  0.00     0.213 C 
ATOM     21  O   UNL d   1      49.569  34.573  51.684  0.00  0.00    -0.644 OA
ATOM     22  O   UNL d   1      49.387  35.250  52.931  0.00  0.00    -0.644 OA
ENDBRANCH  19  20
ENDBRANCH  18  19
ENDBRANCH  17  18
ENDBRANCH  16  17
ENDBRANCH   3  16
BRANCH   4  23
ATOM     23  C   UNL d   1      53.525  34.226  53.950  0.00  0.00     0.302 C 
ATOM     24  O   UNL d   1      53.670  34.650  53.242  0.00  0.00    -0.259 OA
BRANCH  23  25
ATOM     25  O   UNL d   1      53.183  34.611  54.580  0.00  0.00    -0.271 OA
BRANCH  25  26
ATOM     26  C   UNL d   1      53.185  35.421  54.608  0.00  0.00     0.126 C 
ATOM     27  C   UNL d   1      52.724  35.780  55.172  0.00  0.00     0.029 C 
ENDBRANCH  25  26
ENDBRANCH  23  25
ENDBRANCH   4  23
TORSDOF 8
ENDMDL
MODEL 2
REMARK VINA RESULT:      -7.8      1.261      3.709
REMARK  8 active torsions:
REMARK  status: ('A' for Active; 'I' for Inactive)
REMARK    1  A    between atoms: C_11  and  C_3 
REMARK    2  A    between atoms: C_10  and  C_4 
REMARK    3  A    between atoms: O_18  and  C_10 
REMARK    4  A    between atoms: N_17  and  C_11 
REMARK    5  A    between atoms: C_12  and  C_15 
REMARK    6  A    between atoms: C_15  and  C_23 
REMARK    7  A    between atoms: C_23  and  N_17 
REMARK    8  A    between atoms: C_24  and  O_18 
ROOT
ATOM      1  C   UNL d   1      52.639  33.740  53.833  0.00  0.00     0.035 A 
ATOM      2  C   UNL d   1      52.077  34.336  53.702  0.00  0.00     0.100 A 
ATOM      3  C   UNL d   1      52.605  33.037  53.399  0.00  0.00     0.060 A 
ATOM      4  C   UNL d   1      53.153  33.994  54.412  0.00  0.00     0.088 A 
ATOM      5  O   UNL d   1      52.251  34.936  54.195  0.00  0.00    -0.307 OA
ATOM      6  C   UNL d   1      52.899  34.743  54.630  0.00  0.00     0.105 A 
ATOM      7  C   UNL d   1      52.009  32.935  52.837  0.00  0.00     0.197 A 
ATOM      8  C   UNL d   1      51.503  34.217  53.150  0.00  0.00     0.026 A 
ATOM      9  C   UNL d   1      51.469  33.514  52.716  0.00  0.00     0.041 A 
ATOM     10  O   UNL d   1      51.974  32.217  52.394  0.00  0.00    -0.286 OA
ATOM     11  C   UNL d   1      53.263  35.206  55.203  0.00  0.00     0.027 C 
ATOM     12  C   UNL d   1      50.941  34.813  53.019  0.00  0.00     0.002 A 
ATOM     13  C   UNL d   1      50.873  33.412  52.154  0.00  0.00     0.003 A 
ATOM     14  C   UNL d   1      50.318  33.997  52.024  0.00  0.00     0.000 A 
ATOM     15  C   UNL d   1      50.352  34.700  52.458  0.00  0.00     0.000 A 
ENDROOT
BRANCH   3  16
ATOM     16  C   UNL d   1      53.184  32.419  53.530  0.00  0.00     0.102 C 
BRANCH  16  17
ATOM     17  N   UNL d   1      53.046  31.641  53.244  0.00  0.00    -0.242 NA
BRANCH  17  18
ATOM     18  C   UNL d   1      53.368  31.004  53.614  0.00  0.00     0.105 C 
BRANCH  18  19
ATOM     19  C   UNL d   1      53.367  30.261  53.253  0.00  0.00     0.091 C 
BRANCH  19  20
ATOM     20  C   UNL d   1      53.203  29.581  53.700  0.00  0.00     0.213 C 
ATOM     21  O   UNL d   1      53.709  29.357  54.313  0.00  0.00    -0.644 OA
ATOM     22  O   UNL d   1      52.535  29.135  53.528  0.00  0.00    -0.644 OA
ENDBRANCH  19  20
ENDBRANCH  18  19
ENDBRANCH  17  18
ENDBRANCH  16  17
ENDBRANCH   3  16
BRANCH   4  23
ATOM     23  C   UNL d   1      53.810  33.609  54.744  0.00  0.00     0.302 C 
ATOM     24  O   UNL d   1      53.700  33.047  55.356  0.00  0.00    -0.259 OA
BRANCH  23  25
ATOM     25  O   UNL d   1      54.565  33.769  54.484  0.00  0.00    -0.271 OA
BRANCH  25  26
ATOM     26  C   UNL d   1      55.198  33.633  54.971  0.00  0.00     0.126 C 
ATOM     27  C   UNL d   1      55.939  33.792  54.680  0.00  0.00     0.029 C 
ENDBRANCH  25  26
ENDBRANCH  23  25
ENDBRANCH   4  23
TORSDOF 8
ENDMDL
MODEL 3
REMARK VINA RESULT:      -7.2      1.305      3.706
REMARK  8 active torsions:
REMARK  status: ('A' for Active; 'I' for Inactive)
REMARK    1  A    between atoms: C_11  and  C_3 
REMARK    2  A    between atoms: C_10  and  C_4 
REMARK    3  A    between atoms: O_18  and  C_10 
REMARK    4  A    between atoms: N_17  and  C_11 
REMARK    5  A    between atoms: C_12  and  C_15 
REMARK    6  A    between atoms: C_15  and  C_23 
REMARK    7  A    between atoms: C_23  and  N_17 
REMARK    8  A    between atoms: C_24  and  O_18 
ROOT
ATOM      1  C   UNL d   1      52.857  33.695  53.846  0.00  0.00     0.035 A 
ATOM      2  C   UNL d   1      53.256  34.242  54.325  0.00  0.00     0.100 A 
ATOM      3  C   UNL d   1      53.210  32.971  53.660  0.00  0.00     0.060 A 
ATOM      4  C   UNL d   1      52.136  34.014  53.640  0.00  0.00     0.088 A 
ATOM      5  O   UNL d   1      52.783  34.876  54.405  0.00  0.00    -0.307 OA
ATOM      6  C   UNL d   1      52.102  34.753  53.995  0.00  0.00     0.105 A 
ATOM      7  C   UNL d   1      53.961  32.798  53.956  0.00  0.00     0.197 A 
ATOM      8  C   UNL d   1      53.989  34.054  54.604  0.00  0.00     0.026 A 
ATOM      9  C   UNL d   1      54.342  33.330  54.419  0.00  0.00     0.041 A 
ATOM     10  O   UNL d   1      54.322  32.058  53.766  0.00  0.00    -0.286 OA
ATOM     11  C   UNL d   1      51.465  35.268  53.931  0.00  0.00     0.027 C 
ATOM     12  C   UNL d   1      54.388  34.600  55.084  0.00  0.00     0.002 A 
ATOM     13  C   UNL d   1      55.093  33.157  54.714  0.00  0.00     0.003 A 
ATOM     14  C   UNL d   1      55.489  33.693  55.187  0.00  0.00     0.000 A 
ATOM     15  C   UNL d   1      55.135  34.417  55.372  0.00  0.00     0.000 A 
ENDROOT
BRANCH   3  16
ATOM     16  C   UNL d   1      52.801  32.404  53.165  0.00  0.00     0.102 C 
BRANCH  16  17
ATOM     17  N   UNL d   1      53.074  31.611  53.113  0.00  0.00    -0.242 NA
BRANCH  17  18
ATOM     18  C   UNL d   1      52.559  31.005  52.995  0.00  0.00     0.105 C 
BRANCH  18  19
ATOM     19  C   UNL d   1      52.831  30.230  52.911  0.00  0.00     0.091 C 
BRANCH  19  20
ATOM     20  C   UNL d   1      52.464  29.613  53.328  0.00  0.00     0.213 C 
ATOM     21  O   UNL d   1      51.640  29.579  53.376  0.00  0.00    -0.644 OA
ATOM     22  O   UNL d   1      52.926  29.038  53.690  0.00  0.00    -0.644 OA
ENDBRANCH  19  20
ENDBRANCH  18  19
ENDBRANCH  17  18
ENDBRANCH  16  17
ENDBRANCH   3  16
BRANCH   4  23
ATOM     23  C   UNL d   1      51.529  33.694  53.169  0.00  0.00     0.302 C 
ATOM     24  O   UNL d   1      50.984  33.153  53.502  0.00  0.00    -0.259 OA
BRANCH  23  25
ATOM     25  O   UNL d   1      51.456  33.900  52.385  0.00  0.00    -0.271 OA
BRANCH  25  26
ATOM     26  C   UNL d   1      50.726  33.897  52.033  0.00  0.00     0.126 C 
ATOM     27  C   UNL d   1      50.679  34.143  51.261  0.00  0.00     0.029 C 
ENDBRANCH  25  26
ENDBRANCH  23  25
ENDBRANCH   4  23
TORSDOF 8
ENDMDL
MODEL 4
REMARK VINA RESULT:      -7.0      0.783      3.011
REMARK  8 active torsions:
REMARK  status: ('A' for Active; 'I' for Inactive)
REMARK    1  A    between atoms: C_11  and  C_3 
REMARK    2  A    between atoms: C_10  and  C_4 
REMARK    3  A    between atoms: O_18  and  C_10 
REMARK    4  A    between atoms: N_17  and  C_11 
REMARK    5  A    between atoms: C_12  and  C_15 
REMARK    6  A    between atoms: C_15  and  C_23 
REMARK    7  A    between atoms: C_23  and  N_17 
REMARK    8  A    between atoms: C_24  and  O_18 
ROOT
ATOM      1  C   UNL d   1      53.361  32.506  53.795  0.00  0.00     0.035 A 
ATOM      2  C   UNL d   1      54.106  32.549  54.157  0.00  0.00     0.100 A 
ATOM      3  C   UNL d   1      52.853  33.159  53.815  0.00  0.00     0.060 A 
ATOM      4  C   UNL d   1      53.277  31.765  53.467  0.00  0.00     0.088 A 
ATOM      5  O   UNL d   1      54.462  31.846  54.047  0.00  0.00    -0.307 OA
ATOM      6  C   UNL d   1      53.973  31.362  53.632  0.00  0.00     0.105 A 
ATOM      7  C   UNL d   1      53.094  33.849  54.196  0.00  0.00     0.197 A 
ATOM      8  C   UNL d   1      54.323  33.233  54.524  0.00  0.00     0.026 A 
ATOM      9  C   UNL d   1      53.815  33.885  54.544  0.00  0.00     0.041 A 
ATOM     10  O   UNL d   1      52.575  34.516  54.216  0.00  0.00    -0.286 OA
ATOM     11  C   UNL d   1      54.124  30.589  53.400  0.00  0.00     0.027 C 
ATOM     12  C   UNL d   1      55.068  33.276  54.886  0.00  0.00     0.002 A 
ATOM     13  C   UNL d   1      54.056  34.576  54.925  0.00  0.00     0.003 A 
ATOM     14  C   UNL d   1      54.790  34.621  55.282  0.00  0.00     0.000 A 
ATOM     15  C   UNL d   1      55.298  33.969  55.263  0.00  0.00     0.000 A 
ENDROOT
BRANCH   3  16
ATOM     16  C   UNL d   1      52.082  33.118  53.443  0.00  0.00     0.102 C 
BRANCH  16  17
ATOM     17  N   UNL d   1      51.705  33.818  53.171  0.00  0.00    -0.242 NA
BRANCH  17  18
ATOM     18  C   UNL d   1      50.922  33.819  52.989  0.00  0.00     0.105 C 
BRANCH  18  19
ATOM     19  C   UNL d   1      50.632  34.289  52.374  0.00  0.00     0.091 C 
BRANCH  19  20
ATOM     20  C   UNL d   1      49.831  34.504  52.358  0.00  0.00     0.213 C 
ATOM     21  O   UNL d   1      49.488  34.872  53.014  0.00  0.00    -0.644 OA
ATOM     22  O   UNL d   1      49.383  34.350  51.686  0.00  0.00    -0.644 OA
ENDBRANCH  19  20
ENDBRANCH  18  19
ENDBRANCH  17  18
ENDBRANCH  16  17
ENDBRANCH   3  16
BRANCH   4  23
ATOM     23  C   UNL d   1      52.639  31.441  53.045  0.00  0.00     0.302 C 
ATOM     24  O   UNL d   1      52.598  31.532  52.213  0.00  0.00    -0.259 OA
BRANCH  23  25
ATOM     25  O   UNL d   1      52.048  31.033  53.429  0.00  0.00    -0.271 OA
BRANCH  25  26
ATOM     26  C   UNL d   1      51.745  30.357  53.100  0.00  0.00     0.126 C 
ATOM     27  C   UNL d   1      51.192  29.944  53.530  0.00  0.00     0.029 C 
ENDBRANCH  25  26
ENDBRANCH  23  25
ENDBRANCH   4  23
TORSDOF 8
ENDMDL
