MODEL 1
REMARK VINA RESULT:      -8.7      0.000      0.000
REMARK  8 active torsions:
REMARK  status: ('A' for Active; 'I' for Inactive)
REMARK    1  A    between atoms: C_16  and  N_1 
REMARK    2  A    between atoms: S_7  and  C_2 
REMARK       I    between atoms: C_6  and  N_12 
REMARK    3  A    between atoms: C_9  and  C_6 
REMARK    4  A    between atoms: C_13  and  S_7 
REMARK    5  A    between atoms: C_8  and  C_13 
REMARK    6  A    between atoms: N_12  and  C_22 
REMARK    7  A    between atoms: C_22  and  C_16 
REMARK    8  A    between atoms: O_24  and  C_18 
ROOT
ATOM      1  N   UNL d   1      52.396  33.498  53.610  0.00  0.00    -0.302 N 
ATOM      2  C   UNL d   1      53.064  32.342  53.513  0.00  0.00     0.049 A 
ATOM      3  C   UNL d   1      52.380  32.738  53.272  0.00  0.00     0.087 A 
ATOM      4  C   UNL d   1      53.507  32.851  54.001  0.00  0.00     0.024 A 
ATOM      5  C   UNL d   1      53.088  33.569  54.059  0.00  0.00     0.065 A 
ATOM      6  C   UNL d   1      54.223  32.768  54.397  0.00  0.00     0.002 A 
ATOM      7  C   UNL d   1      53.396  34.194  54.514  0.00  0.00     0.018 A 
ATOM      8  C   UNL d   1      54.527  33.381  54.845  0.00  0.00     0.000 A 
ATOM      9  C   UNL d   1      54.109  34.100  54.903  0.00  0.00     0.002 A 
ENDROOT
BRANCH   1  10
ATOM     10  C   UNL d   1      51.819  34.080  53.514  0.00  0.00     0.101 C 
BRANCH  10  11
ATOM     11  C   UNL d   1      51.266  34.019  52.904  0.00  0.00     0.121 C 
BRANCH  11  12
ATOM     12  N   UNL d   1      50.545  34.417  52.955  0.00  0.00    -0.205 NA
ATOM     13  C   UNL d   1      50.072  34.499  52.288  0.00  0.00     0.279 C 
ATOM     14  O   UNL d   1      50.314  34.185  51.564  0.00  0.00    -0.265 OA
BRANCH  13  15
ATOM     15  C   UNL d   1      49.351  34.897  52.339  0.00  0.00     0.058 A 
ATOM     16  C   UNL d   1      48.835  34.912  51.681  0.00  0.00     0.007 A 
ATOM     17  C   UNL d   1      48.114  35.310  51.731  0.00  0.00     0.024 A 
ATOM     18  C   UNL d   1      47.913  35.691  52.440  0.00  0.00     0.094 A 
ATOM     19  C   UNL d   1      48.423  35.675  53.087  0.00  0.00     0.024 A 
ATOM     20  C   UNL d   1      49.135  35.280  53.033  0.00  0.00     0.007 A 
BRANCH  18  21
ATOM     21  O   UNL d   1      47.183  36.098  52.503  0.00  0.00    -0.328 OA
ATOM     22  C   UNL d   1      46.583  36.004  51.938  0.00  0.00     0.181 C 
ENDBRANCH  18  21
ENDBRANCH  13  15
ENDBRANCH  11  12
ENDBRANCH  10  11
ENDBRANCH   1  10
BRANCH   2  23
ATOM     23  S   UNL d   1      53.279  31.571  53.310  0.00  0.00    -0.080 SA
BRANCH  23  24
ATOM     24  C   UNL d   1      52.696  31.016  53.118  0.00  0.00     0.100 C 
BRANCH  24  25
ATOM     25  C   UNL d   1      52.903  30.251  52.899  0.00  0.00     0.303 C 
ATOM     26  O   UNL d   1      53.100  30.089  52.116  0.00  0.00    -0.263 OA
ATOM     27  N   UNL d   1      52.913  29.647  53.461  0.00  0.00    -0.102 N 
ENDBRANCH  24  25
ENDBRANCH  23  24
ENDBRANCH   2  23
TORSDOF 8
ENDMDL
MODEL 2
REMARK VINA RESULT:      -8.6      1.482      2.487
REMARK  8 active torsions:
REMARK  status: ('A' for Active; 'I' for Inactive)
REMARK    1  A    between atoms: C_16  and  N_1 
REMARK    2  A    between atoms: S_7  and  C_2 
REMARK       I    between atoms: C_6  and  N_12 
REMARK    3  A    between atoms: C_9  and  C_6 
REMARK    4  A    between atoms: C_13  and  S_7 
REMARK    5  A    between atoms: C_8  and  C_13 
REMARK    6  A    between atoms: N_12  and  C_22 
REMARK    7  A    between atoms: C_22  and  C_16 
REMARK    8  A    between atoms: O_24  and  C_18 
ROOT
ATOM      1  N   UNL d   1      52.478  32.466  53.187  0.00  0.00    -0.302 N 
ATOM      2  C   UNL d   1      53.643  32.484  53.844  0.00  0.00     0.049 A 
ATOM      3  C   UNL d   1      53.018  32.957  53.585  0.00  0.00     0.087 A 
ATOM      4  C   UNL d   1      53.497  31.699  53.610  0.00  0.00     0.024 A 
ATOM      5  C   UNL d   1      52.771  31.691  53.201  0.00  0.00     0.065 A 
ATOM      6  C   UNL d   1      53.913  30.996  53.708  0.00  0.00     0.002 A 
ATOM      7  C   UNL d   1      52.473  30.977  52.896  0.00  0.00     0.018 A 
ATOM      8  C   UNL d   1      53.622  30.292  53.408  0.00  0.00     0.000 A 
ATOM      9  C   UNL d   1      52.896  30.284  52.999  0.00  0.00     0.002 A 
ENDROOT
BRANCH   1  10
ATOM     10  C   UNL d   1      51.771  32.710  52.837  0.00  0.00     0.101 C 
BRANCH  10  11
ATOM     11  C   UNL d   1      51.483  33.471  52.973  0.00  0.00     0.121 C 
BRANCH  11  12
ATOM     12  N   UNL d   1      50.760  33.705  52.651  0.00  0.00    -0.205 NA
ATOM     13  C   UNL d   1      50.477  34.465  52.785  0.00  0.00     0.279 C 
ATOM     14  O   UNL d   1      50.912  34.998  53.242  0.00  0.00    -0.265 OA
BRANCH  13  15
ATOM     15  C   UNL d   1      49.755  34.700  52.463  0.00  0.00     0.058 A 
ATOM     16  C   UNL d   1      49.214  35.140  52.926  0.00  0.00     0.007 A 
ATOM     17  C   UNL d   1      48.492  35.375  52.605  0.00  0.00     0.024 A 
ATOM     18  C   UNL d   1      48.313  35.168  51.822  0.00  0.00     0.094 A 
ATOM     19  C   UNL d   1      48.847  34.735  51.367  0.00  0.00     0.024 A 
ATOM     20  C   UNL d   1      49.560  34.504  51.689  0.00  0.00     0.007 A 
BRANCH  18  21
ATOM     21  O   UNL d   1      47.582  35.401  51.484  0.00  0.00    -0.328 OA
ATOM     22  C   UNL d   1      47.073  35.928  51.872  0.00  0.00     0.181 C 
ENDBRANCH  18  21
ENDBRANCH  13  15
ENDBRANCH  11  12
ENDBRANCH  10  11
ENDBRANCH   1  10
BRANCH   2  23
ATOM     23  S   UNL d   1      54.306  32.739  54.266  0.00  0.00    -0.080 SA
BRANCH  23  24
ATOM     24  C   UNL d   1      54.276  33.445  54.697  0.00  0.00     0.100 C 
BRANCH  24  25
ATOM     25  C   UNL d   1      54.905  33.670  55.175  0.00  0.00     0.303 C 
ATOM     26  O   UNL d   1      55.567  34.028  54.838  0.00  0.00    -0.263 OA
ATOM     27  N   UNL d   1      54.877  33.539  55.989  0.00  0.00    -0.102 N 
ENDBRANCH  24  25
ENDBRANCH  23  24
ENDBRANCH   2  23
TORSDOF 8
ENDMDL
MODEL 3
REMARK VINA RESULT:      -6.1      1.657      5.489
REMARK  8 active torsions:
REMARK  status: ('A' for Active; 'I' for Inactive)
REMARK    1  A    between atoms: C_16  and  N_1 
REMARK    2  A    between atoms: S_7  and  C_2 
REMARK       I    between atoms: C_6  and  N_12 
REMARK    3  A    between atoms: C_9  and  C_6 
REMARK    4  A    between atoms: C_13  and  S_7 
REMARK    5  A    between atoms: C_8  and  C_13 
REMARK    6  A    between atoms: N_12  and  C_22 
REMARK    7  A    between atoms: C_22  and  C_16 
REMARK    8  A    between atoms: O_24  and  C_18 
ROOT
ATOM      1  N   UNL d   1      52.692  33.645  53.149  0.00  0.00    -0.302 N 
ATOM      2  C   UNL d   1      51.630  34.461  53.140  0.00  0.00     0.049 A 
ATOM      3  C   UNL d   1      51.934  33.761  52.824  0.00  0.00     0.087 A 
ATOM      4  C   UNL d   1      52.194  34.784  53.661  0.00  0.00     0.024 A 
ATOM      5  C   UNL d   1      52.853  34.273  53.664  0.00  0.00     0.065 A 
ATOM      6  C   UNL d   1      52.205  35.460  54.128  0.00  0.00     0.002 A 
ATOM      7  C   UNL d   1      53.513  34.451  54.137  0.00  0.00     0.018 A 
ATOM      8  C   UNL d   1      52.854  35.637  54.595  0.00  0.00     0.000 A 
ATOM      9  C   UNL d   1      53.513  35.126  54.598  0.00  0.00     0.002 A 
ENDROOT
BRANCH   1  10
ATOM     10  C   UNL d   1      53.194  33.012  52.985  0.00  0.00     0.101 C 
BRANCH  10  11
ATOM     11  C   UNL d   1      52.883  32.284  52.754  0.00  0.00     0.121 C 
BRANCH  11  12
ATOM     12  N   UNL d   1      52.980  31.619  53.233  0.00  0.00    -0.205 NA
ATOM     13  C   UNL d   1      52.965  30.867  52.901  0.00  0.00     0.279 C 
ATOM     14  O   UNL d   1      52.854  30.772  52.088  0.00  0.00    -0.265 OA
BRANCH  13  15
ATOM     15  C   UNL d   1      53.062  30.202  53.380  0.00  0.00     0.058 A 
ATOM     16  C   UNL d   1      52.467  29.614  53.403  0.00  0.00     0.007 A 
ATOM     17  C   UNL d   1      52.563  28.949  53.881  0.00  0.00     0.024 A 
ATOM     18  C   UNL d   1      53.254  28.875  54.334  0.00  0.00     0.094 A 
ATOM     19  C   UNL d   1      53.839  29.455  54.310  0.00  0.00     0.024 A 
ATOM     20  C   UNL d   1      53.740  30.111  53.835  0.00  0.00     0.007 A 
BRANCH  18  21
ATOM     21  O   UNL d   1      53.363  28.203  54.824  0.00  0.00    -0.328 OA
ATOM     22  C   UNL d   1      53.431  28.273  55.647  0.00  0.00     0.181 C 
ENDBRANCH  18  21
ENDBRANCH  13  15
ENDBRANCH  11  12
ENDBRANCH  10  11
ENDBRANCH   1  10
BRANCH   2  23
ATOM     23  S   UNL d   1      50.893  34.792  52.973  0.00  0.00    -0.080 SA
BRANCH  23  24
ATOM     24  C   UNL d   1      50.287  34.318  52.666  0.00  0.00     0.100 C 
BRANCH  24  25
ATOM     25  C   UNL d   1      49.572  34.652  52.435  0.00  0.00     0.303 C 
ATOM     26  O   UNL d   1      49.108  35.048  52.990  0.00  0.00    -0.263 OA
ATOM     27  N   UNL d   1      49.319  34.593  51.653  0.00  0.00    -0.102 N 
ENDBRANCH  24  25
ENDBRANCH  23  24
ENDBRANCH   2  23
TORSDOF 8
ENDMDL
