MODEL 1
REMARK VINA RESULT:      34.1      0.000      0.000
REMARK  4 active torsions:
REMARK  status: ('A' for Active; 'I' for Inactive)
REMARK    1  A    between atoms: C_8  and  C_1 
REMARK    2  A    between atoms: S_4  and  N_7 
REMARK    3  A    between atoms: C_14  and  S_4 
REMARK    4  A    between atoms: N_7  and  C_13 
ROOT
ATOM      1  C   UNL d   1     -54.738-101.664 -42.683  0.00  0.00     0.025 A 
ATOM      2  C   UNL d   1     -54.727-100.907 -42.995  0.00  0.00     0.022 A 
ATOM      3  C   UNL d   1     -54.722-100.790 -43.807  0.00  0.00     0.094 A 
ATOM      4  C   UNL d   1     -54.745-102.328 -43.180  0.00  0.00     0.002 A 
ATOM      5  C   UNL d   1     -54.741-102.224 -43.991  0.00  0.00     0.002 A 
ATOM      6  C   UNL d   1     -54.729-101.446 -44.307  0.00  0.00     0.020 A 
ENDROOT
BRANCH   1   7
ATOM      7  C   UNL d   1     -54.743-101.778 -41.862  0.00  0.00     0.112 A 
ATOM      8  S   UNL d   1     -54.777-102.513 -41.470  0.00  0.00    -0.047 SA
ATOM      9  C   UNL d   1     -54.770-102.383 -40.647  0.00  0.00     0.130 A 
ATOM     10  N   UNL d   1     -54.792-102.880 -39.998  0.00  0.00    -0.236 NA
ATOM     11  C   UNL d   1     -54.731-101.553 -40.533  0.00  0.00     0.106 A 
ATOM     12  C   UNL d   1     -54.777-102.572 -39.237  0.00  0.00     0.100 A 
ATOM     13  C   UNL d   1     -54.739-101.757 -39.117  0.00  0.00     0.022 A 
ATOM     14  C   UNL d   1     -54.716-101.247 -39.762  0.00  0.00     0.023 A 
ATOM     15  N   UNL d   1     -54.714-101.182 -41.277  0.00  0.00    -0.237 NA
ENDBRANCH   1   7
BRANCH   3  16
ATOM     16  N   UNL d   1     -54.711-100.035 -44.123  0.00  0.00    -0.158 NA
BRANCH  16  17
ATOM     17  S   UNL d   1     -55.349 -99.765 -44.571  0.00  0.00     0.286 S 
ATOM     18  O   UNL d   1     -55.088 -98.984 -44.476  0.00  0.00    -0.198 OA
ATOM     19  O   UNL d   1     -55.611-100.541 -44.666  0.00  0.00    -0.198 OA
BRANCH  17  20
ATOM     20  C   UNL d   1     -55.986 -99.502 -45.017  0.00  0.00     0.117 C 
ATOM     21  C   UNL d   1     -56.379 -98.805 -44.811  0.00  0.00     0.014 C 
ENDBRANCH  17  20
ENDBRANCH  16  17
ENDBRANCH   3  16
TORSDOF 4
ENDMDL
