MODEL 1
REMARK VINA RESULT:      62.1      0.000      0.000
REMARK  2 active torsions:
REMARK  status: ('A' for Active; 'I' for Inactive)
REMARK    1  A    between atoms: C_2  and  C_1 
REMARK    2  A    between atoms: C_14  and  C_8 
ROOT
ATOM      1  C   UNL d   1     -50.608  25.722  33.587  0.00  0.00     0.106 A 
ATOM      2  C   UNL d   1     -50.056  25.121  33.548  0.00  0.00     0.304 A 
ATOM      3  C   UNL d   1     -51.413  25.537  33.547  0.00  0.00     0.011 A 
ATOM      4  C   UNL d   1     -51.662  24.762  33.468  0.00  0.00     0.023 A 
ATOM      5  O   UNL d   1     -50.288  24.312  33.466  0.00  0.00    -0.273 OA
ATOM      6  C   UNL d   1     -51.110  24.161  33.428  0.00  0.00     0.103 A 
ATOM      7  C   UNL d   1     -52.467  24.577  33.427  0.00  0.00     0.002 A 
ATOM      8  O   UNL d   1     -49.224  25.317  33.590  0.00  0.00    -0.259 OA
ATOM      9  C   UNL d   1     -51.342  23.351  33.347  0.00  0.00     0.025 A 
ATOM     10  C   UNL d   1     -52.720  23.798  33.348  0.00  0.00     0.000 A 
ATOM     11  C   UNL d   1     -52.168  23.197  33.309  0.00  0.00     0.002 A 
ATOM     12  C   UNL d   1     -53.030  25.190  33.468  0.00  0.00     0.000 A 
ATOM     13  C   UNL d   1     -53.525  23.613  33.308  0.00  0.00     0.000 A 
ATOM     14  C   UNL d   1     -53.835  25.012  33.428  0.00  0.00     0.000 A 
ATOM     15  C   UNL d   1     -54.100  24.215  33.347  0.00  0.00     0.000 A 
ENDROOT
BRANCH   1  16
ATOM     16  C   UNL d   1     -50.351  26.505  33.667  0.00  0.00     0.210 A 
ATOM     17  O   UNL d   1     -49.702  26.799  34.084  0.00  0.00    -0.268 OA
ATOM     18  C   UNL d   1     -49.698  27.613  33.983  0.00  0.00     0.204 A 
ATOM     19  N   UNL d   1     -50.331  27.823  33.512  0.00  0.00    -0.121 NA
ATOM     20  N   UNL d   1     -50.742  27.143  33.312  0.00  0.00    -0.121 NA
BRANCH  18  21
ATOM     21  C   UNL d   1     -49.186  28.183  34.269  0.00  0.00     0.043 A 
ATOM     22  C   UNL d   1     -48.645  27.994  34.845  0.00  0.00     0.004 A 
ATOM     23  C   UNL d   1     -48.124  28.567  35.138  0.00  0.00     0.000 A 
ATOM     24  C   UNL d   1     -48.153  29.324  34.848  0.00  0.00     0.000 A 
ATOM     25  C   UNL d   1     -48.704  29.509  34.264  0.00  0.00     0.000 A 
ATOM     26  C   UNL d   1     -49.218  28.944  33.974  0.00  0.00     0.004 A 
ENDBRANCH  18  21
ENDBRANCH   1  16
TORSDOF 2
ENDMDL
