MODEL 1
REMARK VINA RESULT:      34.6      0.000      0.000
REMARK  4 active torsions:
REMARK  status: ('A' for Active; 'I' for Inactive)
REMARK    1  A    between atoms: C_9  and  C_3 
REMARK    2  A    between atoms: C_6  and  C_10 
REMARK    3  A    between atoms: S_8  and  C_9 
REMARK    4  A    between atoms: C_10  and  S_8 
ROOT
ATOM      1  C   UNL d   1      59.545  49.690  49.800  0.00  0.00     0.074 C 
ENDROOT
BRANCH   1   2
ATOM      2  S   UNL d   1      60.015  49.622  50.475  0.00  0.00    -0.083 SA
BRANCH   2   3
ATOM      3  C   UNL d   1      60.737  49.227  50.408  0.00  0.00     0.035 C 
BRANCH   3   4
ATOM      4  C   UNL d   1      60.934  48.674  50.987  0.00  0.00     0.006 A 
ATOM      5  C   UNL d   1      60.825  48.885  51.779  0.00  0.00     0.001 A 
ATOM      6  C   UNL d   1      60.530  49.624  51.997  0.00  0.00     0.000 C 
ATOM      7  C   UNL d   1      61.017  48.340  52.385  0.00  0.00     0.000 A 
ATOM      8  C   UNL d   1      61.310  47.606  52.187  0.00  0.00     0.000 A 
ATOM      9  C   UNL d   1      61.408  47.422  51.394  0.00  0.00     0.000 A 
ATOM     10  C   UNL d   1      61.214  47.970  50.789  0.00  0.00     0.001 A 
ENDBRANCH   3   4
ENDBRANCH   2   3
ENDBRANCH   1   2
BRANCH   1  11
ATOM     11  C   UNL d   1      58.723  49.690  49.870  0.00  0.00     0.169 A 
ATOM     12  N   UNL d   1      58.201  49.677  49.225  0.00  0.00    -0.225 NA
ATOM     13  C   UNL d   1      57.427  49.681  49.542  0.00  0.00     0.101 A 
ATOM     14  C   UNL d   1      57.499  49.697  50.389  0.00  0.00     0.101 A 
ATOM     15  C   UNL d   1      56.683  49.674  49.216  0.00  0.00     0.021 A 
ATOM     16  N   UNL d   1      58.315  49.702  50.567  0.00  0.00    -0.225 NA
ATOM     17  C   UNL d   1      56.820  49.704  50.835  0.00  0.00     0.021 A 
ATOM     18  C   UNL d   1      56.105  49.697  50.508  0.00  0.00     0.002 A 
ATOM     19  C   UNL d   1      56.033  49.681  49.661  0.00  0.00     0.002 A 
ENDBRANCH   1  11
TORSDOF 4
ENDMDL
