MODEL 1
REMARK VINA RESULT:      26.9      0.000      0.000
REMARK  4 active torsions:
REMARK  status: ('A' for Active; 'I' for Inactive)
REMARK    1  A    between atoms: C_7  and  C_1 
REMARK    2  A    between atoms: C_9  and  C_3 
REMARK    3  A    between atoms: O_13  and  C_7 
REMARK    4  A    between atoms: C_18  and  O_13 
ROOT
ATOM      1  C   UNL d   1      45.295 -15.595  37.174  0.00  0.00     0.099 A 
ATOM      2  C   UNL d   1      46.089 -15.431  37.179  0.00  0.00     0.093 A 
ATOM      3  C   UNL d   1      44.748 -15.016  36.897  0.00  0.00     0.093 A 
ATOM      4  C   UNL d   1      45.823 -14.129  36.639  0.00  0.00     0.369 A 
ATOM      5  N   UNL d   1      46.363 -14.681  36.905  0.00  0.00    -0.191 NA
ATOM      6  N   UNL d   1      45.008 -14.298  36.635  0.00  0.00    -0.191 NA
ATOM      7  O   UNL d   1      46.114 -13.390  36.371  0.00  0.00    -0.242 OA
ATOM      8  C   UNL d   1      46.631 -15.987  37.447  0.00  0.00     0.021 C 
ENDROOT
BRANCH   3   9
ATOM      9  C   UNL d   1      43.929 -15.185  36.892  0.00  0.00     0.018 A 
ATOM     10  C   UNL d   1      43.428 -14.828  37.466  0.00  0.00     0.002 A 
ATOM     11  C   UNL d   1      42.624 -14.994  37.462  0.00  0.00     0.000 A 
ATOM     12  C   UNL d   1      42.315 -15.519  36.884  0.00  0.00     0.000 A 
ATOM     13  C   UNL d   1      42.809 -15.859  36.333  0.00  0.00     0.000 A 
ATOM     14  C   UNL d   1      43.624 -15.690  36.338  0.00  0.00     0.002 A 
ENDBRANCH   3   9
BRANCH   1  15
ATOM     15  C   UNL d   1      45.018 -16.338  37.445  0.00  0.00     0.303 C 
ATOM     16  O   UNL d   1      44.799 -16.928  36.913  0.00  0.00    -0.259 OA
BRANCH  15  17
ATOM     17  O   UNL d   1      44.970 -16.469  38.244  0.00  0.00    -0.271 OA
BRANCH  17  18
ATOM     18  C   UNL d   1      45.020 -17.240  38.537  0.00  0.00     0.126 C 
ATOM     19  C   UNL d   1      44.820 -17.398  39.305  0.00  0.00     0.029 C 
ENDBRANCH  17  18
ENDBRANCH  15  17
ENDBRANCH   1  15
TORSDOF 4
ENDMDL
MODEL 2
REMARK VINA RESULT:      28.6      6.773      7.887
REMARK  4 active torsions:
REMARK  status: ('A' for Active; 'I' for Inactive)
REMARK    1  A    between atoms: C_7  and  C_1 
REMARK    2  A    between atoms: C_9  and  C_3 
REMARK    3  A    between atoms: O_13  and  C_7 
REMARK    4  A    between atoms: C_18  and  O_13 
ROOT
ATOM      1  C   UNL d   1      44.704 -14.391  44.558  0.00  0.00     0.099 A 
ATOM      2  C   UNL d   1      44.427 -15.110  44.811  0.00  0.00     0.093 A 
ATOM      3  C   UNL d   1      45.531 -14.282  44.428  0.00  0.00     0.093 A 
ATOM      4  C   UNL d   1      45.765 -15.626  44.814  0.00  0.00     0.369 A 
ATOM      5  N   UNL d   1      44.966 -15.745  44.943  0.00  0.00    -0.191 NA
ATOM      6  N   UNL d   1      46.050 -14.888  44.554  0.00  0.00    -0.191 NA
ATOM      7  O   UNL d   1      46.285 -16.268  44.951  0.00  0.00    -0.242 OA
ATOM      8  C   UNL d   1      43.624 -15.227  44.940  0.00  0.00     0.021 C 
ENDROOT
BRANCH   3   9
ATOM      9  C   UNL d   1      45.817 -13.541  44.167  0.00  0.00     0.018 A 
ATOM     10  C   UNL d   1      45.896 -13.394  43.342  0.00  0.00     0.002 A 
ATOM     11  C   UNL d   1      46.177 -12.666  43.086  0.00  0.00     0.000 A 
ATOM     12  C   UNL d   1      46.381 -12.081  43.653  0.00  0.00     0.000 A 
ATOM     13  C   UNL d   1      46.301 -12.235  44.448  0.00  0.00     0.000 A 
ATOM     14  C   UNL d   1      46.016 -12.972  44.708  0.00  0.00     0.002 A 
ENDBRANCH   3   9
BRANCH   1  15
ATOM     15  C   UNL d   1      44.172 -13.758  44.425  0.00  0.00     0.303 C 
ATOM     16  O   UNL d   1      44.121 -13.129  44.955  0.00  0.00    -0.259 OA
BRANCH  15  17
ATOM     17  O   UNL d   1      43.703 -13.775  43.763  0.00  0.00    -0.271 OA
BRANCH  17  18
ATOM     18  C   UNL d   1      43.137 -13.184  43.647  0.00  0.00     0.126 C 
ATOM     19  C   UNL d   1      43.049 -12.842  42.919  0.00  0.00     0.029 C 
ENDBRANCH  17  18
ENDBRANCH  15  17
ENDBRANCH   1  15
TORSDOF 4
ENDMDL
