MODEL 1
REMARK VINA RESULT:      -3.3      0.000      0.000
REMARK  6 active torsions:
REMARK  status: ('A' for Active; 'I' for Inactive)
REMARK    1  A    between atoms: N_3  and  S_1 
REMARK    2  A    between atoms: C_7  and  S_1 
REMARK    3  A    between atoms: C_2  and  N_3 
REMARK    4  A    between atoms: N_9  and  C_5 
REMARK    5  A    between atoms: C_22  and  N_9 
REMARK    6  A    between atoms: C_21  and  C_22 
ROOT
ATOM      1  C   UNL d   1      58.830  -1.519  29.551  0.00  0.00     0.211 A 
ATOM      2  N   UNL d   1      59.433  -1.407  29.006  0.00  0.00    -0.222 NA
ATOM      3  C   UNL d   1      58.656  -0.932  30.105  0.00  0.00     0.200 A 
ATOM      4  N   UNL d   1      59.097  -0.225  30.107  0.00  0.00    -0.223 NA
ATOM      5  C   UNL d   1      59.864  -0.712  29.010  0.00  0.00     0.101 A 
ATOM      6  C   UNL d   1      59.703  -0.118  29.556  0.00  0.00     0.101 A 
ATOM      7  C   UNL d   1      60.141   0.580  29.554  0.00  0.00     0.021 A 
ATOM      8  C   UNL d   1      60.471  -0.607  28.455  0.00  0.00     0.021 A 
ATOM      9  C   UNL d   1      60.741   0.682  29.004  0.00  0.00     0.002 A 
ATOM     10  C   UNL d   1      60.908   0.093  28.457  0.00  0.00     0.002 A 
ENDROOT
BRANCH   1  11
ATOM     11  N   UNL d   1      58.396  -2.216  29.548  0.00  0.00    -0.136 NA
BRANCH  11  12
ATOM     12  S   UNL d   1      58.761  -2.934  29.161  0.00  0.00     0.287 S 
ATOM     13  O   UNL d   1      58.231  -3.441  28.654  0.00  0.00    -0.198 OA
ATOM     14  O   UNL d   1      57.957  -2.934  28.923  0.00  0.00    -0.198 OA
BRANCH  12  15
ATOM     15  C   UNL d   1      59.522  -3.253  29.165  0.00  0.00     0.105 A 
ATOM     16  C   UNL d   1      59.942  -3.325  29.877  0.00  0.00     0.013 A 
ATOM     17  C   UNL d   1      60.712  -3.647  29.883  0.00  0.00     0.001 A 
ATOM     18  C   UNL d   1      61.122  -3.715  30.589  0.00  0.00     0.000 C 
ATOM     19  C   UNL d   1      61.056  -3.897  29.168  0.00  0.00     0.000 A 
ATOM     20  C   UNL d   1      60.633  -3.824  28.460  0.00  0.00     0.001 A 
ATOM     21  C   UNL d   1      59.872  -3.505  28.455  0.00  0.00     0.013 A 
ENDBRANCH  12  15
ENDBRANCH  11  12
ENDBRANCH   1  11
BRANCH   3  22
ATOM     22  N   UNL d   1      58.047  -1.039  30.660  0.00  0.00    -0.223 NA
BRANCH  22  23
ATOM     23  C   UNL d   1      57.594  -0.389  30.919  0.00  0.00     0.101 C 
BRANCH  23  24
ATOM     24  C   UNL d   1      57.067  -0.479  31.547  0.00  0.00     0.021 A 
ATOM     25  C   UNL d   1      56.773  -1.149  31.938  0.00  0.00     0.028 A 
ATOM     26  C   UNL d   1      56.235  -1.054  32.565  0.00  0.00     0.119 A 
ATOM     27  O   UNL d   1      55.856  -1.604  33.050  0.00  0.00    -0.300 OA
ATOM     28  C   UNL d   1      55.999  -0.299  32.792  0.00  0.00     0.119 A 
ATOM     29  C   UNL d   1      55.381  -1.188  33.580  0.00  0.00     0.304 A 
ATOM     30  O   UNL d   1      55.467  -0.384  33.425  0.00  0.00    -0.300 OA
ATOM     31  C   UNL d   1      56.293   0.363  32.401  0.00  0.00     0.026 A 
ATOM     32  C   UNL d   1      56.825   0.277  31.780  0.00  0.00     0.004 A 
ENDBRANCH  23  24
ENDBRANCH  22  23
ENDBRANCH   3  22
TORSDOF 6
ENDMDL
