MODEL 1
REMARK VINA RESULT:      -7.2      0.000      0.000
REMARK  4 active torsions:
REMARK  status: ('A' for Active; 'I' for Inactive)
REMARK    1  A    between atoms: C_12  and  C_2 
REMARK    2  A    between atoms: C_13  and  C_3 
REMARK    3  A    between atoms: N_8  and  C_6 
REMARK       I    between atoms: C_7  and  N_9 
REMARK    4  A    between atoms: N_9  and  N_8 
ROOT
ATOM      1  C   UNL d   1     -49.844  13.733  22.853  0.00  0.00     0.196 A 
ATOM      2  C   UNL d   1     -49.574  12.937  22.826  0.00  0.00     0.041 A 
ATOM      3  C   UNL d   1     -49.339  14.339  22.989  0.00  0.00     0.041 A 
ATOM      4  C   UNL d   1     -48.760  12.771  22.944  0.00  0.00     0.024 A 
ATOM      5  C   UNL d   1     -48.534  14.190  23.107  0.00  0.00     0.024 A 
ATOM      6  C   UNL d   1     -48.250  13.418  23.085  0.00  0.00     0.103 A 
ATOM      7  O   UNL d   1     -50.670  13.934  22.735  0.00  0.00    -0.287 OA
ENDROOT
BRANCH   6   8
ATOM      8  N   UNL d   1     -47.422  13.257  23.206  0.00  0.00    -0.144 NA
BRANCH   8   9
ATOM      9  N   UNL d   1     -46.849  13.368  22.609  0.00  0.00    -0.087 NA
ATOM     10  C   UNL d   1     -46.043  13.187  22.721  0.00  0.00     0.404 C 
ATOM     11  O   UNL d   1     -45.796  12.884  23.457  0.00  0.00    -0.239 OA
ATOM     12  N   UNL d   1     -45.493  13.308  22.107  0.00  0.00    -0.083 N 
ENDBRANCH   8   9
ENDBRANCH   6   8
BRANCH   3  13
ATOM     13  C   UNL d   1     -49.637  15.109  23.009  0.00  0.00     0.003 C 
ATOM     14  C   UNL d   1     -49.915  15.420  23.698  0.00  0.00     0.000 C 
ATOM     15  C   UNL d   1     -49.648  15.557  22.316  0.00  0.00     0.000 C 
ENDBRANCH   3  13
BRANCH   2  16
ATOM     16  C   UNL d   1     -50.093  12.335  22.687  0.00  0.00     0.003 C 
ATOM     17  C   UNL d   1     -50.291  12.159  21.924  0.00  0.00     0.000 C 
ATOM     18  C   UNL d   1     -50.407  11.919  23.292  0.00  0.00     0.000 C 
ENDBRANCH   2  16
TORSDOF 4
ENDMDL
MODEL 2
REMARK VINA RESULT:      -7.2      0.042      2.080
REMARK  4 active torsions:
REMARK  status: ('A' for Active; 'I' for Inactive)
REMARK    1  A    between atoms: C_12  and  C_2 
REMARK    2  A    between atoms: C_13  and  C_3 
REMARK    3  A    between atoms: N_8  and  C_6 
REMARK       I    between atoms: C_7  and  N_9 
REMARK    4  A    between atoms: N_9  and  N_8 
ROOT
ATOM      1  C   UNL d   1     -49.849  13.726  22.856  0.00  0.00     0.196 A 
ATOM      2  C   UNL d   1     -49.331  14.374  22.998  0.00  0.00     0.041 A 
ATOM      3  C   UNL d   1     -49.577  12.974  22.829  0.00  0.00     0.041 A 
ATOM      4  C   UNL d   1     -48.512  14.231  23.114  0.00  0.00     0.024 A 
ATOM      5  C   UNL d   1     -48.773  12.819  22.942  0.00  0.00     0.024 A 
ATOM      6  C   UNL d   1     -48.248  13.438  23.082  0.00  0.00     0.103 A 
ATOM      7  O   UNL d   1     -50.691  13.841  22.733  0.00  0.00    -0.287 OA
ENDROOT
BRANCH   6   8
ATOM      8  N   UNL d   1     -47.419  13.286  23.199  0.00  0.00    -0.144 NA
BRANCH   8   9
ATOM      9  N   UNL d   1     -46.852  13.390  22.596  0.00  0.00    -0.087 NA
ATOM     10  C   UNL d   1     -46.047  13.201  22.700  0.00  0.00     0.404 C 
ATOM     11  O   UNL d   1     -45.794  12.897  23.433  0.00  0.00    -0.239 OA
ATOM     12  N   UNL d   1     -45.502  13.315  22.079  0.00  0.00    -0.083 N 
ENDBRANCH   8   9
ENDBRANCH   6   8
BRANCH   3  13
ATOM     13  C   UNL d   1     -50.113  12.362  22.687  0.00  0.00     0.003 C 
ATOM     14  C   UNL d   1     -50.324  12.171  21.933  0.00  0.00     0.000 C 
ATOM     15  C   UNL d   1     -50.433  11.948  23.326  0.00  0.00     0.000 C 
ENDBRANCH   3  13
BRANCH   2  16
ATOM     16  C   UNL d   1     -49.617  15.128  23.022  0.00  0.00     0.003 C 
ATOM     17  C   UNL d   1     -49.590  15.577  22.351  0.00  0.00     0.000 C 
ATOM     18  C   UNL d   1     -49.921  15.427  23.696  0.00  0.00     0.000 C 
ENDBRANCH   2  16
TORSDOF 4
ENDMDL
MODEL 3
REMARK VINA RESULT:      -6.4      1.619      3.338
REMARK  4 active torsions:
REMARK  status: ('A' for Active; 'I' for Inactive)
REMARK    1  A    between atoms: C_12  and  C_2 
REMARK    2  A    between atoms: C_13  and  C_3 
REMARK    3  A    between atoms: N_8  and  C_6 
REMARK       I    between atoms: C_7  and  N_9 
REMARK    4  A    between atoms: N_9  and  N_8 
ROOT
ATOM      1  C   UNL d   1     -47.419  12.784  22.921  0.00  0.00     0.196 A 
ATOM      2  C   UNL d   1     -48.244  12.625  22.960  0.00  0.00     0.041 A 
ATOM      3  C   UNL d   1     -47.141  13.533  22.880  0.00  0.00     0.041 A 
ATOM      4  C   UNL d   1     -48.789  13.263  22.958  0.00  0.00     0.024 A 
ATOM      5  C   UNL d   1     -47.666  14.171  22.877  0.00  0.00     0.024 A 
ATOM      6  C   UNL d   1     -48.478  14.038  22.915  0.00  0.00     0.103 A 
ATOM      7  O   UNL d   1     -46.837  12.152  22.922  0.00  0.00    -0.287 OA
ENDROOT
BRANCH   6   8
ATOM      8  N   UNL d   1     -49.025  14.691  22.912  0.00  0.00    -0.144 NA
BRANCH   8   9
ATOM      9  N   UNL d   1     -49.750  14.673  23.324  0.00  0.00    -0.087 NA
ATOM     10  C   UNL d   1     -50.322  15.275  23.253  0.00  0.00     0.404 C 
ATOM     11  O   UNL d   1     -50.167  15.922  22.750  0.00  0.00    -0.239 OA
ATOM     12  N   UNL d   1     -51.038  15.232  23.678  0.00  0.00    -0.083 N 
ENDBRANCH   8   9
ENDBRANCH   6   8
BRANCH   3  13
ATOM     13  C   UNL d   1     -46.324  13.653  22.842  0.00  0.00     0.003 C 
ATOM     14  C   UNL d   1     -45.924  13.935  23.482  0.00  0.00     0.000 C 
ATOM     15  C   UNL d   1     -45.921  13.480  22.143  0.00  0.00     0.000 C 
ENDBRANCH   3  13
BRANCH   2  16
ATOM     16  C   UNL d   1     -48.512  11.865  23.001  0.00  0.00     0.003 C 
ATOM     17  C   UNL d   1     -48.440  11.463  23.698  0.00  0.00     0.000 C 
ATOM     18  C   UNL d   1     -48.844  11.515  22.365  0.00  0.00     0.000 C 
ENDBRANCH   2  16
TORSDOF 4
ENDMDL
MODEL 4
REMARK VINA RESULT:      -6.3      1.642      3.757
REMARK  4 active torsions:
REMARK  status: ('A' for Active; 'I' for Inactive)
REMARK    1  A    between atoms: C_12  and  C_2 
REMARK    2  A    between atoms: C_13  and  C_3 
REMARK    3  A    between atoms: N_8  and  C_6 
REMARK       I    between atoms: C_7  and  N_9 
REMARK    4  A    between atoms: N_9  and  N_8 
ROOT
ATOM      1  C   UNL d   1     -47.372  12.733  22.885  0.00  0.00     0.196 A 
ATOM      2  C   UNL d   1     -47.088  13.522  22.815  0.00  0.00     0.041 A 
ATOM      3  C   UNL d   1     -48.153  12.577  22.961  0.00  0.00     0.041 A 
ATOM      4  C   UNL d   1     -47.632  14.160  22.824  0.00  0.00     0.024 A 
ATOM      5  C   UNL d   1     -48.701  13.197  22.972  0.00  0.00     0.024 A 
ATOM      6  C   UNL d   1     -48.444  13.976  22.904  0.00  0.00     0.103 A 
ATOM      7  O   UNL d   1     -46.839  12.060  22.880  0.00  0.00    -0.287 OA
ENDROOT
BRANCH   6   8
ATOM      8  N   UNL d   1     -49.003  14.619  22.914  0.00  0.00    -0.144 NA
BRANCH   8   9
ATOM      9  N   UNL d   1     -49.760  14.563  22.568  0.00  0.00    -0.087 NA
ATOM     10  C   UNL d   1     -50.314  15.185  22.599  0.00  0.00     0.404 C 
ATOM     11  O   UNL d   1     -50.107  15.892  22.989  0.00  0.00    -0.239 OA
ATOM     12  N   UNL d   1     -51.064  15.102  22.244  0.00  0.00    -0.083 N 
ENDBRANCH   8   9
ENDBRANCH   6   8
BRANCH   3  13
ATOM     13  C   UNL d   1     -48.397  11.791  23.029  0.00  0.00     0.003 C 
ATOM     14  C   UNL d   1     -48.239  11.371  23.698  0.00  0.00     0.000 C 
ATOM     15  C   UNL d   1     -48.805  11.438  22.403  0.00  0.00     0.000 C 
ENDBRANCH   3  13
BRANCH   2  16
ATOM     16  C   UNL d   1     -46.298  13.666  22.739  0.00  0.00     0.003 C 
ATOM     17  C   UNL d   1     -45.921  14.086  23.317  0.00  0.00     0.000 C 
ATOM     18  C   UNL d   1     -45.893  13.399  22.105  0.00  0.00     0.000 C 
ENDBRANCH   2  16
TORSDOF 4
ENDMDL
MODEL 5
REMARK VINA RESULT:      -5.9      1.988      3.274
REMARK  4 active torsions:
REMARK  status: ('A' for Active; 'I' for Inactive)
REMARK    1  A    between atoms: C_12  and  C_2 
REMARK    2  A    between atoms: C_13  and  C_3 
REMARK    3  A    between atoms: N_8  and  C_6 
REMARK       I    between atoms: C_7  and  N_9 
REMARK    4  A    between atoms: N_9  and  N_8 
ROOT
ATOM      1  C   UNL d   1     -47.676  12.882  22.868  0.00  0.00     0.196 A 
ATOM      2  C   UNL d   1     -46.970  13.340  22.885  0.00  0.00     0.041 A 
ATOM      3  C   UNL d   1     -47.670  12.102  23.044  0.00  0.00     0.041 A 
ATOM      4  C   UNL d   1     -46.244  12.973  23.091  0.00  0.00     0.024 A 
ATOM      5  C   UNL d   1     -46.962  11.728  23.249  0.00  0.00     0.024 A 
ATOM      6  C   UNL d   1     -46.260  12.157  23.272  0.00  0.00     0.103 A 
ATOM      7  O   UNL d   1     -48.434  13.229  22.661  0.00  0.00    -0.287 OA
ENDROOT
BRANCH   6   8
ATOM      8  N   UNL d   1     -45.526  11.778  23.482  0.00  0.00    -0.144 NA
BRANCH   8   9
ATOM      9  N   UNL d   1     -45.449  10.950  23.544  0.00  0.00    -0.087 NA
ATOM     10  C   UNL d   1     -44.711  10.574  23.638  0.00  0.00     0.404 C 
ATOM     11  O   UNL d   1     -44.021  11.041  23.671  0.00  0.00    -0.239 OA
ATOM     12  N   UNL d   1     -44.663   9.744  23.698  0.00  0.00    -0.083 N 
ENDBRANCH   8   9
ENDBRANCH   6   8
BRANCH   3  13
ATOM     13  C   UNL d   1     -48.382  11.683  23.017  0.00  0.00     0.003 C 
ATOM     14  C   UNL d   1     -48.621  11.330  22.334  0.00  0.00     0.000 C 
ATOM     15  C   UNL d   1     -48.846  11.628  23.698  0.00  0.00     0.000 C 
ENDBRANCH   3  13
BRANCH   2  16
ATOM     16  C   UNL d   1     -46.989  14.126  22.705  0.00  0.00     0.003 C 
ATOM     17  C   UNL d   1     -47.611  14.413  22.276  0.00  0.00     0.000 C 
ATOM     18  C   UNL d   1     -46.405  14.614  22.945  0.00  0.00     0.000 C 
ENDBRANCH   2  16
TORSDOF 4
ENDMDL
MODEL 6
REMARK VINA RESULT:      -5.1      8.504     10.349
REMARK  4 active torsions:
REMARK  status: ('A' for Active; 'I' for Inactive)
REMARK    1  A    between atoms: C_12  and  C_2 
REMARK    2  A    between atoms: C_13  and  C_3 
REMARK    3  A    between atoms: N_8  and  C_6 
REMARK       I    between atoms: C_7  and  N_9 
REMARK    4  A    between atoms: N_9  and  N_8 
ROOT
ATOM      1  C   UNL d   1     -39.582  14.371  17.415  0.00  0.00     0.196 A 
ATOM      2  C   UNL d   1     -40.208  14.926  17.507  0.00  0.00     0.041 A 
ATOM      3  C   UNL d   1     -39.328  13.925  18.029  0.00  0.00     0.041 A 
ATOM      4  C   UNL d   1     -40.574  15.017  18.257  0.00  0.00     0.024 A 
ATOM      5  C   UNL d   1     -39.680  14.004  18.773  0.00  0.00     0.024 A 
ATOM      6  C   UNL d   1     -40.293  14.542  18.885  0.00  0.00     0.103 A 
ATOM      7  O   UNL d   1     -39.188  14.256  16.661  0.00  0.00    -0.287 OA
ENDROOT
BRANCH   6   8
ATOM      8  N   UNL d   1     -40.660  14.629  19.649  0.00  0.00    -0.144 NA
BRANCH   8   9
ATOM      9  N   UNL d   1     -40.423  15.210  20.199  0.00  0.00    -0.087 NA
ATOM     10  C   UNL d   1     -40.820  15.331  20.922  0.00  0.00     0.404 C 
ATOM     11  O   UNL d   1     -41.479  14.855  21.106  0.00  0.00    -0.239 OA
ATOM     12  N   UNL d   1     -40.562  15.919  21.453  0.00  0.00    -0.083 N 
ENDBRANCH   8   9
ENDBRANCH   6   8
BRANCH   3  13
ATOM     13  C   UNL d   1     -38.711  13.390  17.904  0.00  0.00     0.003 C 
ATOM     14  C   UNL d   1     -37.955  13.586  18.101  0.00  0.00     0.000 C 
ATOM     15  C   UNL d   1     -38.877  12.651  17.574  0.00  0.00     0.000 C 
ENDBRANCH   3  13
BRANCH   2  16
ATOM     16  C   UNL d   1     -40.455  15.369  16.880  0.00  0.00     0.003 C 
ATOM     17  C   UNL d   1     -41.202  15.255  16.594  0.00  0.00     0.000 C 
ATOM     18  C   UNL d   1     -39.973  15.911  16.548  0.00  0.00     0.000 C 
ENDBRANCH   2  16
TORSDOF 4
ENDMDL
MODEL 7
REMARK VINA RESULT:      -5.0      8.594     10.255
REMARK  4 active torsions:
REMARK  status: ('A' for Active; 'I' for Inactive)
REMARK    1  A    between atoms: C_12  and  C_2 
REMARK    2  A    between atoms: C_13  and  C_3 
REMARK    3  A    between atoms: N_8  and  C_6 
REMARK       I    between atoms: C_7  and  N_9 
REMARK    4  A    between atoms: N_9  and  N_8 
ROOT
ATOM      1  C   UNL d   1     -39.640  14.375  17.326  0.00  0.00     0.196 A 
ATOM      2  C   UNL d   1     -39.303  13.889  17.925  0.00  0.00     0.041 A 
ATOM      3  C   UNL d   1     -40.250  14.868  17.485  0.00  0.00     0.041 A 
ATOM      4  C   UNL d   1     -39.610  13.921  18.705  0.00  0.00     0.024 A 
ATOM      5  C   UNL d   1     -40.562  14.909  18.249  0.00  0.00     0.024 A 
ATOM      6  C   UNL d   1     -40.247  14.443  18.850  0.00  0.00     0.103 A 
ATOM      7  O   UNL d   1     -39.347  14.364  16.519  0.00  0.00    -0.287 OA
ENDROOT
BRANCH   6   8
ATOM      8  N   UNL d   1     -40.564  14.480  19.639  0.00  0.00    -0.144 NA
BRANCH   8   9
ATOM      9  N   UNL d   1     -40.323  15.054  20.195  0.00  0.00    -0.087 NA
ATOM     10  C   UNL d   1     -40.676  15.127  20.947  0.00  0.00     0.404 C 
ATOM     11  O   UNL d   1     -41.293  14.607  21.155  0.00  0.00    -0.239 OA
ATOM     12  N   UNL d   1     -40.415  15.710  21.482  0.00  0.00    -0.083 N 
ENDBRANCH   8   9
ENDBRANCH   6   8
BRANCH   3  13
ATOM     13  C   UNL d   1     -40.556  15.330  16.873  0.00  0.00     0.003 C 
ATOM     14  C   UNL d   1     -41.306  15.206  16.605  0.00  0.00     0.000 C 
ATOM     15  C   UNL d   1     -40.088  15.922  16.538  0.00  0.00     0.000 C 
ENDBRANCH   3  13
BRANCH   2  16
ATOM     16  C   UNL d   1     -38.688  13.396  17.752  0.00  0.00     0.003 C 
ATOM     17  C   UNL d   1     -37.941  13.702  17.717  0.00  0.00     0.000 C 
ATOM     18  C   UNL d   1     -38.813  12.619  17.619  0.00  0.00     0.000 C 
ENDBRANCH   2  16
TORSDOF 4
ENDMDL
MODEL 8
REMARK VINA RESULT:      -4.7      8.181      9.977
REMARK  4 active torsions:
REMARK  status: ('A' for Active; 'I' for Inactive)
REMARK    1  A    between atoms: C_12  and  C_2 
REMARK    2  A    between atoms: C_13  and  C_3 
REMARK    3  A    between atoms: N_8  and  C_6 
REMARK       I    between atoms: C_7  and  N_9 
REMARK    4  A    between atoms: N_9  and  N_8 
ROOT
ATOM      1  C   UNL d   1     -39.807  14.651  20.784  0.00  0.00     0.196 A 
ATOM      2  C   UNL d   1     -39.090  14.433  20.403  0.00  0.00     0.041 A 
ATOM      3  C   UNL d   1     -40.463  14.832  20.362  0.00  0.00     0.041 A 
ATOM      4  C   UNL d   1     -39.057  14.403  19.565  0.00  0.00     0.024 A 
ATOM      5  C   UNL d   1     -40.446  14.806  19.536  0.00  0.00     0.024 A 
ATOM      6  C   UNL d   1     -39.754  14.595  19.144  0.00  0.00     0.103 A 
ATOM      7  O   UNL d   1     -39.871  14.691  21.639  0.00  0.00    -0.287 OA
ENDROOT
BRANCH   6   8
ATOM      8  N   UNL d   1     -39.729  14.567  18.293  0.00  0.00    -0.144 NA
BRANCH   8   9
ATOM      9  N   UNL d   1     -39.602  15.245  17.823  0.00  0.00    -0.087 NA
ATOM     10  C   UNL d   1     -39.560  15.213  16.991  0.00  0.00     0.404 C 
ATOM     11  O   UNL d   1     -39.648  14.477  16.610  0.00  0.00    -0.239 OA
ATOM     12  N   UNL d   1     -39.433  15.907  16.547  0.00  0.00    -0.083 N 
ENDBRANCH   8   9
ENDBRANCH   6   8
BRANCH   3  13
ATOM     13  C   UNL d   1     -41.152  15.042  20.768  0.00  0.00     0.003 C 
ATOM     14  C   UNL d   1     -41.676  14.477  21.001  0.00  0.00     0.000 C 
ATOM     15  C   UNL d   1     -41.298  15.838  20.933  0.00  0.00     0.000 C 
ENDBRANCH   3  13
BRANCH   2  16
ATOM     16  C   UNL d   1     -38.435  14.253  20.839  0.00  0.00     0.003 C 
ATOM     17  C   UNL d   1     -37.940  14.851  21.063  0.00  0.00     0.000 C 
ATOM     18  C   UNL d   1     -38.277  13.499  21.046  0.00  0.00     0.000 C 
ENDBRANCH   2  16
TORSDOF 4
ENDMDL
MODEL 9
REMARK VINA RESULT:      -4.5      8.167      9.884
REMARK  4 active torsions:
REMARK  status: ('A' for Active; 'I' for Inactive)
REMARK    1  A    between atoms: C_12  and  C_2 
REMARK    2  A    between atoms: C_13  and  C_3 
REMARK    3  A    between atoms: N_8  and  C_6 
REMARK       I    between atoms: C_7  and  N_9 
REMARK    4  A    between atoms: N_9  and  N_8 
ROOT
ATOM      1  C   UNL d   1     -39.794  14.649  20.755  0.00  0.00     0.196 A 
ATOM      2  C   UNL d   1     -40.528  14.807  20.375  0.00  0.00     0.041 A 
ATOM      3  C   UNL d   1     -39.139  14.465  20.333  0.00  0.00     0.041 A 
ATOM      4  C   UNL d   1     -40.578  14.772  19.538  0.00  0.00     0.024 A 
ATOM      5  C   UNL d   1     -39.174  14.426  19.508  0.00  0.00     0.024 A 
ATOM      6  C   UNL d   1     -39.882  14.577  19.117  0.00  0.00     0.103 A 
ATOM      7  O   UNL d   1     -39.712  14.677  21.609  0.00  0.00    -0.287 OA
ENDROOT
BRANCH   6   8
ATOM      8  N   UNL d   1     -39.925  14.540  18.267  0.00  0.00    -0.144 NA
BRANCH   8   9
ATOM      9  N   UNL d   1     -40.317  15.118  17.809  0.00  0.00    -0.087 NA
ATOM     10  C   UNL d   1     -40.267  15.141  16.978  0.00  0.00     0.404 C 
ATOM     11  O   UNL d   1     -39.809  14.566  16.584  0.00  0.00    -0.239 OA
ATOM     12  N   UNL d   1     -40.669  15.730  16.546  0.00  0.00    -0.083 N 
ENDBRANCH   8   9
ENDBRANCH   6   8
BRANCH   3  13
ATOM     13  C   UNL d   1     -38.435  14.315  20.738  0.00  0.00     0.003 C 
ATOM     14  C   UNL d   1     -38.230  13.561  20.934  0.00  0.00     0.000 C 
ATOM     15  C   UNL d   1     -37.941  14.946  20.939  0.00  0.00     0.000 C 
ENDBRANCH   3  13
BRANCH   2  16
ATOM     16  C   UNL d   1     -41.181  14.991  20.811  0.00  0.00     0.003 C 
ATOM     17  C   UNL d   1     -41.662  14.394  21.066  0.00  0.00     0.000 C 
ATOM     18  C   UNL d   1     -41.352  15.750  20.989  0.00  0.00     0.000 C 
ENDBRANCH   2  16
TORSDOF 4
ENDMDL
