MODEL 1
REMARK VINA RESULT:      61.2      0.000      0.000
REMARK  8 active torsions:
REMARK  status: ('A' for Active; 'I' for Inactive)
REMARK    1  A    between atoms: C_21  and  N_5 
REMARK    2  A    between atoms: S_10  and  C_6 
REMARK    3  A    between atoms: C_17  and  C_7 
REMARK    4  A    between atoms: C_23  and  S_10 
REMARK    5  A    between atoms: C_13  and  C_23 
REMARK       I    between atoms: N_19  and  C_13 
REMARK    6  A    between atoms: C_28  and  N_19 
REMARK    7  A    between atoms: C_24  and  C_21 
REMARK    8  A    between atoms: C_27  and  C_28 
ROOT
ATOM      1  C   UNL d   1      46.049 -18.536  41.977  0.00  0.00     0.081 A 
ATOM      2  C   UNL d   1      45.765 -17.841  41.701  0.00  0.00     0.117 A 
ATOM      3  N   UNL d   1      45.709 -17.659  40.870  0.00  0.00    -0.215 NA
ATOM      4  C   UNL d   1      46.304 -19.112  41.402  0.00  0.00     0.268 A 
ATOM      5  N   UNL d   1      46.260 -18.960  40.597  0.00  0.00    -0.253 N 
ATOM      6  C   UNL d   1      45.946 -18.193  40.327  0.00  0.00     0.182 A 
ATOM      7  C   UNL d   1      46.030 -18.538  42.790  0.00  0.00     0.013 A 
ATOM      8  S   UNL d   1      45.548 -17.361  42.358  0.00  0.00    -0.067 SA
ATOM      9  C   UNL d   1      45.720 -17.812  43.037  0.00  0.00     0.037 A 
ATOM     10  O   UNL d   1      46.609 -19.857  41.642  0.00  0.00    -0.267 OA
ENDROOT
BRANCH   6  11
ATOM     11  S   UNL d   1      45.891 -18.015  39.511  0.00  0.00    -0.044 SA
BRANCH  11  12
ATOM     12  C   UNL d   1      45.537 -17.350  39.245  0.00  0.00     0.101 C 
BRANCH  12  13
ATOM     13  C   UNL d   1      44.925 -17.362  38.753  0.00  0.00     0.286 C 
ATOM     14  N   UNL d   1      44.901 -17.004  38.029  0.00  0.00    -0.206 NA
ATOM     15  O   UNL d   1      44.259 -17.761  38.978  0.00  0.00    -0.265 OA
BRANCH  14  16
ATOM     16  C   UNL d   1      45.612 -16.605  37.843  0.00  0.00     0.102 C 
BRANCH  16  17
ATOM     17  C   UNL d   1      45.528 -15.849  37.442  0.00  0.00     0.021 A 
ATOM     18  C   UNL d   1      46.163 -15.290  37.402  0.00  0.00     0.028 A 
ATOM     19  C   UNL d   1      46.068 -14.596  37.027  0.00  0.00     0.119 A 
ATOM     20  O   UNL d   1      46.599 -13.973  36.917  0.00  0.00    -0.300 OA
ATOM     21  C   UNL d   1      45.355 -14.400  36.669  0.00  0.00     0.119 A 
ATOM     22  C   UNL d   1      46.179 -13.411  36.488  0.00  0.00     0.304 A 
ATOM     23  O   UNL d   1      45.418 -13.671  36.336  0.00  0.00    -0.300 OA
ATOM     24  C   UNL d   1      44.704 -14.946  36.698  0.00  0.00     0.026 A 
ATOM     25  C   UNL d   1      44.812 -15.648  37.081  0.00  0.00     0.004 A 
ENDBRANCH  16  17
ENDBRANCH  14  16
ENDBRANCH  12  13
ENDBRANCH  11  12
ENDBRANCH   6  11
BRANCH   5  26
ATOM     26  C   UNL d   1      46.535 -19.588  40.098  0.00  0.00     0.085 C 
BRANCH  26  27
ATOM     27  C   UNL d   1      45.990 -20.150  39.746  0.00  0.00     0.019 C 
ATOM     28  C   UNL d   1      46.070 -20.315  38.940  0.00  0.00     0.002 C 
ENDBRANCH  26  27
ENDBRANCH   5  26
BRANCH   7  29
ATOM     29  C   UNL d   1      46.155 -18.880  43.496  0.00  0.00     0.001 A 
ATOM     30  C   UNL d   1      45.967 -18.557  44.232  0.00  0.00     0.000 A 
ATOM     31  C   UNL d   1      46.093 -18.900  44.938  0.00  0.00     0.000 A 
ATOM     32  C   UNL d   1      46.445 -19.650  44.945  0.00  0.00     0.000 A 
ATOM     33  C   UNL d   1      46.647 -20.002  44.228  0.00  0.00     0.000 A 
ATOM     34  C   UNL d   1      46.504 -19.622  43.509  0.00  0.00     0.000 A 
ENDBRANCH   7  29
TORSDOF 8
ENDMDL
