MODEL 1
REMARK VINA RESULT:      58.5      0.000      0.000
REMARK  4 active torsions:
REMARK  status: ('A' for Active; 'I' for Inactive)
REMARK    1  A    between atoms: N_7  and  C_1 
REMARK    2  A    between atoms: C_11  and  C_2 
REMARK    3  A    between atoms: N_6  and  C_12 
REMARK       I    between atoms: C_8  and  N_7 
REMARK    4  A    between atoms: C_14  and  C_8 
REMARK       I    between atoms: N_26  and  C_11 
ROOT
ATOM      1  N   UNL d   1      45.103 -17.046  38.603  0.00  0.00    -0.201 NA
ATOM      2  C   UNL d   1      45.935 -16.913  39.157  0.00  0.00     0.280 C 
ATOM      3  O   UNL d   1      46.484 -16.452  39.146  0.00  0.00    -0.265 OA
ENDROOT
BRANCH   1   4
ATOM      4  C   UNL d   1      45.081 -16.507  38.045  0.00  0.00     0.119 A 
ATOM      5  C   UNL d   1      44.687 -16.224  37.395  0.00  0.00     0.082 A 
ATOM      6  C   UNL d   1      45.093 -15.564  37.114  0.00  0.00     0.013 A 
ATOM      7  C   UNL d   1      44.954 -15.059  36.480  0.00  0.00     0.001 A 
ATOM      8  C   UNL d   1      45.749 -15.448  37.607  0.00  0.00     0.031 A 
ATOM      9  C   UNL d   1      45.472 -14.429  36.331  0.00  0.00     0.000 A 
ATOM     10  C   UNL d   1      46.123 -14.317  36.825  0.00  0.00     0.001 A 
ATOM     11  C   UNL d   1      46.262 -14.819  37.456  0.00  0.00     0.006 A 
ATOM     12  C   UNL d   1      46.644 -13.691  36.683  0.00  0.00     0.000 C 
ATOM     13  S   UNL d   1      45.742 -16.029  38.182  0.00  0.00    -0.068 SA
BRANCH   5  14
ATOM     14  C   UNL d   1      43.998 -16.547  37.077  0.00  0.00     0.281 C 
ATOM     15  O   UNL d   1      44.004 -17.303  36.747  0.00  0.00    -0.265 OA
ATOM     16  N   UNL d   1      43.297 -16.109  37.089  0.00  0.00    -0.205 NA
ATOM     17  C   UNL d   1      42.604 -16.425  36.773  0.00  0.00     0.123 C 
ENDBRANCH   5  14
ENDBRANCH   1   4
BRANCH   2  18
ATOM     18  C   UNL d   1      46.000 -17.466  39.765  0.00  0.00     0.058 A 
ATOM     19  C   UNL d   1      45.486 -18.107  39.798  0.00  0.00     0.006 A 
ATOM     20  C   UNL d   1      45.550 -18.655  40.401  0.00  0.00     0.018 A 
ATOM     21  C   UNL d   1      46.120 -18.582  40.981  0.00  0.00     0.070 A 
ATOM     22  C   UNL d   1      46.647 -17.932  40.953  0.00  0.00     0.018 A 
ATOM     23  C   UNL d   1      46.592 -17.378  40.356  0.00  0.00     0.006 A 
BRANCH  21  24
ATOM     24  N   UNL d   1      46.181 -19.137  41.587  0.00  0.00    -0.242 N 
ATOM     25  C   UNL d   1      46.425 -19.923  41.476  0.00  0.00     0.267 A 
ATOM     26  C   UNL d   1      46.416 -20.308  42.214  0.00  0.00     0.066 A 
ATOM     27  O   UNL d   1      46.647 -20.277  40.738  0.00  0.00    -0.267 OA
ATOM     28  C   UNL d   1      46.167 -19.756  42.768  0.00  0.00     0.066 A 
ATOM     29  C   UNL d   1      46.024 -19.045  42.392  0.00  0.00     0.267 A 
ATOM     30  O   UNL d   1      45.764 -18.346  42.754  0.00  0.00    -0.267 OA
ENDBRANCH  21  24
ENDBRANCH   2  18
TORSDOF 4
ENDMDL
MODEL 2
REMARK VINA RESULT:      61.3      1.475      5.734
REMARK  4 active torsions:
REMARK  status: ('A' for Active; 'I' for Inactive)
REMARK    1  A    between atoms: N_7  and  C_1 
REMARK    2  A    between atoms: C_11  and  C_2 
REMARK    3  A    between atoms: N_6  and  C_12 
REMARK       I    between atoms: C_8  and  N_7 
REMARK    4  A    between atoms: C_14  and  C_8 
REMARK       I    between atoms: N_26  and  C_11 
ROOT
ATOM      1  N   UNL d   1      46.045 -17.706  40.742  0.00  0.00    -0.201 NA
ATOM      2  C   UNL d   1      45.169 -17.883  40.274  0.00  0.00     0.280 C 
ATOM      3  O   UNL d   1      44.615 -18.325  40.384  0.00  0.00    -0.265 OA
ENDROOT
BRANCH   1   4
ATOM      4  C   UNL d   1      46.101 -18.172  41.360  0.00  0.00     0.119 A 
ATOM      5  C   UNL d   1      46.143 -18.936  41.627  0.00  0.00     0.082 A 
ATOM      6  C   UNL d   1      46.197 -18.920  42.449  0.00  0.00     0.013 A 
ATOM      7  C   UNL d   1      46.254 -19.519  43.011  0.00  0.00     0.001 A 
ATOM      8  C   UNL d   1      46.186 -18.125  42.683  0.00  0.00     0.031 A 
ATOM      9  C   UNL d   1      46.300 -19.328  43.817  0.00  0.00     0.000 A 
ATOM     10  C   UNL d   1      46.289 -18.535  44.044  0.00  0.00     0.001 A 
ATOM     11  C   UNL d   1      46.233 -17.939  43.486  0.00  0.00     0.006 A 
ATOM     12  C   UNL d   1      46.336 -18.337  44.845  0.00  0.00     0.000 C 
ATOM     13  S   UNL d   1      46.127 -17.663  42.012  0.00  0.00    -0.068 SA
BRANCH   5  14
ATOM     14  C   UNL d   1      46.134 -19.610  41.150  0.00  0.00     0.281 C 
ATOM     15  O   UNL d   1      45.620 -20.233  41.317  0.00  0.00    -0.265 OA
ATOM     16  N   UNL d   1      46.644 -19.659  40.502  0.00  0.00    -0.205 NA
ATOM     17  C   UNL d   1      46.640 -20.330  40.021  0.00  0.00     0.123 C 
ENDBRANCH   5  14
ENDBRANCH   1   4
BRANCH   2  18
ATOM     18  C   UNL d   1      45.067 -17.408  39.609  0.00  0.00     0.058 A 
ATOM     19  C   UNL d   1      44.375 -16.975  39.511  0.00  0.00     0.006 A 
ATOM     20  C   UNL d   1      44.274 -16.505  38.850  0.00  0.00     0.018 A 
ATOM     21  C   UNL d   1      44.851 -16.451  38.276  0.00  0.00     0.070 A 
ATOM     22  C   UNL d   1      45.559 -16.890  38.369  0.00  0.00     0.018 A 
ATOM     23  C   UNL d   1      45.671 -17.363  39.024  0.00  0.00     0.006 A 
BRANCH  21  24
ATOM     24  N   UNL d   1      44.745 -15.975  37.611  0.00  0.00    -0.242 N 
ATOM     25  C   UNL d   1      44.004 -15.743  37.318  0.00  0.00     0.267 A 
ATOM     26  C   UNL d   1      44.124 -15.268  36.645  0.00  0.00     0.066 A 
ATOM     27  O   UNL d   1      43.250 -15.952  37.646  0.00  0.00    -0.267 OA
ATOM     28  C   UNL d   1      44.936 -15.214  36.533  0.00  0.00     0.066 A 
ATOM     29  C   UNL d   1      45.315 -15.641  37.116  0.00  0.00     0.267 A 
ATOM     30  O   UNL d   1      46.135 -15.728  37.201  0.00  0.00    -0.267 OA
ENDBRANCH  21  24
ENDBRANCH   2  18
TORSDOF 4
ENDMDL
