MODEL 1
REMARK VINA RESULT:      -2.2      0.000      0.000
REMARK  6 active torsions:
REMARK  status: ('A' for Active; 'I' for Inactive)
REMARK    1  A    between atoms: C_6  and  C_1 
REMARK    2  A    between atoms: C_9  and  N_3 
REMARK    3  A    between atoms: C_17  and  C_9 
REMARK    4  A    between atoms: O_15  and  C_10 
REMARK    5  A    between atoms: O_16  and  C_17 
REMARK    6  A    between atoms: C_18  and  O_16 
ROOT
ATOM      1  C   UNL d   1      32.777  21.071 -21.414  0.00  0.00     0.148 A 
ATOM      2  N   UNL d   1      32.612  20.265 -21.278  0.00  0.00    -0.227 NA
ATOM      3  N   UNL d   1      33.031  21.162 -22.195  0.00  0.00    -0.287 N 
ATOM      4  C   UNL d   1      33.027  20.416 -22.555  0.00  0.00     0.083 A 
ATOM      5  C   UNL d   1      32.770  19.866 -21.990  0.00  0.00     0.099 A 
ATOM      6  C   UNL d   1      33.222  20.154 -23.321  0.00  0.00     0.019 A 
ATOM      7  C   UNL d   1      32.708  19.061 -22.192  0.00  0.00     0.021 A 
ATOM      8  C   UNL d   1      33.161  19.357 -23.519  0.00  0.00     0.002 A 
ATOM      9  C   UNL d   1      32.903  18.809 -22.953  0.00  0.00     0.002 A 
ENDROOT
BRANCH   1  10
ATOM     10  C   UNL d   1      32.699  21.674 -20.857  0.00  0.00     0.035 A 
ATOM     11  C   UNL d   1      33.240  21.734 -20.237  0.00  0.00     0.005 A 
ATOM     12  C   UNL d   1      33.161  22.335 -19.683  0.00  0.00     0.024 A 
ATOM     13  C   UNL d   1      32.545  22.880 -19.740  0.00  0.00     0.094 A 
ATOM     14  C   UNL d   1      31.994  22.820 -20.370  0.00  0.00     0.024 A 
ATOM     15  C   UNL d   1      32.077  22.216 -20.923  0.00  0.00     0.005 A 
BRANCH  13  16
ATOM     16  O   UNL d   1      32.461  23.486 -19.186  0.00  0.00    -0.328 OA
ATOM     17  C   UNL d   1      32.175  23.308 -18.433  0.00  0.00     0.181 C 
ENDBRANCH  13  16
ENDBRANCH   1  10
BRANCH   3  18
ATOM     18  C   UNL d   1      33.214  21.935 -22.405  0.00  0.00     0.108 C 
BRANCH  18  19
ATOM     19  C   UNL d   1      33.168  22.169 -23.193  0.00  0.00     0.142 C 
BRANCH  19  20
ATOM     20  O   UNL d   1      32.904  22.923 -23.383  0.00  0.00    -0.302 OA
BRANCH  20  21
ATOM     21  C   UNL d   1      33.220  23.316 -24.032  0.00  0.00     0.123 C 
ATOM     22  C   UNL d   1      32.738  23.490 -24.681  0.00  0.00     0.029 C 
ENDBRANCH  20  21
ENDBRANCH  19  20
ENDBRANCH  18  19
ENDBRANCH   3  18
TORSDOF 6
ENDMDL
MODEL 2
REMARK VINA RESULT:      -1.3      1.329      3.613
REMARK  6 active torsions:
REMARK  status: ('A' for Active; 'I' for Inactive)
REMARK    1  A    between atoms: C_6  and  C_1 
REMARK    2  A    between atoms: C_9  and  N_3 
REMARK    3  A    between atoms: C_17  and  C_9 
REMARK    4  A    between atoms: O_15  and  C_10 
REMARK    5  A    between atoms: O_16  and  C_17 
REMARK    6  A    between atoms: C_18  and  O_16 
ROOT
ATOM      1  C   UNL d   1      32.557  20.973 -21.757  0.00  0.00     0.148 A 
ATOM      2  N   UNL d   1      32.294  21.083 -20.974  0.00  0.00    -0.227 NA
ATOM      3  N   UNL d   1      32.753  21.709 -22.078  0.00  0.00    -0.287 N 
ATOM      4  C   UNL d   1      32.616  22.286 -21.499  0.00  0.00     0.083 A 
ATOM      5  C   UNL d   1      32.334  21.900 -20.822  0.00  0.00     0.099 A 
ATOM      6  C   UNL d   1      32.706  23.114 -21.490  0.00  0.00     0.019 A 
ATOM      7  C   UNL d   1      32.145  22.340 -20.141  0.00  0.00     0.021 A 
ATOM      8  C   UNL d   1      32.519  23.548 -20.815  0.00  0.00     0.002 A 
ATOM      9  C   UNL d   1      32.237  23.160 -20.139  0.00  0.00     0.002 A 
ENDROOT
BRANCH   1  10
ATOM     10  C   UNL d   1      32.610  20.247 -22.145  0.00  0.00     0.035 A 
ATOM     11  C   UNL d   1      32.093  20.072 -22.763  0.00  0.00     0.005 A 
ATOM     12  C   UNL d   1      32.147  19.349 -23.148  0.00  0.00     0.024 A 
ATOM     13  C   UNL d   1      32.714  18.795 -22.922  0.00  0.00     0.094 A 
ATOM     14  C   UNL d   1      33.241  18.972 -22.293  0.00  0.00     0.024 A 
ATOM     15  C   UNL d   1      33.183  19.698 -21.910  0.00  0.00     0.005 A 
BRANCH  13  16
ATOM     16  O   UNL d   1      32.773  18.066 -23.306  0.00  0.00    -0.328 OA
ATOM     17  C   UNL d   1      33.008  17.402 -22.877  0.00  0.00     0.181 C 
ENDBRANCH  13  16
ENDBRANCH   1  10
BRANCH   3  18
ATOM     18  C   UNL d   1      33.022  21.682 -22.853  0.00  0.00     0.108 C 
BRANCH  18  19
ATOM     19  C   UNL d   1      33.101  22.377 -23.287  0.00  0.00     0.142 C 
BRANCH  19  20
ATOM     20  O   UNL d   1      33.192  22.345 -24.102  0.00  0.00    -0.302 OA
BRANCH  20  21
ATOM     21  C   UNL d   1      33.241  23.041 -24.536  0.00  0.00     0.123 C 
ATOM     22  C   UNL d   1      32.597  23.285 -24.995  0.00  0.00     0.029 C 
ENDBRANCH  20  21
ENDBRANCH  19  20
ENDBRANCH  18  19
ENDBRANCH   3  18
TORSDOF 6
ENDMDL
MODEL 3
REMARK VINA RESULT:      -1.1      1.649      4.039
REMARK  6 active torsions:
REMARK  status: ('A' for Active; 'I' for Inactive)
REMARK    1  A    between atoms: C_6  and  C_1 
REMARK    2  A    between atoms: C_9  and  N_3 
REMARK    3  A    between atoms: C_17  and  C_9 
REMARK    4  A    between atoms: O_15  and  C_10 
REMARK    5  A    between atoms: O_16  and  C_17 
REMARK    6  A    between atoms: C_18  and  O_16 
ROOT
ATOM      1  C   UNL d   1      32.776  19.846 -22.434  0.00  0.00     0.148 A 
ATOM      2  N   UNL d   1      32.681  19.892 -21.606  0.00  0.00    -0.227 NA
ATOM      3  N   UNL d   1      32.949  20.600 -22.725  0.00  0.00    -0.287 N 
ATOM      4  C   UNL d   1      32.963  21.124 -22.084  0.00  0.00     0.083 A 
ATOM      5  C   UNL d   1      32.799  20.689 -21.398  0.00  0.00     0.099 A 
ATOM      6  C   UNL d   1      33.104  21.944 -22.024  0.00  0.00     0.019 A 
ATOM      7  C   UNL d   1      32.776  21.070 -20.658  0.00  0.00     0.021 A 
ATOM      8  C   UNL d   1      33.080  22.319 -21.291  0.00  0.00     0.002 A 
ATOM      9  C   UNL d   1      32.916  21.881 -20.607  0.00  0.00     0.002 A 
ENDROOT
BRANCH   1  10
ATOM     10  C   UNL d   1      32.708  19.157 -22.883  0.00  0.00     0.035 A 
ATOM     11  C   UNL d   1      32.109  19.092 -23.447  0.00  0.00     0.005 A 
ATOM     12  C   UNL d   1      32.041  18.407 -23.894  0.00  0.00     0.024 A 
ATOM     13  C   UNL d   1      32.568  17.782 -23.784  0.00  0.00     0.094 A 
ATOM     14  C   UNL d   1      33.178  17.847 -23.212  0.00  0.00     0.024 A 
ATOM     15  C   UNL d   1      33.241  18.536 -22.766  0.00  0.00     0.005 A 
BRANCH  13  16
ATOM     16  O   UNL d   1      32.505  17.090 -24.231  0.00  0.00    -0.328 OA
ATOM     17  C   UNL d   1      31.784  16.691 -24.258  0.00  0.00     0.181 C 
ENDBRANCH  13  16
ENDBRANCH   1  10
BRANCH   3  18
ATOM     18  C   UNL d   1      33.056  20.634 -23.538  0.00  0.00     0.108 C 
BRANCH  18  19
ATOM     19  C   UNL d   1      33.188  21.358 -23.906  0.00  0.00     0.142 C 
BRANCH  19  20
ATOM     20  O   UNL d   1      32.995  21.459 -24.698  0.00  0.00    -0.302 OA
BRANCH  20  21
ATOM     21  C   UNL d   1      33.241  22.134 -25.096  0.00  0.00     0.123 C 
ATOM     22  C   UNL d   1      32.769  22.814 -25.080  0.00  0.00     0.029 C 
ENDBRANCH  20  21
ENDBRANCH  19  20
ENDBRANCH  18  19
ENDBRANCH   3  18
TORSDOF 6
ENDMDL
MODEL 4
REMARK VINA RESULT:       0.4      1.303      3.940
REMARK  6 active torsions:
REMARK  status: ('A' for Active; 'I' for Inactive)
REMARK    1  A    between atoms: C_6  and  C_1 
REMARK    2  A    between atoms: C_9  and  N_3 
REMARK    3  A    between atoms: C_17  and  C_9 
REMARK    4  A    between atoms: O_15  and  C_10 
REMARK    5  A    between atoms: O_16  and  C_17 
REMARK    6  A    between atoms: C_18  and  O_16 
ROOT
ATOM      1  C   UNL d   1      32.816  22.801 -21.401  0.00  0.00     0.148 A 
ATOM      2  N   UNL d   1      33.031  23.406 -20.869  0.00  0.00    -0.227 NA
ATOM      3  N   UNL d   1      32.650  22.115 -20.970  0.00  0.00    -0.287 N 
ATOM      4  C   UNL d   1      32.759  22.285 -20.167  0.00  0.00     0.083 A 
ATOM      5  C   UNL d   1      32.992  23.078 -20.106  0.00  0.00     0.099 A 
ATOM      6  C   UNL d   1      32.678  21.828 -19.474  0.00  0.00     0.019 A 
ATOM      7  C   UNL d   1      33.144  23.411 -19.358  0.00  0.00     0.021 A 
ATOM      8  C   UNL d   1      32.828  22.159 -18.735  0.00  0.00     0.002 A 
ATOM      9  C   UNL d   1      33.062  22.953 -18.677  0.00  0.00     0.002 A 
ENDROOT
BRANCH   1  10
ATOM     10  C   UNL d   1      32.778  22.879 -22.221  0.00  0.00     0.035 A 
ATOM     11  C   UNL d   1      33.235  22.388 -22.702  0.00  0.00     0.005 A 
ATOM     12  C   UNL d   1      33.196  22.465 -23.518  0.00  0.00     0.024 A 
ATOM     13  C   UNL d   1      32.704  23.031 -23.862  0.00  0.00     0.094 A 
ATOM     14  C   UNL d   1      32.239  23.530 -23.374  0.00  0.00     0.024 A 
ATOM     15  C   UNL d   1      32.281  23.448 -22.556  0.00  0.00     0.005 A 
BRANCH  13  16
ATOM     16  O   UNL d   1      32.661  23.114 -24.683  0.00  0.00    -0.328 OA
ATOM     17  C   UNL d   1      32.181  23.702 -25.005  0.00  0.00     0.181 C 
ENDBRANCH  13  16
ENDBRANCH   1  10
BRANCH   3  18
ATOM     18  C   UNL d   1      32.430  21.470 -21.429  0.00  0.00     0.108 C 
BRANCH  18  19
ATOM     19  C   UNL d   1      32.901  20.796 -21.443  0.00  0.00     0.142 C 
BRANCH  19  20
ATOM     20  O   UNL d   1      32.608  20.097 -21.760  0.00  0.00    -0.302 OA
BRANCH  20  21
ATOM     21  C   UNL d   1      33.088  19.431 -21.796  0.00  0.00     0.123 C 
ATOM     22  C   UNL d   1      33.236  19.071 -22.526  0.00  0.00     0.029 C 
ENDBRANCH  20  21
ENDBRANCH  19  20
ENDBRANCH  18  19
ENDBRANCH   3  18
TORSDOF 6
ENDMDL
MODEL 5
REMARK VINA RESULT:       0.6      1.496      4.140
REMARK  6 active torsions:
REMARK  status: ('A' for Active; 'I' for Inactive)
REMARK    1  A    between atoms: C_6  and  C_1 
REMARK    2  A    between atoms: C_9  and  N_3 
REMARK    3  A    between atoms: C_17  and  C_9 
REMARK    4  A    between atoms: O_15  and  C_10 
REMARK    5  A    between atoms: O_16  and  C_17 
REMARK    6  A    between atoms: C_18  and  O_16 
ROOT
ATOM      1  C   UNL d   1      33.136  20.797 -23.332  0.00  0.00     0.148 A 
ATOM      2  N   UNL d   1      33.116  21.148 -24.088  0.00  0.00    -0.227 NA
ATOM      3  N   UNL d   1      33.185  21.394 -22.763  0.00  0.00    -0.287 N 
ATOM      4  C   UNL d   1      33.196  22.123 -23.156  0.00  0.00     0.083 A 
ATOM      5  C   UNL d   1      33.154  21.970 -23.970  0.00  0.00     0.099 A 
ATOM      6  C   UNL d   1      33.238  22.911 -22.890  0.00  0.00     0.019 A 
ATOM      7  C   UNL d   1      33.154  22.602 -24.513  0.00  0.00     0.021 A 
ATOM      8  C   UNL d   1      33.239  23.535 -23.428  0.00  0.00     0.002 A 
ATOM      9  C   UNL d   1      33.196  23.380 -24.241  0.00  0.00     0.002 A 
ENDROOT
BRANCH   1  10
ATOM     10  C   UNL d   1      33.111  19.986 -23.182  0.00  0.00     0.035 A 
ATOM     11  C   UNL d   1      33.241  19.705 -22.418  0.00  0.00     0.005 A 
ATOM     12  C   UNL d   1      33.216  18.898 -22.269  0.00  0.00     0.024 A 
ATOM     13  C   UNL d   1      33.062  18.365 -22.879  0.00  0.00     0.094 A 
ATOM     14  C   UNL d   1      32.930  18.649 -23.657  0.00  0.00     0.024 A 
ATOM     15  C   UNL d   1      32.956  19.459 -23.801  0.00  0.00     0.005 A 
BRANCH  13  16
ATOM     16  O   UNL d   1      33.036  17.552 -22.735  0.00  0.00    -0.328 OA
ATOM     17  C   UNL d   1      32.595  17.067 -23.237  0.00  0.00     0.181 C 
ENDBRANCH  13  16
ENDBRANCH   1  10
BRANCH   3  18
ATOM     18  C   UNL d   1      33.209  21.124 -21.988  0.00  0.00     0.108 C 
BRANCH  18  19
ATOM     19  C   UNL d   1      33.179  21.659 -21.364  0.00  0.00     0.142 C 
BRANCH  19  20
ATOM     20  O   UNL d   1      32.821  21.446 -20.656  0.00  0.00    -0.302 OA
BRANCH  20  21
ATOM     21  C   UNL d   1      32.809  21.976 -20.028  0.00  0.00     0.123 C 
ATOM     22  C   UNL d   1      33.233  21.805 -19.338  0.00  0.00     0.029 C 
ENDBRANCH  20  21
ENDBRANCH  19  20
ENDBRANCH  18  19
ENDBRANCH   3  18
TORSDOF 6
ENDMDL
MODEL 6
REMARK VINA RESULT:       0.7      3.989      6.123
REMARK  6 active torsions:
REMARK  status: ('A' for Active; 'I' for Inactive)
REMARK    1  A    between atoms: C_6  and  C_1 
REMARK    2  A    between atoms: C_9  and  N_3 
REMARK    3  A    between atoms: C_17  and  C_9 
REMARK    4  A    between atoms: O_15  and  C_10 
REMARK    5  A    between atoms: O_16  and  C_17 
REMARK    6  A    between atoms: C_18  and  O_16 
ROOT
ATOM      1  C   UNL d   1      30.580  17.410 -24.281  0.00  0.00     0.148 A 
ATOM      2  N   UNL d   1      29.784  17.638 -24.376  0.00  0.00    -0.227 NA
ATOM      3  N   UNL d   1      30.603  16.612 -24.064  0.00  0.00    -0.287 N 
ATOM      4  C   UNL d   1      29.824  16.335 -24.022  0.00  0.00     0.083 A 
ATOM      5  C   UNL d   1      29.321  16.966 -24.214  0.00  0.00     0.099 A 
ATOM      6  C   UNL d   1      29.494  15.593 -23.835  0.00  0.00     0.019 A 
ATOM      7  C   UNL d   1      28.497  16.855 -24.219  0.00  0.00     0.021 A 
ATOM      8  C   UNL d   1      28.677  15.485 -23.841  0.00  0.00     0.002 A 
ATOM      9  C   UNL d   1      28.177  16.117 -24.033  0.00  0.00     0.002 A 
ENDROOT
BRANCH   1  10
ATOM     10  C   UNL d   1      31.233  17.902 -24.386  0.00  0.00     0.035 A 
ATOM     11  C   UNL d   1      31.773  17.745 -24.990  0.00  0.00     0.005 A 
ATOM     12  C   UNL d   1      32.423  18.235 -25.095  0.00  0.00     0.024 A 
ATOM     13  C   UNL d   1      32.542  18.884 -24.600  0.00  0.00     0.094 A 
ATOM     14  C   UNL d   1      31.994  19.045 -23.985  0.00  0.00     0.024 A 
ATOM     15  C   UNL d   1      31.344  18.550 -23.885  0.00  0.00     0.005 A 
BRANCH  13  16
ATOM     16  O   UNL d   1      33.194  19.381 -24.701  0.00  0.00    -0.328 OA
ATOM     17  C   UNL d   1      33.237  20.083 -24.269  0.00  0.00     0.181 C 
ENDBRANCH  13  16
ENDBRANCH   1  10
BRANCH   3  18
ATOM     18  C   UNL d   1      31.360  16.313 -23.951  0.00  0.00     0.108 C 
BRANCH  18  19
ATOM     19  C   UNL d   1      31.481  15.687 -23.430  0.00  0.00     0.142 C 
BRANCH  19  20
ATOM     20  O   UNL d   1      31.902  15.807 -22.736  0.00  0.00    -0.302 OA
BRANCH  20  21
ATOM     21  C   UNL d   1      32.649  15.474 -22.648  0.00  0.00     0.123 C 
ATOM     22  C   UNL d   1      33.226  15.871 -22.207  0.00  0.00     0.029 C 
ENDBRANCH  20  21
ENDBRANCH  19  20
ENDBRANCH  18  19
ENDBRANCH   3  18
TORSDOF 6
ENDMDL
MODEL 7
REMARK VINA RESULT:       0.8      3.882      5.692
REMARK  6 active torsions:
REMARK  status: ('A' for Active; 'I' for Inactive)
REMARK    1  A    between atoms: C_6  and  C_1 
REMARK    2  A    between atoms: C_9  and  N_3 
REMARK    3  A    between atoms: C_17  and  C_9 
REMARK    4  A    between atoms: O_15  and  C_10 
REMARK    5  A    between atoms: O_16  and  C_17 
REMARK    6  A    between atoms: C_18  and  O_16 
ROOT
ATOM      1  C   UNL d   1      30.656  16.947 -24.363  0.00  0.00     0.148 A 
ATOM      2  N   UNL d   1      30.772  16.230 -24.774  0.00  0.00    -0.227 NA
ATOM      3  N   UNL d   1      31.391  17.234 -24.118  0.00  0.00    -0.287 N 
ATOM      4  C   UNL d   1      31.972  16.702 -24.372  0.00  0.00     0.083 A 
ATOM      5  C   UNL d   1      31.591  16.086 -24.774  0.00  0.00     0.099 A 
ATOM      6  C   UNL d   1      32.802  16.687 -24.295  0.00  0.00     0.019 A 
ATOM      7  C   UNL d   1      32.036  15.461 -25.097  0.00  0.00     0.021 A 
ATOM      8  C   UNL d   1      33.241  16.068 -24.615  0.00  0.00     0.002 A 
ATOM      9  C   UNL d   1      32.857  15.453 -25.017  0.00  0.00     0.002 A 
ENDROOT
BRANCH   1  10
ATOM     10  C   UNL d   1      29.925  17.305 -24.227  0.00  0.00     0.035 A 
ATOM     11  C   UNL d   1      29.654  17.892 -24.739  0.00  0.00     0.005 A 
ATOM     12  C   UNL d   1      28.927  18.249 -24.603  0.00  0.00     0.024 A 
ATOM     13  C   UNL d   1      28.465  18.025 -23.957  0.00  0.00     0.094 A 
ATOM     14  C   UNL d   1      28.740  17.429 -23.436  0.00  0.00     0.024 A 
ATOM     15  C   UNL d   1      29.470  17.074 -23.577  0.00  0.00     0.005 A 
BRANCH  13  16
ATOM     16  O   UNL d   1      27.733  18.381 -23.815  0.00  0.00    -0.328 OA
ATOM     17  C   UNL d   1      27.329  18.207 -23.117  0.00  0.00     0.181 C 
ENDBRANCH  13  16
ENDBRANCH   1  10
BRANCH   3  18
ATOM     18  C   UNL d   1      31.358  17.943 -23.704  0.00  0.00     0.108 C 
BRANCH  18  19
ATOM     19  C   UNL d   1      31.994  18.177 -23.237  0.00  0.00     0.142 C 
BRANCH  19  20
ATOM     20  O   UNL d   1      32.142  18.975 -23.115  0.00  0.00    -0.302 OA
BRANCH  20  21
ATOM     21  C   UNL d   1      32.649  19.209 -22.512  0.00  0.00     0.123 C 
ATOM     22  C   UNL d   1      32.908  19.994 -22.475  0.00  0.00     0.029 C 
ENDBRANCH  20  21
ENDBRANCH  19  20
ENDBRANCH  18  19
ENDBRANCH   3  18
TORSDOF 6
ENDMDL
