MODEL 1
REMARK VINA RESULT:      21.3      0.000      0.000
REMARK  5 active torsions:
REMARK  status: ('A' for Active; 'I' for Inactive)
REMARK    1  A    between atoms: C_8  and  C_1 
REMARK    2  A    between atoms: C_10  and  C_2 
REMARK    3  A    between atoms: N_6  and  C_9 
REMARK    4  A    between atoms: O_19  and  C_8 
REMARK    5  A    between atoms: C_21  and  O_19 
ROOT
ATOM      1  C   UNL d   1      46.381 -18.945  42.892  0.00  0.00     0.099 A 
ATOM      2  C   UNL d   1      46.281 -18.173  42.618  0.00  0.00     0.093 A 
ATOM      3  C   UNL d   1      46.550 -19.563  42.364  0.00  0.00     0.093 A 
ATOM      4  N   UNL d   1      46.354 -18.021  41.802  0.00  0.00    -0.191 NA
ATOM      5  C   UNL d   1      46.523 -18.638  41.274  0.00  0.00     0.369 A 
ATOM      6  N   UNL d   1      46.621 -19.410  41.561  0.00  0.00    -0.191 NA
ATOM      7  O   UNL d   1      46.594 -18.483  40.467  0.00  0.00    -0.242 OA
ATOM      8  C   UNL d   1      46.647 -20.329  42.650  0.00  0.00     0.021 C 
ENDROOT
BRANCH   2   9
ATOM      9  C   UNL d   1      46.113 -17.556  43.139  0.00  0.00     0.018 A 
ATOM     10  C   UNL d   1      46.362 -16.796  42.952  0.00  0.00     0.003 A 
ATOM     11  C   UNL d   1      46.199 -16.176  43.464  0.00  0.00     0.024 A 
ATOM     12  C   UNL d   1      45.782 -16.311  44.171  0.00  0.00     0.127 A 
ATOM     13  C   UNL d   1      45.532 -17.081  44.356  0.00  0.00     0.024 A 
ATOM     14  C   UNL d   1      45.699 -17.701  43.839  0.00  0.00     0.003 A 
BRANCH  12  15
ATOM     15  N   UNL d   1      45.616 -15.691  44.689  0.00  0.00    -0.114 N 
ATOM     16  O   UNL d   1      46.223 -15.193  44.946  0.00  0.00    -0.532 OA
ATOM     17  O   UNL d   1      44.843 -15.568  44.951  0.00  0.00    -0.532 OA
ENDBRANCH  12  15
ENDBRANCH   2   9
BRANCH   1  18
ATOM     18  C   UNL d   1      46.311 -19.104  43.697  0.00  0.00     0.303 C 
ATOM     19  O   UNL d   1      46.486 -18.518  44.250  0.00  0.00    -0.259 OA
BRANCH  18  20
ATOM     20  O   UNL d   1      46.065 -19.849  43.955  0.00  0.00    -0.271 OA
BRANCH  20  21
ATOM     21  C   UNL d   1      45.295 -19.955  44.234  0.00  0.00     0.126 C 
ATOM     22  C   UNL d   1      45.173 -20.327  44.952  0.00  0.00     0.029 C 
ENDBRANCH  20  21
ENDBRANCH  18  20
ENDBRANCH   1  18
TORSDOF 5
ENDMDL
MODEL 2
REMARK VINA RESULT:      22.8      5.790      7.255
REMARK  5 active torsions:
REMARK  status: ('A' for Active; 'I' for Inactive)
REMARK    1  A    between atoms: C_8  and  C_1 
REMARK    2  A    between atoms: C_10  and  C_2 
REMARK    3  A    between atoms: N_6  and  C_9 
REMARK    4  A    between atoms: O_19  and  C_8 
REMARK    5  A    between atoms: C_21  and  O_19 
ROOT
ATOM      1  C   UNL d   1      45.352 -15.689  37.273  0.00  0.00     0.099 A 
ATOM      2  C   UNL d   1      44.865 -15.099  36.963  0.00  0.00     0.093 A 
ATOM      3  C   UNL d   1      46.172 -15.576  37.327  0.00  0.00     0.093 A 
ATOM      4  N   UNL d   1      45.209 -14.385  36.704  0.00  0.00    -0.191 NA
ATOM      5  C   UNL d   1      46.030 -14.272  36.757  0.00  0.00     0.369 A 
ATOM      6  N   UNL d   1      46.509 -14.873  37.070  0.00  0.00    -0.191 NA
ATOM      7  O   UNL d   1      46.366 -13.565  36.499  0.00  0.00    -0.242 OA
ATOM      8  C   UNL d   1      46.647 -16.172  37.638  0.00  0.00     0.021 C 
ENDROOT
BRANCH   2   9
ATOM      9  C   UNL d   1      44.049 -15.206  36.908  0.00  0.00     0.018 A 
ATOM     10  C   UNL d   1      43.553 -14.756  37.384  0.00  0.00     0.003 A 
ATOM     11  C   UNL d   1      42.741 -14.856  37.336  0.00  0.00     0.024 A 
ATOM     12  C   UNL d   1      42.415 -15.411  36.809  0.00  0.00     0.127 A 
ATOM     13  C   UNL d   1      42.919 -15.864  36.331  0.00  0.00     0.024 A 
ATOM     14  C   UNL d   1      43.735 -15.760  36.382  0.00  0.00     0.003 A 
BRANCH  12  15
ATOM     15  N   UNL d   1      41.598 -15.515  36.757  0.00  0.00    -0.114 N 
ATOM     16  O   UNL d   1      41.290 -16.213  36.440  0.00  0.00    -0.532 OA
ATOM     17  O   UNL d   1      41.088 -14.922  37.023  0.00  0.00    -0.532 OA
ENDBRANCH  12  15
ENDBRANCH   2   9
BRANCH   1  18
ATOM     18  C   UNL d   1      45.020 -16.396  37.532  0.00  0.00     0.303 C 
ATOM     19  O   UNL d   1      44.777 -16.963  36.984  0.00  0.00    -0.259 OA
BRANCH  18  20
ATOM     20  O   UNL d   1      44.927 -16.542  38.339  0.00  0.00    -0.271 OA
BRANCH  20  21
ATOM     21  C   UNL d   1      45.025 -17.307  38.634  0.00  0.00     0.126 C 
ATOM     22  C   UNL d   1      44.665 -17.519  39.337  0.00  0.00     0.029 C 
ENDBRANCH  20  21
ENDBRANCH  18  20
ENDBRANCH   1  18
TORSDOF 5
ENDMDL
