MODEL 1
REMARK VINA RESULT:      61.6      0.000      0.000
REMARK  3 active torsions:
REMARK  status: ('A' for Active; 'I' for Inactive)
REMARK    1  A    between atoms: C_6  and  C_1 
REMARK    2  A    between atoms: C_10  and  C_3 
REMARK    3  A    between atoms: C_8  and  N_4 
REMARK       I    between atoms: N_7  and  C_6 
ROOT
ATOM      1  C   UNL d   1      59.806  49.265  50.754  0.00  0.00     0.095 A 
ATOM      2  N   UNL d   1      58.956  49.708  51.811  0.00  0.00    -0.165 NA
ATOM      3  C   UNL d   1      59.703  49.513  51.533  0.00  0.00     0.107 A 
ATOM      4  N   UNL d   1      58.396  49.410  50.532  0.00  0.00    -0.228 N 
ATOM      5  C   UNL d   1      59.150  49.216  50.260  0.00  0.00     0.107 A 
ENDROOT
BRANCH   1   6
ATOM      6  C   UNL d   1      60.559  49.071  50.481  0.00  0.00     0.268 C 
ATOM      7  N   UNL d   1      60.791  48.247  50.436  0.00  0.00    -0.272 N 
ATOM      8  C   UNL d   1      61.570  48.036  50.155  0.00  0.00     0.083 A 
ATOM      9  C   UNL d   1      60.245  47.634  50.671  0.00  0.00     0.083 A 
ATOM     10  C   UNL d   1      61.801  47.216  50.109  0.00  0.00     0.019 A 
ATOM     11  C   UNL d   1      61.252  46.611  50.344  0.00  0.00     0.003 A 
ATOM     12  C   UNL d   1      60.476  46.814  50.625  0.00  0.00     0.019 A 
ATOM     13  O   UNL d   1      61.082  49.652  50.257  0.00  0.00    -0.267 OA
ENDBRANCH   1   6
BRANCH   3  14
ATOM     14  C   UNL d   1      60.356  49.566  52.037  0.00  0.00     0.023 A 
ATOM     15  C   UNL d   1      61.111  49.655  51.716  0.00  0.00     0.022 A 
ATOM     16  C   UNL d   1      61.759  49.707  52.222  0.00  0.00     0.099 A 
ATOM     17  N   UNL d   1      61.654  49.670  53.041  0.00  0.00    -0.242 NA
ATOM     18  C   UNL d   1      60.895  49.581  53.353  0.00  0.00     0.099 A 
ATOM     19  C   UNL d   1      60.248  49.529  52.850  0.00  0.00     0.022 A 
ENDBRANCH   3  14
BRANCH   4  20
ATOM     20  C   UNL d   1      57.643  49.425  50.206  0.00  0.00     0.083 A 
ATOM     21  C   UNL d   1      57.550  49.487  49.396  0.00  0.00     0.019 A 
ATOM     22  C   UNL d   1      56.795  49.502  49.071  0.00  0.00     0.002 A 
ATOM     23  C   UNL d   1      56.129  49.455  49.560  0.00  0.00     0.000 A 
ATOM     24  C   UNL d   1      56.227  49.393  50.381  0.00  0.00     0.002 A 
ATOM     25  C   UNL d   1      56.987  49.378  50.706  0.00  0.00     0.019 A 
ENDBRANCH   4  20
TORSDOF 3
ENDMDL
