MODEL 1
REMARK VINA RESULT:      -8.6      0.000      0.000
REMARK  4 active torsions:
REMARK  status: ('A' for Active; 'I' for Inactive)
REMARK    1  A    between atoms: C_8  and  C_2 
REMARK    2  A    between atoms: C_9  and  N_3 
REMARK    3  A    between atoms: C_12  and  C_9 
REMARK    4  A    between atoms: C_14  and  C_12 
ROOT
ATOM      1  N   UNL d   1     -48.120  12.050  23.316  0.00  0.00    -0.217 NA
ATOM      2  C   UNL d   1     -48.612  12.652  23.054  0.00  0.00     0.149 A 
ATOM      3  N   UNL d   1     -48.292  13.378  22.836  0.00  0.00    -0.290 N 
ATOM      4  C   UNL d   1     -46.987  12.884  23.145  0.00  0.00     0.044 A 
ATOM      5  C   UNL d   1     -47.310  12.156  23.364  0.00  0.00     0.139 A 
ATOM      6  C   UNL d   1     -47.474  13.500  22.879  0.00  0.00     0.068 A 
ATOM      7  S   UNL d   1     -46.822  11.560  23.623  0.00  0.00    -0.057 SA
ATOM      8  C   UNL d   1     -46.176  13.002  23.190  0.00  0.00     0.004 A 
ATOM      9  C   UNL d   1     -47.152  14.217  22.664  0.00  0.00     0.018 A 
ATOM     10  C   UNL d   1     -45.851  13.722  22.974  0.00  0.00     0.000 A 
ATOM     11  C   UNL d   1     -46.355  14.339  22.706  0.00  0.00     0.002 A 
ENDROOT
BRANCH   2  12
ATOM     12  C   UNL d   1     -49.428  12.540  23.007  0.00  0.00     0.035 A 
ATOM     13  C   UNL d   1     -49.782  12.404  22.278  0.00  0.00     0.003 A 
ATOM     14  C   UNL d   1     -50.609  12.291  22.236  0.00  0.00     0.000 A 
ATOM     15  C   UNL d   1     -51.063  12.316  22.926  0.00  0.00     0.000 A 
ATOM     16  C   UNL d   1     -50.697  12.453  23.652  0.00  0.00     0.000 A 
ATOM     17  C   UNL d   1     -49.883  12.565  23.697  0.00  0.00     0.003 A 
ENDBRANCH   2  12
BRANCH   3  18
ATOM     18  C   UNL d   1     -48.789  13.986  22.572  0.00  0.00     0.085 C 
BRANCH  18  19
ATOM     19  C   UNL d   1     -48.722  14.730  22.910  0.00  0.00     0.064 C 
BRANCH  19  20
ATOM     20  C   UNL d   1     -49.123  15.370  22.578  0.00  0.00     0.236 C 
ATOM     21  O   UNL d   1     -49.573  15.863  23.037  0.00  0.00    -0.283 OA
ENDBRANCH  19  20
ENDBRANCH  18  19
ENDBRANCH   3  18
TORSDOF 4
ENDMDL
MODEL 2
REMARK VINA RESULT:      -7.4      1.827      3.800
REMARK  4 active torsions:
REMARK  status: ('A' for Active; 'I' for Inactive)
REMARK    1  A    between atoms: C_8  and  C_2 
REMARK    2  A    between atoms: C_9  and  N_3 
REMARK    3  A    between atoms: C_12  and  C_9 
REMARK    4  A    between atoms: C_14  and  C_12 
ROOT
ATOM      1  N   UNL d   1     -48.349  14.610  22.722  0.00  0.00    -0.217 NA
ATOM      2  C   UNL d   1     -48.090  13.833  22.670  0.00  0.00     0.149 A 
ATOM      3  N   UNL d   1     -48.637  13.219  22.649  0.00  0.00    -0.290 N 
ATOM      4  C   UNL d   1     -49.697  14.173  22.733  0.00  0.00     0.044 A 
ATOM      5  C   UNL d   1     -49.147  14.789  22.754  0.00  0.00     0.139 A 
ATOM      6  C   UNL d   1     -49.448  13.384  22.681  0.00  0.00     0.068 A 
ATOM      7  S   UNL d   1     -49.404  15.558  22.806  0.00  0.00    -0.057 SA
ATOM      8  C   UNL d   1     -50.501  14.340  22.764  0.00  0.00     0.004 A 
ATOM      9  C   UNL d   1     -49.993  12.779  22.660  0.00  0.00     0.018 A 
ATOM     10  C   UNL d   1     -51.050  13.734  22.744  0.00  0.00     0.000 A 
ATOM     11  C   UNL d   1     -50.784  12.938  22.690  0.00  0.00     0.002 A 
ENDROOT
BRANCH   2  12
ATOM     12  C   UNL d   1     -47.284  13.658  22.639  0.00  0.00     0.035 A 
ATOM     13  C   UNL d   1     -46.836  13.665  23.327  0.00  0.00     0.003 A 
ATOM     14  C   UNL d   1     -46.020  13.487  23.289  0.00  0.00     0.000 A 
ATOM     15  C   UNL d   1     -45.672  13.306  22.563  0.00  0.00     0.000 A 
ATOM     16  C   UNL d   1     -46.132  13.303  21.878  0.00  0.00     0.000 A 
ATOM     17  C   UNL d   1     -46.935  13.477  21.911  0.00  0.00     0.003 A 
ENDBRANCH   2  12
BRANCH   3  18
ATOM     18  C   UNL d   1     -48.375  12.434  22.597  0.00  0.00     0.085 C 
BRANCH  18  19
ATOM     19  C   UNL d   1     -48.645  11.887  23.144  0.00  0.00     0.064 C 
BRANCH  19  20
ATOM     20  C   UNL d   1     -48.442  11.091  23.065  0.00  0.00     0.236 C 
ATOM     21  O   UNL d   1     -48.169  10.666  23.698  0.00  0.00    -0.283 OA
ENDBRANCH  19  20
ENDBRANCH  18  19
ENDBRANCH   3  18
TORSDOF 4
ENDMDL
MODEL 3
REMARK VINA RESULT:      -7.1      1.413      2.108
REMARK  4 active torsions:
REMARK  status: ('A' for Active; 'I' for Inactive)
REMARK    1  A    between atoms: C_8  and  C_2 
REMARK    2  A    between atoms: C_9  and  N_3 
REMARK    3  A    between atoms: C_12  and  C_9 
REMARK    4  A    between atoms: C_14  and  C_12 
ROOT
ATOM      1  N   UNL d   1     -49.484  12.598  23.342  0.00  0.00    -0.217 NA
ATOM      2  C   UNL d   1     -49.142  13.336  23.229  0.00  0.00     0.149 A 
ATOM      3  N   UNL d   1     -48.324  13.417  23.259  0.00  0.00    -0.290 N 
ATOM      4  C   UNL d   1     -48.204  12.016  23.515  0.00  0.00     0.044 A 
ATOM      5  C   UNL d   1     -49.026  11.936  23.485  0.00  0.00     0.139 A 
ATOM      6  C   UNL d   1     -47.847  12.755  23.402  0.00  0.00     0.068 A 
ATOM      7  S   UNL d   1     -49.365  11.206  23.597  0.00  0.00    -0.057 SA
ATOM      8  C   UNL d   1     -47.734  11.359  23.658  0.00  0.00     0.004 A 
ATOM      9  C   UNL d   1     -47.036  12.831  23.433  0.00  0.00     0.018 A 
ATOM     10  C   UNL d   1     -46.919  11.432  23.689  0.00  0.00     0.000 A 
ATOM     11  C   UNL d   1     -46.568  12.188  23.573  0.00  0.00     0.002 A 
ENDROOT
BRANCH   2  12
ATOM     12  C   UNL d   1     -49.609  14.001  23.085  0.00  0.00     0.035 A 
ATOM     13  C   UNL d   1     -49.780  14.521  23.696  0.00  0.00     0.003 A 
ATOM     14  C   UNL d   1     -50.253  15.193  23.546  0.00  0.00     0.000 A 
ATOM     15  C   UNL d   1     -50.546  15.328  22.785  0.00  0.00     0.000 A 
ATOM     16  C   UNL d   1     -50.368  14.798  22.178  0.00  0.00     0.000 A 
ATOM     17  C   UNL d   1     -49.902  14.136  22.324  0.00  0.00     0.003 A 
ENDBRANCH   2  12
BRANCH   3  18
ATOM     18  C   UNL d   1     -47.978  14.162  23.145  0.00  0.00     0.085 C 
BRANCH  18  19
ATOM     19  C   UNL d   1     -47.362  14.237  22.609  0.00  0.00     0.064 C 
BRANCH  19  20
ATOM     20  C   UNL d   1     -46.833  14.867  22.676  0.00  0.00     0.236 C 
ATOM     21  O   UNL d   1     -46.911  15.526  22.211  0.00  0.00    -0.283 OA
ENDBRANCH  19  20
ENDBRANCH  18  19
ENDBRANCH   3  18
TORSDOF 4
ENDMDL
MODEL 4
REMARK VINA RESULT:      -7.0      0.922      3.115
REMARK  4 active torsions:
REMARK  status: ('A' for Active; 'I' for Inactive)
REMARK    1  A    between atoms: C_8  and  C_2 
REMARK    2  A    between atoms: C_9  and  N_3 
REMARK    3  A    between atoms: C_12  and  C_9 
REMARK    4  A    between atoms: C_14  and  C_12 
ROOT
ATOM      1  N   UNL d   1     -48.295  12.100  23.275  0.00  0.00    -0.217 NA
ATOM      2  C   UNL d   1     -48.146  12.892  23.119  0.00  0.00     0.149 A 
ATOM      3  N   UNL d   1     -48.761  13.438  23.146  0.00  0.00    -0.290 N 
ATOM      4  C   UNL d   1     -49.667  12.387  23.486  0.00  0.00     0.044 A 
ATOM      5  C   UNL d   1     -49.049  11.840  23.459  0.00  0.00     0.139 A 
ATOM      6  C   UNL d   1     -49.529  13.189  23.330  0.00  0.00     0.068 A 
ATOM      7  S   UNL d   1     -49.197  11.056  23.614  0.00  0.00    -0.057 SA
ATOM      8  C   UNL d   1     -50.427  12.137  23.670  0.00  0.00     0.004 A 
ATOM      9  C   UNL d   1     -50.141  13.727  23.358  0.00  0.00     0.018 A 
ATOM     10  C   UNL d   1     -51.043  12.676  23.698  0.00  0.00     0.000 A 
ATOM     11  C   UNL d   1     -50.890  13.487  23.538  0.00  0.00     0.002 A 
ENDROOT
BRANCH   2  12
ATOM     12  C   UNL d   1     -47.384  13.149  22.934  0.00  0.00     0.035 A 
ATOM     13  C   UNL d   1     -46.921  13.504  23.512  0.00  0.00     0.003 A 
ATOM     14  C   UNL d   1     -46.149  13.763  23.319  0.00  0.00     0.000 A 
ATOM     15  C   UNL d   1     -45.861  13.661  22.553  0.00  0.00     0.000 A 
ATOM     16  C   UNL d   1     -46.335  13.303  21.981  0.00  0.00     0.000 A 
ATOM     17  C   UNL d   1     -47.095  13.047  22.167  0.00  0.00     0.003 A 
ENDBRANCH   2  12
BRANCH   3  18
ATOM     18  C   UNL d   1     -48.610  14.238  22.988  0.00  0.00     0.085 C 
BRANCH  18  19
ATOM     19  C   UNL d   1     -49.142  14.660  22.529  0.00  0.00     0.064 C 
BRANCH  19  20
ATOM     20  C   UNL d   1     -49.065  15.479  22.459  0.00  0.00     0.236 C 
ATOM     21  O   UNL d   1     -49.378  15.873  21.824  0.00  0.00    -0.283 OA
ENDBRANCH  19  20
ENDBRANCH  18  19
ENDBRANCH   3  18
TORSDOF 4
ENDMDL
MODEL 5
REMARK VINA RESULT:      -6.9      1.643      2.842
REMARK  4 active torsions:
REMARK  status: ('A' for Active; 'I' for Inactive)
REMARK    1  A    between atoms: C_8  and  C_2 
REMARK    2  A    between atoms: C_9  and  N_3 
REMARK    3  A    between atoms: C_12  and  C_9 
REMARK    4  A    between atoms: C_14  and  C_12 
ROOT
ATOM      1  N   UNL d   1     -49.847  12.882  23.355  0.00  0.00    -0.217 NA
ATOM      2  C   UNL d   1     -49.074  12.902  23.080  0.00  0.00     0.149 A 
ATOM      3  N   UNL d   1     -48.733  13.620  22.870  0.00  0.00    -0.290 N 
ATOM      4  C   UNL d   1     -49.949  14.288  23.215  0.00  0.00     0.044 A 
ATOM      5  C   UNL d   1     -50.290  13.566  23.426  0.00  0.00     0.139 A 
ATOM      6  C   UNL d   1     -49.169  14.322  22.936  0.00  0.00     0.068 A 
ATOM      7  S   UNL d   1     -51.056  13.546  23.698  0.00  0.00    -0.057 SA
ATOM      8  C   UNL d   1     -50.383  14.982  23.281  0.00  0.00     0.004 A 
ATOM      9  C   UNL d   1     -48.835  15.036  22.728  0.00  0.00     0.018 A 
ATOM     10  C   UNL d   1     -50.049  15.700  23.073  0.00  0.00     0.000 A 
ATOM     11  C   UNL d   1     -49.257  15.721  22.791  0.00  0.00     0.002 A 
ENDROOT
BRANCH   2  12
ATOM     12  C   UNL d   1     -48.632  12.209  23.011  0.00  0.00     0.035 A 
ATOM     13  C   UNL d   1     -48.582  11.825  22.287  0.00  0.00     0.003 A 
ATOM     14  C   UNL d   1     -48.133  11.123  22.223  0.00  0.00     0.000 A 
ATOM     15  C   UNL d   1     -47.744  10.822  22.886  0.00  0.00     0.000 A 
ATOM     16  C   UNL d   1     -47.801  11.216  23.608  0.00  0.00     0.000 A 
ATOM     17  C   UNL d   1     -48.242  11.907  23.675  0.00  0.00     0.003 A 
ENDBRANCH   2  12
BRANCH   3  18
ATOM     18  C   UNL d   1     -47.952  13.641  22.592  0.00  0.00     0.085 C 
BRANCH  18  19
ATOM     19  C   UNL d   1     -47.419  14.158  22.941  0.00  0.00     0.064 C 
BRANCH  19  20
ATOM     20  C   UNL d   1     -46.638  14.184  22.675  0.00  0.00     0.236 C 
ATOM     21  O   UNL d   1     -46.039  14.418  23.168  0.00  0.00    -0.283 OA
ENDBRANCH  19  20
ENDBRANCH  18  19
ENDBRANCH   3  18
TORSDOF 4
ENDMDL
MODEL 6
REMARK VINA RESULT:      -6.3      8.641     10.267
REMARK  4 active torsions:
REMARK  status: ('A' for Active; 'I' for Inactive)
REMARK    1  A    between atoms: C_8  and  C_2 
REMARK    2  A    between atoms: C_9  and  N_3 
REMARK    3  A    between atoms: C_12  and  C_9 
REMARK    4  A    between atoms: C_14  and  C_12 
ROOT
ATOM      1  N   UNL d   1     -38.952  13.881  18.952  0.00  0.00    -0.217 NA
ATOM      2  C   UNL d   1     -39.503  14.456  18.751  0.00  0.00     0.149 A 
ATOM      3  N   UNL d   1     -39.590  14.682  17.965  0.00  0.00    -0.290 N 
ATOM      4  C   UNL d   1     -38.571  13.751  17.594  0.00  0.00     0.044 A 
ATOM      5  C   UNL d   1     -38.485  13.525  18.383  0.00  0.00     0.139 A 
ATOM      6  C   UNL d   1     -39.123  14.330  17.378  0.00  0.00     0.068 A 
ATOM      7  S   UNL d   1     -37.940  12.956  18.583  0.00  0.00    -0.057 SA
ATOM      8  C   UNL d   1     -38.107  13.401  17.014  0.00  0.00     0.004 A 
ATOM      9  C   UNL d   1     -39.207  14.551  16.598  0.00  0.00     0.018 A 
ATOM     10  C   UNL d   1     -38.189  13.621  16.230  0.00  0.00     0.000 A 
ATOM     11  C   UNL d   1     -38.753  14.210  16.023  0.00  0.00     0.002 A 
ENDROOT
BRANCH   2  12
ATOM     12  C   UNL d   1     -39.972  14.811  19.329  0.00  0.00     0.035 A 
ATOM     13  C   UNL d   1     -39.789  15.566  19.597  0.00  0.00     0.003 A 
ATOM     14  C   UNL d   1     -40.268  15.922  20.183  0.00  0.00     0.000 A 
ATOM     15  C   UNL d   1     -40.919  15.514  20.486  0.00  0.00     0.000 A 
ATOM     16  C   UNL d   1     -41.092  14.756  20.209  0.00  0.00     0.000 A 
ATOM     17  C   UNL d   1     -40.623  14.403  19.633  0.00  0.00     0.003 A 
ENDBRANCH   2  12
BRANCH   3  18
ATOM     18  C   UNL d   1     -40.146  15.262  17.762  0.00  0.00     0.085 C 
BRANCH  18  19
ATOM     19  C   UNL d   1     -40.680  15.108  17.159  0.00  0.00     0.064 C 
BRANCH  19  20
ATOM     20  C   UNL d   1     -41.189  15.703  16.899  0.00  0.00     0.236 C 
ATOM     21  O   UNL d   1     -41.898  15.522  16.551  0.00  0.00    -0.283 OA
ENDBRANCH  19  20
ENDBRANCH  18  19
ENDBRANCH   3  18
TORSDOF 4
ENDMDL
MODEL 7
REMARK VINA RESULT:      -6.2      8.696     10.214
REMARK  4 active torsions:
REMARK  status: ('A' for Active; 'I' for Inactive)
REMARK    1  A    between atoms: C_8  and  C_2 
REMARK    2  A    between atoms: C_9  and  N_3 
REMARK    3  A    between atoms: C_12  and  C_9 
REMARK    4  A    between atoms: C_14  and  C_12 
ROOT
ATOM      1  N   UNL d   1     -38.938  14.048  19.394  0.00  0.00    -0.217 NA
ATOM      2  C   UNL d   1     -39.199  14.347  18.675  0.00  0.00     0.149 A 
ATOM      3  N   UNL d   1     -39.815  14.891  18.657  0.00  0.00    -0.290 N 
ATOM      4  C   UNL d   1     -39.901  14.828  20.082  0.00  0.00     0.044 A 
ATOM      5  C   UNL d   1     -39.282  14.282  20.099  0.00  0.00     0.139 A 
ATOM      6  C   UNL d   1     -40.173  15.137  19.362  0.00  0.00     0.068 A 
ATOM      7  S   UNL d   1     -39.024  13.986  20.811  0.00  0.00    -0.057 SA
ATOM      8  C   UNL d   1     -40.253  15.070  20.783  0.00  0.00     0.004 A 
ATOM      9  C   UNL d   1     -40.784  15.676  19.348  0.00  0.00     0.018 A 
ATOM     10  C   UNL d   1     -40.867  15.612  20.771  0.00  0.00     0.000 A 
ATOM     11  C   UNL d   1     -41.134  15.918  20.035  0.00  0.00     0.002 A 
ENDROOT
BRANCH   2  12
ATOM     12  C   UNL d   1     -38.849  14.108  17.967  0.00  0.00     0.035 A 
ATOM     13  C   UNL d   1     -39.053  13.386  17.633  0.00  0.00     0.003 A 
ATOM     14  C   UNL d   1     -38.695  13.148  16.916  0.00  0.00     0.000 A 
ATOM     15  C   UNL d   1     -38.142  13.640  16.550  0.00  0.00     0.000 A 
ATOM     16  C   UNL d   1     -37.945  14.363  16.895  0.00  0.00     0.000 A 
ATOM     17  C   UNL d   1     -38.295  14.600  17.601  0.00  0.00     0.003 A 
ENDBRANCH   2  12
BRANCH   3  18
ATOM     18  C   UNL d   1     -40.078  15.193  17.931  0.00  0.00     0.085 C 
BRANCH  18  19
ATOM     19  C   UNL d   1     -40.879  15.164  17.754  0.00  0.00     0.064 C 
BRANCH  19  20
ATOM     20  C   UNL d   1     -41.169  15.567  17.095  0.00  0.00     0.236 C 
ATOM     21  O   UNL d   1     -41.691  15.213  16.587  0.00  0.00    -0.283 OA
ENDBRANCH  19  20
ENDBRANCH  18  19
ENDBRANCH   3  18
TORSDOF 4
ENDMDL
MODEL 8
REMARK VINA RESULT:      -6.0      1.426      2.500
REMARK  4 active torsions:
REMARK  status: ('A' for Active; 'I' for Inactive)
REMARK    1  A    between atoms: C_8  and  C_2 
REMARK    2  A    between atoms: C_9  and  N_3 
REMARK    3  A    between atoms: C_12  and  C_9 
REMARK    4  A    between atoms: C_14  and  C_12 
ROOT
ATOM      1  N   UNL d   1     -47.563  14.194  22.745  0.00  0.00    -0.217 NA
ATOM      2  C   UNL d   1     -48.294  13.904  22.980  0.00  0.00     0.149 A 
ATOM      3  N   UNL d   1     -48.354  13.139  23.278  0.00  0.00    -0.290 N 
ATOM      4  C   UNL d   1     -46.946  12.969  23.100  0.00  0.00     0.044 A 
ATOM      5  C   UNL d   1     -46.888  13.737  22.801  0.00  0.00     0.139 A 
ATOM      6  C   UNL d   1     -47.679  12.664  23.341  0.00  0.00     0.068 A 
ATOM      7  S   UNL d   1     -46.164  14.025  22.568  0.00  0.00    -0.057 SA
ATOM      8  C   UNL d   1     -46.275  12.500  23.161  0.00  0.00     0.004 A 
ATOM      9  C   UNL d   1     -47.734  11.906  23.636  0.00  0.00     0.018 A 
ATOM     10  C   UNL d   1     -46.329  11.739  23.457  0.00  0.00     0.000 A 
ATOM     11  C   UNL d   1     -47.077  11.441  23.698  0.00  0.00     0.002 A 
ENDROOT
BRANCH   2  12
ATOM     12  C   UNL d   1     -48.972  14.370  22.921  0.00  0.00     0.035 A 
ATOM     13  C   UNL d   1     -49.238  14.790  23.574  0.00  0.00     0.003 A 
ATOM     14  C   UNL d   1     -49.926  15.261  23.509  0.00  0.00     0.000 A 
ATOM     15  C   UNL d   1     -50.332  15.299  22.791  0.00  0.00     0.000 A 
ATOM     16  C   UNL d   1     -50.055  14.872  22.141  0.00  0.00     0.000 A 
ATOM     17  C   UNL d   1     -49.379  14.408  22.202  0.00  0.00     0.003 A 
ENDBRANCH   2  12
BRANCH   3  18
ATOM     18  C   UNL d   1     -49.092  12.846  23.515  0.00  0.00     0.085 C 
BRANCH  18  19
ATOM     19  C   UNL d   1     -49.322  12.098  23.268  0.00  0.00     0.064 C 
BRANCH  19  20
ATOM     20  C   UNL d   1     -49.995  11.747  23.590  0.00  0.00     0.236 C 
ATOM     21  O   UNL d   1     -50.562  11.419  23.114  0.00  0.00    -0.283 OA
ENDBRANCH  19  20
ENDBRANCH  18  19
ENDBRANCH   3  18
TORSDOF 4
ENDMDL
MODEL 9
REMARK VINA RESULT:      -5.8      8.584     10.287
REMARK  4 active torsions:
REMARK  status: ('A' for Active; 'I' for Inactive)
REMARK    1  A    between atoms: C_8  and  C_2 
REMARK    2  A    between atoms: C_9  and  N_3 
REMARK    3  A    between atoms: C_12  and  C_9 
REMARK    4  A    between atoms: C_14  and  C_12 
ROOT
ATOM      1  N   UNL d   1     -40.615  15.278  18.295  0.00  0.00    -0.217 NA
ATOM      2  C   UNL d   1     -40.099  15.054  18.893  0.00  0.00     0.149 A 
ATOM      3  N   UNL d   1     -39.372  14.719  18.703  0.00  0.00    -0.290 N 
ATOM      4  C   UNL d   1     -39.691  14.837  17.315  0.00  0.00     0.044 A 
ATOM      5  C   UNL d   1     -40.421  15.173  17.507  0.00  0.00     0.139 A 
ATOM      6  C   UNL d   1     -39.161  14.607  17.910  0.00  0.00     0.068 A 
ATOM      7  S   UNL d   1     -40.932  15.395  16.915  0.00  0.00    -0.057 SA
ATOM      8  C   UNL d   1     -39.485  14.728  16.528  0.00  0.00     0.004 A 
ATOM      9  C   UNL d   1     -38.442  14.276  17.717  0.00  0.00     0.018 A 
ATOM     10  C   UNL d   1     -38.764  14.395  16.332  0.00  0.00     0.000 A 
ATOM     11  C   UNL d   1     -38.235  14.166  16.944  0.00  0.00     0.002 A 
ENDROOT
BRANCH   2  12
ATOM     12  C   UNL d   1     -40.299  15.161  19.686  0.00  0.00     0.035 A 
ATOM     13  C   UNL d   1     -40.016  15.814  20.096  0.00  0.00     0.003 A 
ATOM     14  C   UNL d   1     -40.223  15.919  20.899  0.00  0.00     0.000 A 
ATOM     15  C   UNL d   1     -40.708  15.366  21.273  0.00  0.00     0.000 A 
ATOM     16  C   UNL d   1     -40.987  14.713  20.852  0.00  0.00     0.000 A 
ATOM     17  C   UNL d   1     -40.786  14.608  20.061  0.00  0.00     0.003 A 
ENDBRANCH   2  12
BRANCH   3  18
ATOM     18  C   UNL d   1     -38.850  14.493  19.307  0.00  0.00     0.085 C 
BRANCH  18  19
ATOM     19  C   UNL d   1     -38.537  13.736  19.300  0.00  0.00     0.064 C 
BRANCH  19  20
ATOM     20  C   UNL d   1     -37.940  13.533  19.831  0.00  0.00     0.236 C 
ATOM     21  O   UNL d   1     -37.940  12.813  20.203  0.00  0.00    -0.283 OA
ENDBRANCH  19  20
ENDBRANCH  18  19
ENDBRANCH   3  18
TORSDOF 4
ENDMDL
