MODEL 1
REMARK VINA RESULT:      -7.9      0.000      0.000
REMARK  3 active torsions:
REMARK  status: ('A' for Active; 'I' for Inactive)
REMARK    1  A    between atoms: N_3  and  C_1 
REMARK    2  A    between atoms: C_8  and  N_2 
REMARK       I    between atoms: C_4  and  N_3 
REMARK    3  A    between atoms: C_7  and  C_4 
ROOT
ATOM      1  C   UNL d   1     -48.706  14.389  22.755  0.00  0.00     0.185 A 
ATOM      2  N   UNL d   1     -49.543  14.345  22.748  0.00  0.00    -0.254 N 
ATOM      3  S   UNL d   1     -48.498  15.171  22.633  0.00  0.00    -0.044 SA
ATOM      4  C   UNL d   1     -49.826  15.097  22.623  0.00  0.00     0.273 A 
ATOM      5  C   UNL d   1     -49.185  15.608  22.551  0.00  0.00     0.099 A 
ATOM      6  O   UNL d   1     -50.624  15.306  22.576  0.00  0.00    -0.266 OA
ENDROOT
BRANCH   1   7
ATOM      7  N   UNL d   1     -48.183  13.755  22.866  0.00  0.00    -0.182 NA
ATOM      8  C   UNL d   1     -47.376  13.889  22.908  0.00  0.00     0.304 C 
ATOM      9  O   UNL d   1     -47.079  14.660  22.841  0.00  0.00    -0.263 OA
BRANCH   8  10
ATOM     10  C   UNL d   1     -46.849  13.257  23.019  0.00  0.00     0.158 A 
ATOM     11  O   UNL d   1     -46.882  12.715  23.633  0.00  0.00    -0.300 OA
ATOM     12  C   UNL d   1     -46.256  12.186  23.528  0.00  0.00     0.123 A 
ATOM     13  C   UNL d   1     -45.846  12.407  22.852  0.00  0.00     0.029 A 
ATOM     14  C   UNL d   1     -46.202  13.064  22.532  0.00  0.00     0.032 A 
ENDBRANCH   8  10
ENDBRANCH   1   7
BRANCH   2  15
ATOM     15  C   UNL d   1     -49.989  13.656  22.852  0.00  0.00     0.069 A 
ATOM     16  C   UNL d   1     -50.160  13.192  22.192  0.00  0.00     0.018 A 
ATOM     17  C   UNL d   1     -50.608  12.498  22.288  0.00  0.00     0.002 A 
ATOM     18  C   UNL d   1     -50.877  12.281  23.043  0.00  0.00     0.000 A 
ATOM     19  C   UNL d   1     -50.701  12.751  23.698  0.00  0.00     0.002 A 
ATOM     20  C   UNL d   1     -50.258  13.437  23.601  0.00  0.00     0.018 A 
ENDBRANCH   2  15
TORSDOF 3
ENDMDL
MODEL 2
REMARK VINA RESULT:      -7.8      1.049      1.417
REMARK  3 active torsions:
REMARK  status: ('A' for Active; 'I' for Inactive)
REMARK    1  A    between atoms: N_3  and  C_1 
REMARK    2  A    between atoms: C_8  and  N_2 
REMARK       I    between atoms: C_4  and  N_3 
REMARK    3  A    between atoms: C_7  and  C_4 
ROOT
ATOM      1  C   UNL d   1     -47.629  13.717  22.783  0.00  0.00     0.185 A 
ATOM      2  N   UNL d   1     -48.409  13.908  22.542  0.00  0.00    -0.254 N 
ATOM      3  S   UNL d   1     -47.222  14.420  22.883  0.00  0.00    -0.044 SA
ATOM      4  C   UNL d   1     -48.460  14.718  22.501  0.00  0.00     0.273 A 
ATOM      5  C   UNL d   1     -47.731  15.037  22.710  0.00  0.00     0.099 A 
ATOM      6  O   UNL d   1     -49.134  15.144  22.284  0.00  0.00    -0.266 OA
ENDROOT
BRANCH   1   7
ATOM      7  N   UNL d   1     -47.325  12.954  22.899  0.00  0.00    -0.182 NA
ATOM      8  C   UNL d   1     -46.613  12.849  23.289  0.00  0.00     0.304 C 
ATOM      9  O   UNL d   1     -46.192  13.507  23.569  0.00  0.00    -0.263 OA
BRANCH   8  10
ATOM     10  C   UNL d   1     -46.305  12.088  23.407  0.00  0.00     0.158 A 
ATOM     11  O   UNL d   1     -45.524  11.869  23.289  0.00  0.00    -0.300 OA
ATOM     12  C   UNL d   1     -45.464  11.065  23.472  0.00  0.00     0.123 A 
ATOM     13  C   UNL d   1     -46.206  10.798  23.698  0.00  0.00     0.029 A 
ATOM     14  C   UNL d   1     -46.731  11.418  23.662  0.00  0.00     0.032 A 
ENDBRANCH   8  10
ENDBRANCH   1   7
BRANCH   2  15
ATOM     15  C   UNL d   1     -49.009  13.362  22.379  0.00  0.00     0.069 A 
ATOM     16  C   UNL d   1     -49.067  13.053  21.617  0.00  0.00     0.018 A 
ATOM     17  C   UNL d   1     -49.668  12.504  21.446  0.00  0.00     0.002 A 
ATOM     18  C   UNL d   1     -50.200  12.275  22.040  0.00  0.00     0.000 A 
ATOM     19  C   UNL d   1     -50.135  12.589  22.800  0.00  0.00     0.002 A 
ATOM     20  C   UNL d   1     -49.540  13.132  22.968  0.00  0.00     0.018 A 
ENDBRANCH   2  15
TORSDOF 3
ENDMDL
MODEL 3
REMARK VINA RESULT:      -7.8      1.474      3.321
REMARK  3 active torsions:
REMARK  status: ('A' for Active; 'I' for Inactive)
REMARK    1  A    between atoms: N_3  and  C_1 
REMARK    2  A    between atoms: C_8  and  N_2 
REMARK       I    between atoms: C_4  and  N_3 
REMARK    3  A    between atoms: C_7  and  C_4 
ROOT
ATOM      1  C   UNL d   1     -47.701  14.039  22.832  0.00  0.00     0.185 A 
ATOM      2  N   UNL d   1     -47.348  13.279  22.798  0.00  0.00    -0.254 N 
ATOM      3  S   UNL d   1     -47.108  14.593  22.723  0.00  0.00    -0.044 SA
ATOM      4  C   UNL d   1     -46.552  13.386  22.669  0.00  0.00     0.273 A 
ATOM      5  C   UNL d   1     -46.401  14.194  22.623  0.00  0.00     0.099 A 
ATOM      6  O   UNL d   1     -45.994  12.781  22.599  0.00  0.00    -0.266 OA
ENDROOT
BRANCH   1   7
ATOM      7  N   UNL d   1     -48.505  14.200  22.954  0.00  0.00    -0.182 NA
ATOM      8  C   UNL d   1     -48.799  14.954  22.827  0.00  0.00     0.304 C 
ATOM      9  O   UNL d   1     -48.292  15.560  22.575  0.00  0.00    -0.263 OA
BRANCH   8  10
ATOM     10  C   UNL d   1     -49.603  15.118  22.948  0.00  0.00     0.158 A 
ATOM     11  O   UNL d   1     -50.210  14.919  22.435  0.00  0.00    -0.300 OA
ATOM     12  C   UNL d   1     -50.915  15.187  22.772  0.00  0.00     0.123 A 
ATOM     13  C   UNL d   1     -50.736  15.548  23.486  0.00  0.00     0.029 A 
ATOM     14  C   UNL d   1     -49.932  15.511  23.605  0.00  0.00     0.032 A 
ENDBRANCH   8  10
ENDBRANCH   1   7
BRANCH   2  15
ATOM     15  C   UNL d   1     -47.746  12.559  22.882  0.00  0.00     0.069 A 
ATOM     16  C   UNL d   1     -48.077  12.210  22.212  0.00  0.00     0.018 A 
ATOM     17  C   UNL d   1     -48.479  11.486  22.289  0.00  0.00     0.002 A 
ATOM     18  C   UNL d   1     -48.543  11.125  23.033  0.00  0.00     0.000 A 
ATOM     19  C   UNL d   1     -48.208  11.482  23.698  0.00  0.00     0.002 A 
ATOM     20  C   UNL d   1     -47.811  12.197  23.621  0.00  0.00     0.018 A 
ENDBRANCH   2  15
TORSDOF 3
ENDMDL
MODEL 4
REMARK VINA RESULT:      -7.7      1.784      4.157
REMARK  3 active torsions:
REMARK  status: ('A' for Active; 'I' for Inactive)
REMARK    1  A    between atoms: N_3  and  C_1 
REMARK    2  A    between atoms: C_8  and  N_2 
REMARK       I    between atoms: C_4  and  N_3 
REMARK    3  A    between atoms: C_7  and  C_4 
ROOT
ATOM      1  C   UNL d   1     -47.839  11.994  23.202  0.00  0.00     0.185 A 
ATOM      2  N   UNL d   1     -47.021  12.174  23.251  0.00  0.00    -0.254 N 
ATOM      3  S   UNL d   1     -47.941  11.231  23.480  0.00  0.00    -0.044 SA
ATOM      4  C   UNL d   1     -46.645  11.521  23.556  0.00  0.00     0.273 A 
ATOM      5  C   UNL d   1     -47.208  10.938  23.698  0.00  0.00     0.099 A 
ATOM      6  O   UNL d   1     -45.834  11.459  23.697  0.00  0.00    -0.266 OA
ENDROOT
BRANCH   1   7
ATOM      7  N   UNL d   1     -48.435  12.497  22.923  0.00  0.00    -0.182 NA
ATOM      8  C   UNL d   1     -49.180  12.201  22.756  0.00  0.00     0.304 C 
ATOM      9  O   UNL d   1     -49.341  11.395  22.865  0.00  0.00    -0.263 OA
BRANCH   8  10
ATOM     10  C   UNL d   1     -49.780  12.702  22.476  0.00  0.00     0.158 A 
ATOM     11  O   UNL d   1     -50.109  13.326  22.894  0.00  0.00    -0.300 OA
ATOM     12  C   UNL d   1     -50.682  13.671  22.409  0.00  0.00     0.123 A 
ATOM     13  C   UNL d   1     -50.700  13.258  21.700  0.00  0.00     0.029 A 
ATOM     14  C   UNL d   1     -50.150  12.660  21.731  0.00  0.00     0.032 A 
ENDBRANCH   8  10
ENDBRANCH   1   7
BRANCH   2  15
ATOM     15  C   UNL d   1     -46.672  12.890  23.028  0.00  0.00     0.069 A 
ATOM     16  C   UNL d   1     -46.288  12.933  22.300  0.00  0.00     0.018 A 
ATOM     17  C   UNL d   1     -45.934  13.649  22.069  0.00  0.00     0.002 A 
ATOM     18  C   UNL d   1     -45.973  14.310  22.570  0.00  0.00     0.000 A 
ATOM     19  C   UNL d   1     -46.360  14.258  23.296  0.00  0.00     0.002 A 
ATOM     20  C   UNL d   1     -46.709  13.549  23.524  0.00  0.00     0.018 A 
ENDBRANCH   2  15
TORSDOF 3
ENDMDL
MODEL 5
REMARK VINA RESULT:      -7.0      1.456      2.255
REMARK  3 active torsions:
REMARK  status: ('A' for Active; 'I' for Inactive)
REMARK    1  A    between atoms: N_3  and  C_1 
REMARK    2  A    between atoms: C_8  and  N_2 
REMARK       I    between atoms: C_4  and  N_3 
REMARK    3  A    between atoms: C_7  and  C_4 
ROOT
ATOM      1  C   UNL d   1     -49.527  13.016  22.098  0.00  0.00     0.185 A 
ATOM      2  N   UNL d   1     -49.931  13.747  22.034  0.00  0.00    -0.254 N 
ATOM      3  S   UNL d   1     -49.888  12.488  21.587  0.00  0.00    -0.044 SA
ATOM      4  C   UNL d   1     -50.526  13.650  21.489  0.00  0.00     0.273 A 
ATOM      5  C   UNL d   1     -50.503  12.876  21.211  0.00  0.00     0.099 A 
ATOM      6  O   UNL d   1     -51.062  14.235  21.256  0.00  0.00    -0.266 OA
ENDROOT
BRANCH   1   7
ATOM      7  N   UNL d   1     -48.878  12.855  22.589  0.00  0.00    -0.182 NA
ATOM      8  C   UNL d   1     -48.409  12.198  22.452  0.00  0.00     0.304 C 
ATOM      9  O   UNL d   1     -48.582  11.690  21.820  0.00  0.00    -0.263 OA
BRANCH   8  10
ATOM     10  C   UNL d   1     -47.760  12.035  22.941  0.00  0.00     0.158 A 
ATOM     11  O   UNL d   1     -47.219  12.589  23.211  0.00  0.00    -0.300 OA
ATOM     12  C   UNL d   1     -46.668  12.187  23.679  0.00  0.00     0.123 A 
ATOM     13  C   UNL d   1     -46.875  11.393  23.691  0.00  0.00     0.029 A 
ATOM     14  C   UNL d   1     -47.544  11.288  23.242  0.00  0.00     0.032 A 
ENDBRANCH   8  10
ENDBRANCH   1   7
BRANCH   2  15
ATOM     15  C   UNL d   1     -49.748  14.436  22.454  0.00  0.00     0.069 A 
ATOM     16  C   UNL d   1     -49.218  14.973  22.122  0.00  0.00     0.018 A 
ATOM     17  C   UNL d   1     -49.029  15.667  22.539  0.00  0.00     0.002 A 
ATOM     18  C   UNL d   1     -49.375  15.812  23.280  0.00  0.00     0.000 A 
ATOM     19  C   UNL d   1     -49.905  15.269  23.604  0.00  0.00     0.002 A 
ATOM     20  C   UNL d   1     -50.090  14.583  23.191  0.00  0.00     0.018 A 
ENDBRANCH   2  15
TORSDOF 3
ENDMDL
MODEL 6
REMARK VINA RESULT:      -6.7      1.034      3.348
REMARK  3 active torsions:
REMARK  status: ('A' for Active; 'I' for Inactive)
REMARK    1  A    between atoms: N_3  and  C_1 
REMARK    2  A    between atoms: C_8  and  N_2 
REMARK       I    between atoms: C_4  and  N_3 
REMARK    3  A    between atoms: C_7  and  C_4 
ROOT
ATOM      1  C   UNL d   1     -48.684  14.245  22.791  0.00  0.00     0.185 A 
ATOM      2  N   UNL d   1     -47.871  14.392  22.648  0.00  0.00    -0.254 N 
ATOM      3  S   UNL d   1     -49.082  14.956  22.709  0.00  0.00    -0.044 SA
ATOM      4  C   UNL d   1     -47.792  15.184  22.482  0.00  0.00     0.273 A 
ATOM      5  C   UNL d   1     -48.535  15.534  22.518  0.00  0.00     0.099 A 
ATOM      6  O   UNL d   1     -47.081  15.567  22.306  0.00  0.00    -0.266 OA
ENDROOT
BRANCH   1   7
ATOM      7  N   UNL d   1     -49.023  13.513  22.982  0.00  0.00    -0.182 NA
ATOM      8  C   UNL d   1     -49.807  13.470  23.214  0.00  0.00     0.304 C 
ATOM      9  O   UNL d   1     -50.266  14.160  23.257  0.00  0.00    -0.263 OA
BRANCH   8  10
ATOM     10  C   UNL d   1     -50.150  12.740  23.406  0.00  0.00     0.158 A 
ATOM     11  O   UNL d   1     -49.740  12.038  23.515  0.00  0.00    -0.300 OA
ATOM     12  C   UNL d   1     -50.297  11.454  23.697  0.00  0.00     0.123 A 
ATOM     13  C   UNL d   1     -51.040  11.801  23.698  0.00  0.00     0.029 A 
ATOM     14  C   UNL d   1     -50.962  12.591  23.520  0.00  0.00     0.032 A 
ENDBRANCH   8  10
ENDBRANCH   1   7
BRANCH   2  15
ATOM     15  C   UNL d   1     -47.268  13.826  22.673  0.00  0.00     0.069 A 
ATOM     16  C   UNL d   1     -46.855  13.719  23.378  0.00  0.00     0.018 A 
ATOM     17  C   UNL d   1     -46.248  13.152  23.412  0.00  0.00     0.002 A 
ATOM     18  C   UNL d   1     -46.065  12.702  22.738  0.00  0.00     0.000 A 
ATOM     19  C   UNL d   1     -46.484  12.816  22.036  0.00  0.00     0.002 A 
ATOM     20  C   UNL d   1     -47.084  13.377  22.005  0.00  0.00     0.018 A 
ENDBRANCH   2  15
TORSDOF 3
ENDMDL
MODEL 7
REMARK VINA RESULT:      -5.6      9.167     10.205
REMARK  3 active torsions:
REMARK  status: ('A' for Active; 'I' for Inactive)
REMARK    1  A    between atoms: N_3  and  C_1 
REMARK    2  A    between atoms: C_8  and  N_2 
REMARK       I    between atoms: C_4  and  N_3 
REMARK    3  A    between atoms: C_7  and  C_4 
ROOT
ATOM      1  C   UNL d   1     -40.299  15.364  18.606  0.00  0.00     0.185 A 
ATOM      2  N   UNL d   1     -40.128  15.036  17.853  0.00  0.00    -0.254 N 
ATOM      3  S   UNL d   1     -40.936  15.871  18.516  0.00  0.00    -0.044 SA
ATOM      4  C   UNL d   1     -40.661  15.348  17.325  0.00  0.00     0.273 A 
ATOM      5  C   UNL d   1     -41.160  15.863  17.729  0.00  0.00     0.099 A 
ATOM      6  O   UNL d   1     -40.692  15.174  16.518  0.00  0.00    -0.266 OA
ENDROOT
BRANCH   1   7
ATOM      7  N   UNL d   1     -39.896  15.205  19.313  0.00  0.00    -0.182 NA
ATOM      8  C   UNL d   1     -40.192  15.475  20.027  0.00  0.00     0.304 C 
ATOM      9  O   UNL d   1     -40.898  15.910  20.045  0.00  0.00    -0.263 OA
BRANCH   8  10
ATOM     10  C   UNL d   1     -39.792  15.317  20.736  0.00  0.00     0.158 A 
ATOM     11  O   UNL d   1     -39.156  15.745  21.026  0.00  0.00    -0.300 OA
ATOM     12  C   UNL d   1     -38.932  15.398  21.742  0.00  0.00     0.123 A 
ATOM     13  C   UNL d   1     -39.431  14.763  21.884  0.00  0.00     0.029 A 
ATOM     14  C   UNL d   1     -39.963  14.703  21.273  0.00  0.00     0.032 A 
ENDBRANCH   8  10
ENDBRANCH   1   7
BRANCH   2  15
ATOM     15  C   UNL d   1     -39.525  14.495  17.691  0.00  0.00     0.069 A 
ATOM     16  C   UNL d   1     -38.783  14.781  17.475  0.00  0.00     0.018 A 
ATOM     17  C   UNL d   1     -38.171  14.243  17.310  0.00  0.00     0.002 A 
ATOM     18  C   UNL d   1     -38.313  13.427  17.364  0.00  0.00     0.000 A 
ATOM     19  C   UNL d   1     -39.059  13.148  17.581  0.00  0.00     0.002 A 
ATOM     20  C   UNL d   1     -39.662  13.682  17.743  0.00  0.00     0.018 A 
ENDBRANCH   2  15
TORSDOF 3
ENDMDL
MODEL 8
REMARK VINA RESULT:      -5.4      8.858     10.045
REMARK  3 active torsions:
REMARK  status: ('A' for Active; 'I' for Inactive)
REMARK    1  A    between atoms: N_3  and  C_1 
REMARK    2  A    between atoms: C_8  and  N_2 
REMARK       I    between atoms: C_4  and  N_3 
REMARK    3  A    between atoms: C_7  and  C_4 
ROOT
ATOM      1  C   UNL d   1     -40.052  14.899  19.370  0.00  0.00     0.185 A 
ATOM      2  N   UNL d   1     -40.080  15.050  20.194  0.00  0.00    -0.254 N 
ATOM      3  S   UNL d   1     -40.614  15.375  19.012  0.00  0.00    -0.044 SA
ATOM      4  C   UNL d   1     -40.655  15.611  20.320  0.00  0.00     0.273 A 
ATOM      5  C   UNL d   1     -40.987  15.813  19.594  0.00  0.00     0.099 A 
ATOM      6  O   UNL d   1     -40.868  15.922  21.056  0.00  0.00    -0.266 OA
ENDROOT
BRANCH   1   7
ATOM      7  N   UNL d   1     -39.547  14.365  18.987  0.00  0.00    -0.182 NA
ATOM      8  C   UNL d   1     -39.675  14.165  18.203  0.00  0.00     0.304 C 
ATOM      9  O   UNL d   1     -40.313  14.497  17.790  0.00  0.00    -0.263 OA
BRANCH   8  10
ATOM     10  C   UNL d   1     -39.172  13.632  17.817  0.00  0.00     0.158 A 
ATOM     11  O   UNL d   1     -39.148  12.822  17.948  0.00  0.00    -0.300 OA
ATOM     12  C   UNL d   1     -38.570  12.509  17.448  0.00  0.00     0.123 A 
ATOM     13  C   UNL d   1     -38.245  13.125  17.015  0.00  0.00     0.029 A 
ATOM     14  C   UNL d   1     -38.607  13.820  17.233  0.00  0.00     0.032 A 
ENDBRANCH   8  10
ENDBRANCH   1   7
BRANCH   2  15
ATOM     15  C   UNL d   1     -39.604  14.689  20.766  0.00  0.00     0.069 A 
ATOM     16  C   UNL d   1     -39.912  14.056  21.195  0.00  0.00     0.018 A 
ATOM     17  C   UNL d   1     -39.440  13.687  21.771  0.00  0.00     0.002 A 
ATOM     18  C   UNL d   1     -38.667  13.959  21.908  0.00  0.00     0.000 A 
ATOM     19  C   UNL d   1     -38.367  14.593  21.474  0.00  0.00     0.002 A 
ATOM     20  C   UNL d   1     -38.835  14.956  20.905  0.00  0.00     0.018 A 
ENDBRANCH   2  15
TORSDOF 3
ENDMDL
MODEL 9
REMARK VINA RESULT:      -5.1      8.501     10.200
REMARK  3 active torsions:
REMARK  status: ('A' for Active; 'I' for Inactive)
REMARK    1  A    between atoms: N_3  and  C_1 
REMARK    2  A    between atoms: C_8  and  N_2 
REMARK       I    between atoms: C_4  and  N_3 
REMARK    3  A    between atoms: C_7  and  C_4 
ROOT
ATOM      1  C   UNL d   1     -38.866  15.558  20.017  0.00  0.00     0.185 A 
ATOM      2  N   UNL d   1     -39.276  15.546  20.749  0.00  0.00    -0.254 N 
ATOM      3  S   UNL d   1     -38.096  15.789  20.169  0.00  0.00    -0.044 SA
ATOM      4  C   UNL d   1     -38.750  15.769  21.327  0.00  0.00     0.273 A 
ATOM      5  C   UNL d   1     -38.022  15.920  20.974  0.00  0.00     0.099 A 
ATOM      6  O   UNL d   1     -38.923  15.832  22.132  0.00  0.00    -0.266 OA
ENDROOT
BRANCH   1   7
ATOM      7  N   UNL d   1     -39.184  15.369  19.275  0.00  0.00    -0.182 NA
ATOM      8  C   UNL d   1     -38.726  15.441  18.600  0.00  0.00     0.304 C 
ATOM      9  O   UNL d   1     -37.940  15.702  18.657  0.00  0.00    -0.263 OA
BRANCH   8  10
ATOM     10  C   UNL d   1     -39.040  15.253  17.856  0.00  0.00     0.158 A 
ATOM     11  O   UNL d   1     -39.360  15.792  17.327  0.00  0.00    -0.300 OA
ATOM     12  C   UNL d   1     -39.604  15.368  16.661  0.00  0.00     0.123 A 
ATOM     13  C   UNL d   1     -39.432  14.575  16.786  0.00  0.00     0.029 A 
ATOM     14  C   UNL d   1     -39.085  14.493  17.517  0.00  0.00     0.032 A 
ENDBRANCH   8  10
ENDBRANCH   1   7
BRANCH   2  15
ATOM     15  C   UNL d   1     -40.072  15.343  20.851  0.00  0.00     0.069 A 
ATOM     16  C   UNL d   1     -40.264  14.552  20.982  0.00  0.00     0.018 A 
ATOM     17  C   UNL d   1     -41.061  14.340  21.086  0.00  0.00     0.002 A 
ATOM     18  C   UNL d   1     -41.652  14.923  21.057  0.00  0.00     0.000 A 
ATOM     19  C   UNL d   1     -41.449  15.713  20.926  0.00  0.00     0.002 A 
ATOM     20  C   UNL d   1     -40.661  15.920  20.823  0.00  0.00     0.018 A 
ENDBRANCH   2  15
TORSDOF 3
ENDMDL
