MODEL 1
REMARK VINA RESULT:      -4.6      0.000      0.000
REMARK  4 active torsions:
REMARK  status: ('A' for Active; 'I' for Inactive)
REMARK    1  A    between atoms: N_3  and  S_1 
REMARK    2  A    between atoms: C_4  and  S_1 
REMARK    3  A    between atoms: S_2  and  C_5 
REMARK    4  A    between atoms: C_13  and  N_3 
ROOT
ATOM      1  N   UNL d   1      58.144   0.682  30.243  0.00  0.00    -0.158 NA
ENDROOT
BRANCH   1   2
ATOM      2  S   UNL d   1      57.658   0.398  30.832  0.00  0.00     0.285 S 
ATOM      3  O   UNL d   1      58.224   0.585  31.404  0.00  0.00    -0.198 OA
ATOM      4  O   UNL d   1      57.076   0.203  30.271  0.00  0.00    -0.198 OA
BRANCH   2   5
ATOM      5  C   UNL d   1      57.142   0.098  31.451  0.00  0.00     0.105 A 
ATOM      6  C   UNL d   1      56.793   0.621  31.961  0.00  0.00     0.015 A 
ATOM      7  C   UNL d   1      56.297   0.353  32.558  0.00  0.00     0.022 A 
ATOM      8  C   UNL d   1      56.154  -0.445  32.639  0.00  0.00     0.103 A 
ATOM      9  C   UNL d   1      56.513  -0.980  32.113  0.00  0.00     0.022 A 
ATOM     10  N   UNL d   1      55.646  -0.713  33.251  0.00  0.00    -0.148 N 
ATOM     11  C   UNL d   1      57.008  -0.686  31.521  0.00  0.00     0.015 A 
ENDBRANCH   2   5
ENDBRANCH   1   2
BRANCH   1  12
ATOM     12  C   UNL d   1      58.698   0.193  29.890  0.00  0.00     0.094 A 
ATOM     13  C   UNL d   1      58.490  -0.234  29.241  0.00  0.00     0.021 A 
ATOM     14  C   UNL d   1      59.052  -0.731  28.883  0.00  0.00     0.015 A 
ATOM     15  C   UNL d   1      59.798  -0.779  29.190  0.00  0.00     0.107 A 
ATOM     16  C   UNL d   1      60.017  -0.341  29.859  0.00  0.00     0.015 A 
ATOM     17  C   UNL d   1      59.455   0.155  30.217  0.00  0.00     0.021 A 
BRANCH  15  18
ATOM     18  S   UNL d   1      60.359  -1.274  28.832  0.00  0.00     0.302 S 
ATOM     19  O   UNL d   1      59.893  -1.944  29.028  0.00  0.00    -0.197 OA
ATOM     20  O   UNL d   1      60.813  -0.624  28.643  0.00  0.00    -0.197 OA
ATOM     21  N   UNL d   1      60.916  -1.766  28.478  0.00  0.00    -0.043 N 
ENDBRANCH  15  18
ENDBRANCH   1  12
TORSDOF 4
ENDMDL
MODEL 2
REMARK VINA RESULT:      -4.2      1.612      4.600
REMARK  4 active torsions:
REMARK  status: ('A' for Active; 'I' for Inactive)
REMARK    1  A    between atoms: N_3  and  S_1 
REMARK    2  A    between atoms: C_4  and  S_1 
REMARK    3  A    between atoms: S_2  and  C_5 
REMARK    4  A    between atoms: C_13  and  N_3 
ROOT
ATOM      1  N   UNL d   1      57.009  -0.291  30.692  0.00  0.00    -0.158 NA
ENDROOT
BRANCH   1   2
ATOM      2  S   UNL d   1      57.779  -0.095  30.515  0.00  0.00     0.285 S 
ATOM      3  O   UNL d   1      57.553   0.679  30.339  0.00  0.00    -0.198 OA
ATOM      4  O   UNL d   1      58.027  -0.870  30.689  0.00  0.00    -0.198 OA
BRANCH   2   5
ATOM      5  C   UNL d   1      58.595   0.108  30.330  0.00  0.00     0.105 A 
ATOM      6  C   UNL d   1      58.893  -0.088  29.604  0.00  0.00     0.015 A 
ATOM      7  C   UNL d   1      59.668   0.096  29.408  0.00  0.00     0.022 A 
ATOM      8  C   UNL d   1      60.142   0.481  29.948  0.00  0.00     0.103 A 
ATOM      9  C   UNL d   1      59.833   0.682  30.693  0.00  0.00     0.022 A 
ATOM     10  N   UNL d   1      60.935   0.668  29.742  0.00  0.00    -0.148 N 
ATOM     11  C   UNL d   1      59.050   0.485  30.866  0.00  0.00     0.015 A 
ENDBRANCH   2   5
ENDBRANCH   1   2
BRANCH   1  12
ATOM     12  C   UNL d   1      56.716  -0.181  31.449  0.00  0.00     0.094 A 
ATOM     13  C   UNL d   1      56.570   0.566  31.710  0.00  0.00     0.021 A 
ATOM     14  C   UNL d   1      56.273   0.678  32.478  0.00  0.00     0.015 A 
ATOM     15  C   UNL d   1      56.133   0.038  32.951  0.00  0.00     0.107 A 
ATOM     16  C   UNL d   1      56.281  -0.733  32.687  0.00  0.00     0.015 A 
ATOM     17  C   UNL d   1      56.579  -0.845  31.919  0.00  0.00     0.021 A 
BRANCH  15  18
ATOM     18  S   UNL d   1      55.836   0.149  33.718  0.00  0.00     0.302 S 
ATOM     19  O   UNL d   1      56.576   0.461  33.960  0.00  0.00    -0.197 OA
ATOM     20  O   UNL d   1      55.116  -0.153  33.483  0.00  0.00    -0.197 OA
ATOM     21  N   UNL d   1      55.541   0.260  34.478  0.00  0.00    -0.043 N 
ENDBRANCH  15  18
ENDBRANCH   1  12
TORSDOF 4
ENDMDL
MODEL 3
REMARK VINA RESULT:      -3.6      1.203      1.450
REMARK  4 active torsions:
REMARK  status: ('A' for Active; 'I' for Inactive)
REMARK    1  A    between atoms: N_3  and  S_1 
REMARK    2  A    between atoms: C_4  and  S_1 
REMARK    3  A    between atoms: S_2  and  C_5 
REMARK    4  A    between atoms: C_13  and  N_3 
ROOT
ATOM      1  N   UNL d   1      57.134  -0.265  30.559  0.00  0.00    -0.158 NA
ENDROOT
BRANCH   1   2
ATOM      2  S   UNL d   1      56.941  -0.154  31.342  0.00  0.00     0.285 S 
ATOM      3  O   UNL d   1      56.750   0.635  31.195  0.00  0.00    -0.198 OA
ATOM      4  O   UNL d   1      57.127  -0.947  31.510  0.00  0.00    -0.198 OA
BRANCH   2   5
ATOM      5  C   UNL d   1      56.738  -0.042  32.171  0.00  0.00     0.105 A 
ATOM      6  C   UNL d   1      57.089   0.559  32.584  0.00  0.00     0.015 A 
ATOM      7  C   UNL d   1      56.908   0.682  33.375  0.00  0.00     0.022 A 
ATOM      8  C   UNL d   1      56.371   0.196  33.749  0.00  0.00     0.103 A 
ATOM      9  C   UNL d   1      56.012  -0.420  33.322  0.00  0.00     0.022 A 
ATOM     10  N   UNL d   1      56.190   0.327  34.558  0.00  0.00    -0.148 N 
ATOM     11  C   UNL d   1      56.210  -0.524  32.527  0.00  0.00     0.015 A 
ENDBRANCH   2   5
ENDBRANCH   1   2
BRANCH   1  12
ATOM     12  C   UNL d   1      57.905  -0.165  30.303  0.00  0.00     0.094 A 
ATOM     13  C   UNL d   1      58.189   0.580  30.189  0.00  0.00     0.021 A 
ATOM     14  C   UNL d   1      58.972   0.682  29.930  0.00  0.00     0.015 A 
ATOM     15  C   UNL d   1      59.437   0.035  29.796  0.00  0.00     0.107 A 
ATOM     16  C   UNL d   1      59.150  -0.734  29.911  0.00  0.00     0.015 A 
ATOM     17  C   UNL d   1      58.367  -0.836  30.171  0.00  0.00     0.021 A 
BRANCH  15  18
ATOM     18  S   UNL d   1      60.219   0.136  29.537  0.00  0.00     0.302 S 
ATOM     19  O   UNL d   1      60.457   0.308  30.323  0.00  0.00    -0.197 OA
ATOM     20  O   UNL d   1      59.988  -0.030  28.773  0.00  0.00    -0.197 OA
ATOM     21  N   UNL d   1      60.994   0.237  29.280  0.00  0.00    -0.043 N 
ENDBRANCH  15  18
ENDBRANCH   1  12
TORSDOF 4
ENDMDL
