MODEL 1
REMARK VINA RESULT:      20.7      0.000      0.000
REMARK  0 active torsions:
REMARK  status: ('A' for Active; 'I' for Inactive)
ROOT
ATOM      1  C   UNL d   1      60.321  49.706  51.539  0.00  0.00     0.110 A 
ATOM      2  C   UNL d   1      60.536  49.707  50.743  0.00  0.00     0.110 A 
ATOM      3  C   UNL d   1      59.521  49.705  51.760  0.00  0.00     0.207 A 
ATOM      4  C   UNL d   1      59.951  49.707  50.167  0.00  0.00     0.207 A 
ATOM      5  C   UNL d   1      58.954  49.705  51.171  0.00  0.00     0.043 A 
ATOM      6  C   UNL d   1      59.169  49.706  50.374  0.00  0.00     0.043 A 
ATOM      7  O   UNL d   1      59.309  49.704  52.548  0.00  0.00    -0.286 OA
ATOM      8  O   UNL d   1      60.160  49.708  49.369  0.00  0.00    -0.286 OA
ATOM      9 CL   UNL d   1      61.327  49.708  50.537  0.00  0.00    -0.078 Cl
ATOM     10 CL   UNL d   1      60.905  49.706  52.123  0.00  0.00    -0.078 Cl
ATOM     11  C   UNL d   1      58.154  49.704  51.392  0.00  0.00     0.003 A 
ATOM     12  C   UNL d   1      58.566  49.706  49.808  0.00  0.00     0.003 A 
ATOM     13  C   UNL d   1      57.570  49.704  50.812  0.00  0.00     0.000 A 
ATOM     14  C   UNL d   1      57.774  49.705  49.999  0.00  0.00     0.000 A 
ENDROOT
TORSDOF 0
ENDMDL
MODEL 2
REMARK VINA RESULT:      21.4      1.144      2.336
REMARK  0 active torsions:
REMARK  status: ('A' for Active; 'I' for Inactive)
ROOT
ATOM      1  C   UNL d   1      59.091  49.702  50.476  0.00  0.00     0.110 A 
ATOM      2  C   UNL d   1      58.655  49.702  51.176  0.00  0.00     0.110 A 
ATOM      3  C   UNL d   1      58.707  49.697  49.741  0.00  0.00     0.207 A 
ATOM      4  C   UNL d   1      57.834  49.698  51.141  0.00  0.00     0.207 A 
ATOM      5  C   UNL d   1      57.889  49.693  49.727  0.00  0.00     0.043 A 
ATOM      6  C   UNL d   1      57.453  49.693  50.428  0.00  0.00     0.043 A 
ATOM      7  O   UNL d   1      59.138  49.697  49.048  0.00  0.00    -0.286 OA
ATOM      8  O   UNL d   1      57.394  49.698  51.839  0.00  0.00    -0.286 OA
ATOM      9 CL   UNL d   1      59.044  49.707  51.894  0.00  0.00    -0.078 Cl
ATOM     10 CL   UNL d   1      59.916  49.706  50.504  0.00  0.00    -0.078 Cl
ATOM     11  C   UNL d   1      57.505  49.688  48.992  0.00  0.00     0.003 A 
ATOM     12  C   UNL d   1      56.628  49.688  50.373  0.00  0.00     0.003 A 
ATOM     13  C   UNL d   1      56.682  49.683  48.960  0.00  0.00     0.000 A 
ATOM     14  C   UNL d   1      56.227  49.684  49.664  0.00  0.00     0.000 A 
ENDROOT
TORSDOF 0
ENDMDL
MODEL 3
REMARK VINA RESULT:      22.3      2.009      2.646
REMARK  0 active torsions:
REMARK  status: ('A' for Active; 'I' for Inactive)
ROOT
ATOM      1  C   UNL d   1      57.060  49.683  50.844  0.00  0.00     0.110 A 
ATOM      2  C   UNL d   1      57.147  49.684  50.023  0.00  0.00     0.110 A 
ATOM      3  C   UNL d   1      57.727  49.686  51.338  0.00  0.00     0.207 A 
ATOM      4  C   UNL d   1      57.901  49.687  49.697  0.00  0.00     0.207 A 
ATOM      5  C   UNL d   1      58.468  49.689  50.993  0.00  0.00     0.043 A 
ATOM      6  C   UNL d   1      58.555  49.690  50.173  0.00  0.00     0.043 A 
ATOM      7  O   UNL d   1      57.641  49.685  52.149  0.00  0.00    -0.286 OA
ATOM      8  O   UNL d   1      57.993  49.688  48.877  0.00  0.00    -0.286 OA
ATOM      9 CL   UNL d   1      56.484  49.681  49.547  0.00  0.00    -0.078 Cl
ATOM     10 CL   UNL d   1      56.306  49.679  51.178  0.00  0.00    -0.078 Cl
ATOM     11  C   UNL d   1      59.135  49.692  51.487  0.00  0.00     0.003 A 
ATOM     12  C   UNL d   1      59.321  49.694  49.862  0.00  0.00     0.003 A 
ATOM     13  C   UNL d   1      59.889  49.696  51.157  0.00  0.00     0.000 A 
ATOM     14  C   UNL d   1      59.991  49.697  50.325  0.00  0.00     0.000 A 
ENDROOT
TORSDOF 0
ENDMDL
MODEL 4
REMARK VINA RESULT:      23.5      1.316      2.278
REMARK  0 active torsions:
REMARK  status: ('A' for Active; 'I' for Inactive)
ROOT
ATOM      1  C   UNL d   1      58.807  49.679  50.653  0.00  0.00     0.110 A 
ATOM      2  C   UNL d   1      59.375  49.684  50.054  0.00  0.00     0.110 A 
ATOM      3  C   UNL d   1      59.037  49.674  51.450  0.00  0.00     0.207 A 
ATOM      4  C   UNL d   1      60.171  49.684  50.252  0.00  0.00     0.207 A 
ATOM      5  C   UNL d   1      59.835  49.675  51.627  0.00  0.00     0.043 A 
ATOM      6  C   UNL d   1      60.403  49.679  51.028  0.00  0.00     0.043 A 
ATOM      7  O   UNL d   1      58.476  49.670  52.043  0.00  0.00    -0.286 OA
ATOM      8  O   UNL d   1      60.742  49.689  49.657  0.00  0.00    -0.286 OA
ATOM      9 CL   UNL d   1      59.137  49.688  49.272  0.00  0.00    -0.078 Cl
ATOM     10 CL   UNL d   1      58.005  49.679  50.460  0.00  0.00    -0.078 Cl
ATOM     11  C   UNL d   1      60.065  49.670  52.424  0.00  0.00     0.003 A 
ATOM     12  C   UNL d   1      61.200  49.679  51.246  0.00  0.00     0.003 A 
ATOM     13  C   UNL d   1      60.865  49.670  52.619  0.00  0.00     0.000 A 
ATOM     14  C   UNL d   1      61.451  49.675  52.021  0.00  0.00     0.000 A 
ENDROOT
TORSDOF 0
ENDMDL
