MODEL 1
REMARK VINA RESULT:      -8.8      0.000      0.000
REMARK  3 active torsions:
REMARK  status: ('A' for Active; 'I' for Inactive)
REMARK    1  A    between atoms: C_10  and  C_5 
REMARK    2  A    between atoms: C_16  and  C_10 
REMARK    3  A    between atoms: C_17  and  C_16 
ROOT
ATOM      1  C   UNL d   1     -47.130  13.829  22.950  0.00  0.00     0.111 A 
ATOM      2  C   UNL d   1     -46.995  12.423  23.230  0.00  0.00     0.062 A 
ATOM      3  C   UNL d   1     -46.251  13.881  23.018  0.00  0.00     0.213 A 
ATOM      4  C   UNL d   1     -46.202  12.489  23.287  0.00  0.00     0.101 A 
ATOM      5  C   UNL d   1     -47.460  13.096  23.061  0.00  0.00     0.018 A 
ATOM      6  O   UNL d   1     -45.831  13.216  23.182  0.00  0.00    -0.288 OA
ATOM      7  C   UNL d   1     -47.375  11.689  23.336  0.00  0.00     0.194 A 
ATOM      8  C   UNL d   1     -47.589  14.493  22.784  0.00  0.00     0.105 C 
ATOM      9  N   UNL d   1     -48.069  15.149  22.616  0.00  0.00    -0.191 NA
ATOM     10  C   UNL d   1     -45.742  11.824  23.454  0.00  0.00     0.002 A 
ATOM     11  C   UNL d   1     -46.074  11.091  23.565  0.00  0.00     0.042 A 
ATOM     12  C   UNL d   1     -46.946  11.031  23.499  0.00  0.00     0.019 A 
ATOM     13  O   UNL d   1     -48.228  11.622  23.274  0.00  0.00    -0.287 OA
ATOM     14  N   UNL d   1     -45.827  14.619  22.915  0.00  0.00    -0.120 N 
ATOM     15  C   UNL d   1     -45.324  10.750  23.696  0.00  0.00     0.009 C 
ATOM     16  C   UNL d   1     -46.256  10.307  23.698  0.00  0.00     0.009 C 
ENDROOT
BRANCH   5  17
ATOM     17  C   UNL d   1     -48.315  13.049  22.994  0.00  0.00     0.001 C 
BRANCH  17  18
ATOM     18  C   UNL d   1     -48.645  12.698  22.326  0.00  0.00     0.000 C 
BRANCH  18  19
ATOM     19  C   UNL d   1     -49.457  12.791  22.208  0.00  0.00     0.000 A 
ATOM     20  C   UNL d   1     -49.726  12.924  21.431  0.00  0.00     0.000 A 
ATOM     21  C   UNL d   1     -50.525  13.018  21.299  0.00  0.00     0.000 A 
ATOM     22  C   UNL d   1     -51.064  12.981  21.929  0.00  0.00     0.000 A 
ATOM     23  C   UNL d   1     -50.796  12.848  22.705  0.00  0.00     0.000 A 
ATOM     24  C   UNL d   1     -50.000  12.754  22.841  0.00  0.00     0.000 A 
ENDBRANCH  18  19
ENDBRANCH  17  18
ENDBRANCH   5  17
TORSDOF 3
ENDMDL
MODEL 2
REMARK VINA RESULT:      -8.5      2.086      4.355
REMARK  3 active torsions:
REMARK  status: ('A' for Active; 'I' for Inactive)
REMARK    1  A    between atoms: C_10  and  C_5 
REMARK    2  A    between atoms: C_16  and  C_10 
REMARK    3  A    between atoms: C_17  and  C_16 
ROOT
ATOM      1  C   UNL d   1     -49.111  12.355  23.465  0.00  0.00     0.111 A 
ATOM      2  C   UNL d   1     -49.315  13.776  23.352  0.00  0.00     0.062 A 
ATOM      3  C   UNL d   1     -49.983  12.284  23.577  0.00  0.00     0.213 A 
ATOM      4  C   UNL d   1     -50.102  13.692  23.456  0.00  0.00     0.101 A 
ATOM      5  C   UNL d   1     -48.818  13.105  23.357  0.00  0.00     0.018 A 
ATOM      6  O   UNL d   1     -50.435  12.948  23.568  0.00  0.00    -0.288 OA
ATOM      7  C   UNL d   1     -48.974  14.527  23.239  0.00  0.00     0.194 A 
ATOM      8  C   UNL d   1     -48.620  11.693  23.469  0.00  0.00     0.105 C 
ATOM      9  N   UNL d   1     -48.109  11.039  23.470  0.00  0.00    -0.191 NA
ATOM     10  C   UNL d   1     -50.594  14.355  23.451  0.00  0.00     0.002 A 
ATOM     11  C   UNL d   1     -50.300  15.105  23.344  0.00  0.00     0.042 A 
ATOM     12  C   UNL d   1     -49.434  15.184  23.231  0.00  0.00     0.019 A 
ATOM     13  O   UNL d   1     -48.127  14.614  23.128  0.00  0.00    -0.287 OA
ATOM     14  N   UNL d   1     -50.369  11.527  23.697  0.00  0.00    -0.120 N 
ATOM     15  C   UNL d   1     -51.064  15.434  23.404  0.00  0.00     0.009 C 
ATOM     16  C   UNL d   1     -50.158  15.902  23.250  0.00  0.00     0.009 C 
ENDROOT
BRANCH   5  17
ATOM     17  C   UNL d   1     -47.969  13.171  23.248  0.00  0.00     0.001 C 
BRANCH  17  18
ATOM     18  C   UNL d   1     -47.670  13.254  22.485  0.00  0.00     0.000 C 
BRANCH  18  19
ATOM     19  C   UNL d   1     -46.850  13.239  22.393  0.00  0.00     0.000 A 
ATOM     20  C   UNL d   1     -46.542  12.955  21.673  0.00  0.00     0.000 A 
ATOM     21  C   UNL d   1     -45.734  12.935  21.568  0.00  0.00     0.000 A 
ATOM     22  C   UNL d   1     -45.223  13.193  22.169  0.00  0.00     0.000 A 
ATOM     23  C   UNL d   1     -45.530  13.476  22.889  0.00  0.00     0.000 A 
ATOM     24  C   UNL d   1     -46.336  13.499  22.998  0.00  0.00     0.000 A 
ENDBRANCH  18  19
ENDBRANCH  17  18
ENDBRANCH   5  17
TORSDOF 3
ENDMDL
MODEL 3
REMARK VINA RESULT:      -8.0      1.332      3.663
REMARK  3 active torsions:
REMARK  status: ('A' for Active; 'I' for Inactive)
REMARK    1  A    between atoms: C_10  and  C_5 
REMARK    2  A    between atoms: C_16  and  C_10 
REMARK    3  A    between atoms: C_17  and  C_16 
ROOT
ATOM      1  C   UNL d   1     -48.502  14.558  22.761  0.00  0.00     0.111 A 
ATOM      2  C   UNL d   1     -49.042  13.242  22.982  0.00  0.00     0.062 A 
ATOM      3  C   UNL d   1     -49.286  14.874  23.017  0.00  0.00     0.213 A 
ATOM      4  C   UNL d   1     -49.744  13.545  23.211  0.00  0.00     0.101 A 
ATOM      5  C   UNL d   1     -48.419  13.750  22.757  0.00  0.00     0.018 A 
ATOM      6  O   UNL d   1     -49.865  14.359  23.228  0.00  0.00    -0.288 OA
ATOM      7  C   UNL d   1     -48.915  12.419  22.963  0.00  0.00     0.194 A 
ATOM      8  C   UNL d   1     -47.887  15.060  22.538  0.00  0.00     0.105 C 
ATOM      9  N   UNL d   1     -47.255  15.547  22.310  0.00  0.00    -0.191 NA
ATOM     10  C   UNL d   1     -50.360  13.043  23.434  0.00  0.00     0.002 A 
ATOM     11  C   UNL d   1     -50.276  12.235  23.429  0.00  0.00     0.042 A 
ATOM     12  C   UNL d   1     -49.501  11.914  23.176  0.00  0.00     0.019 A 
ATOM     13  O   UNL d   1     -48.159  12.096  22.717  0.00  0.00    -0.287 OA
ATOM     14  N   UNL d   1     -49.452  15.714  23.048  0.00  0.00    -0.120 N 
ATOM     15  C   UNL d   1     -51.060  12.133  23.698  0.00  0.00     0.009 C 
ATOM     16  C   UNL d   1     -50.344  11.424  23.476  0.00  0.00     0.009 C 
ENDROOT
BRANCH   5  17
ATOM     17  C   UNL d   1     -47.656  13.446  22.507  0.00  0.00     0.001 C 
BRANCH  17  18
ATOM     18  C   UNL d   1     -47.059  13.358  23.067  0.00  0.00     0.000 C 
BRANCH  18  19
ATOM     19  C   UNL d   1     -46.336  13.056  22.810  0.00  0.00     0.000 A 
ATOM     20  C   UNL d   1     -46.006  12.418  23.232  0.00  0.00     0.000 A 
ATOM     21  C   UNL d   1     -45.292  12.110  22.989  0.00  0.00     0.000 A 
ATOM     22  C   UNL d   1     -44.897  12.424  22.330  0.00  0.00     0.000 A 
ATOM     23  C   UNL d   1     -45.226  13.061  21.907  0.00  0.00     0.000 A 
ATOM     24  C   UNL d   1     -45.938  13.373  22.147  0.00  0.00     0.000 A 
ENDBRANCH  18  19
ENDBRANCH  17  18
ENDBRANCH   5  17
TORSDOF 3
ENDMDL
MODEL 4
REMARK VINA RESULT:      -7.6      1.628      2.333
REMARK  3 active torsions:
REMARK  status: ('A' for Active; 'I' for Inactive)
REMARK    1  A    between atoms: C_10  and  C_5 
REMARK    2  A    between atoms: C_16  and  C_10 
REMARK    3  A    between atoms: C_17  and  C_16 
ROOT
ATOM      1  C   UNL d   1     -47.882  11.754  23.305  0.00  0.00     0.111 A 
ATOM      2  C   UNL d   1     -47.055  12.825  22.814  0.00  0.00     0.062 A 
ATOM      3  C   UNL d   1     -47.141  11.284  23.398  0.00  0.00     0.213 A 
ATOM      4  C   UNL d   1     -46.395  12.386  22.905  0.00  0.00     0.101 A 
ATOM      5  C   UNL d   1     -47.801  12.508  23.014  0.00  0.00     0.018 A 
ATOM      6  O   UNL d   1     -46.439  11.617  23.196  0.00  0.00    -0.288 OA
ATOM      7  C   UNL d   1     -47.016  13.603  22.519  0.00  0.00     0.194 A 
ATOM      8  C   UNL d   1     -48.619  11.441  23.503  0.00  0.00     0.105 C 
ATOM      9  N   UNL d   1     -49.370  11.145  23.696  0.00  0.00    -0.191 NA
ATOM     10  C   UNL d   1     -45.658  12.699  22.707  0.00  0.00     0.002 A 
ATOM     11  C   UNL d   1     -45.577  13.453  22.417  0.00  0.00     0.042 A 
ATOM     12  C   UNL d   1     -46.309  13.926  22.321  0.00  0.00     0.019 A 
ATOM     13  O   UNL d   1     -47.728  14.074  22.422  0.00  0.00    -0.287 OA
ATOM     14  N   UNL d   1     -47.143  10.481  23.698  0.00  0.00    -0.120 N 
ATOM     15  C   UNL d   1     -44.750  13.363  22.359  0.00  0.00     0.009 C 
ATOM     16  C   UNL d   1     -45.340  14.175  22.121  0.00  0.00     0.009 C 
ENDROOT
BRANCH   5  17
ATOM     17  C   UNL d   1     -48.524  12.962  22.925  0.00  0.00     0.001 C 
BRANCH  17  18
ATOM     18  C   UNL d   1     -48.821  13.095  22.168  0.00  0.00     0.000 C 
BRANCH  18  19
ATOM     19  C   UNL d   1     -49.565  13.448  22.107  0.00  0.00     0.000 A 
ATOM     20  C   UNL d   1     -50.126  13.092  21.604  0.00  0.00     0.000 A 
ATOM     21  C   UNL d   1     -50.864  13.430  21.534  0.00  0.00     0.000 A 
ATOM     22  C   UNL d   1     -51.057  14.119  21.956  0.00  0.00     0.000 A 
ATOM     23  C   UNL d   1     -50.496  14.474  22.458  0.00  0.00     0.000 A 
ATOM     24  C   UNL d   1     -49.758  14.141  22.531  0.00  0.00     0.000 A 
ENDBRANCH  18  19
ENDBRANCH  17  18
ENDBRANCH   5  17
TORSDOF 3
ENDMDL
MODEL 5
REMARK VINA RESULT:      -7.3      1.082      1.202
REMARK  3 active torsions:
REMARK  status: ('A' for Active; 'I' for Inactive)
REMARK    1  A    between atoms: C_10  and  C_5 
REMARK    2  A    between atoms: C_16  and  C_10 
REMARK    3  A    between atoms: C_17  and  C_16 
ROOT
ATOM      1  C   UNL d   1     -46.481  14.073  22.682  0.00  0.00     0.111 A 
ATOM      2  C   UNL d   1     -46.884  12.761  23.118  0.00  0.00     0.062 A 
ATOM      3  C   UNL d   1     -45.681  13.729  22.538  0.00  0.00     0.213 A 
ATOM      4  C   UNL d   1     -46.155  12.468  22.982  0.00  0.00     0.101 A 
ATOM      5  C   UNL d   1     -47.048  13.566  22.967  0.00  0.00     0.018 A 
ATOM      6  O   UNL d   1     -45.555  12.952  22.693  0.00  0.00    -0.288 OA
ATOM      7  C   UNL d   1     -47.495  12.275  23.411  0.00  0.00     0.194 A 
ATOM      8  C   UNL d   1     -46.643  14.867  22.533  0.00  0.00     0.105 C 
ATOM      9  N   UNL d   1     -46.827  15.664  22.389  0.00  0.00    -0.191 NA
ATOM     10  C   UNL d   1     -45.993  11.673  23.131  0.00  0.00     0.002 A 
ATOM     11  C   UNL d   1     -46.560  11.167  23.417  0.00  0.00     0.042 A 
ATOM     12  C   UNL d   1     -47.358  11.499  23.562  0.00  0.00     0.019 A 
ATOM     13  O   UNL d   1     -48.279  12.593  23.556  0.00  0.00    -0.287 OA
ATOM     14  N   UNL d   1     -45.030  14.199  22.237  0.00  0.00    -0.120 N 
ATOM     15  C   UNL d   1     -46.020  10.531  23.419  0.00  0.00     0.009 C 
ATOM     16  C   UNL d   1     -47.013  10.549  23.697  0.00  0.00     0.009 C 
ENDROOT
BRANCH   5  17
ATOM     17  C   UNL d   1     -47.826  13.902  23.106  0.00  0.00     0.001 C 
BRANCH  17  18
ATOM     18  C   UNL d   1     -48.351  13.970  22.475  0.00  0.00     0.000 C 
BRANCH  18  19
ATOM     19  C   UNL d   1     -49.106  14.260  22.635  0.00  0.00     0.000 A 
ATOM     20  C   UNL d   1     -49.728  14.034  22.130  0.00  0.00     0.000 A 
ATOM     21  C   UNL d   1     -50.479  14.313  22.276  0.00  0.00     0.000 A 
ATOM     22  C   UNL d   1     -50.625  14.817  22.920  0.00  0.00     0.000 A 
ATOM     23  C   UNL d   1     -50.004  15.044  23.425  0.00  0.00     0.000 A 
ATOM     24  C   UNL d   1     -49.253  14.767  23.283  0.00  0.00     0.000 A 
ENDBRANCH  18  19
ENDBRANCH  17  18
ENDBRANCH   5  17
TORSDOF 3
ENDMDL
MODEL 6
REMARK VINA RESULT:      -6.9      1.951      2.632
REMARK  3 active torsions:
REMARK  status: ('A' for Active; 'I' for Inactive)
REMARK    1  A    between atoms: C_10  and  C_5 
REMARK    2  A    between atoms: C_16  and  C_10 
REMARK    3  A    between atoms: C_17  and  C_16 
ROOT
ATOM      1  C   UNL d   1     -49.312  12.095  23.555  0.00  0.00     0.111 A 
ATOM      2  C   UNL d   1     -48.040  12.746  23.377  0.00  0.00     0.062 A 
ATOM      3  C   UNL d   1     -48.867  11.334  23.587  0.00  0.00     0.213 A 
ATOM      4  C   UNL d   1     -47.654  12.048  23.410  0.00  0.00     0.101 A 
ATOM      5  C   UNL d   1     -48.871  12.769  23.450  0.00  0.00     0.018 A 
ATOM      6  O   UNL d   1     -48.068  11.344  23.514  0.00  0.00    -0.288 OA
ATOM      7  C   UNL d   1     -47.626  13.461  23.272  0.00  0.00     0.194 A 
ATOM      8  C   UNL d   1     -50.133  12.118  23.626  0.00  0.00     0.105 C 
ATOM      9  N   UNL d   1     -50.959  12.164  23.696  0.00  0.00    -0.191 NA
ATOM     10  C   UNL d   1     -46.833  12.024  23.338  0.00  0.00     0.002 A 
ATOM     11  C   UNL d   1     -46.393  12.699  23.233  0.00  0.00     0.042 A 
ATOM     12  C   UNL d   1     -46.827  13.460  23.200  0.00  0.00     0.019 A 
ATOM     13  O   UNL d   1     -48.044  14.210  23.238  0.00  0.00    -0.287 OA
ATOM     14  N   UNL d   1     -49.260  10.579  23.695  0.00  0.00    -0.120 N 
ATOM     15  C   UNL d   1     -45.685  12.258  23.212  0.00  0.00     0.009 C 
ATOM     16  C   UNL d   1     -45.826  13.276  23.127  0.00  0.00     0.009 C 
ENDROOT
BRANCH   5  17
ATOM     17  C   UNL d   1     -49.307  13.509  23.419  0.00  0.00     0.001 C 
BRANCH  17  18
ATOM     18  C   UNL d   1     -49.431  13.868  22.688  0.00  0.00     0.000 C 
BRANCH  18  19
ATOM     19  C   UNL d   1     -49.955  14.505  22.661  0.00  0.00     0.000 A 
ATOM     20  C   UNL d   1     -50.496  14.539  22.028  0.00  0.00     0.000 A 
ATOM     21  C   UNL d   1     -51.020  15.162  21.988  0.00  0.00     0.000 A 
ATOM     22  C   UNL d   1     -51.015  15.757  22.568  0.00  0.00     0.000 A 
ATOM     23  C   UNL d   1     -50.475  15.723  23.200  0.00  0.00     0.000 A 
ATOM     24  C   UNL d   1     -49.951  15.103  23.244  0.00  0.00     0.000 A 
ENDBRANCH  18  19
ENDBRANCH  17  18
ENDBRANCH   5  17
TORSDOF 3
ENDMDL
MODEL 7
REMARK VINA RESULT:      -6.5      8.471      9.825
REMARK  3 active torsions:
REMARK  status: ('A' for Active; 'I' for Inactive)
REMARK    1  A    between atoms: C_10  and  C_5 
REMARK    2  A    between atoms: C_16  and  C_10 
REMARK    3  A    between atoms: C_17  and  C_16 
ROOT
ATOM      1  C   UNL d   1     -40.405  15.139  18.944  0.00  0.00     0.111 A 
ATOM      2  C   UNL d   1     -39.420  14.217  18.443  0.00  0.00     0.062 A 
ATOM      3  C   UNL d   1     -40.577  15.342  18.103  0.00  0.00     0.213 A 
ATOM      4  C   UNL d   1     -39.589  14.413  17.688  0.00  0.00     0.101 A 
ATOM      5  C   UNL d   1     -39.829  14.581  19.073  0.00  0.00     0.018 A 
ATOM      6  O   UNL d   1     -40.167  14.975  17.519  0.00  0.00    -0.288 OA
ATOM      7  C   UNL d   1     -38.836  13.649  18.619  0.00  0.00     0.194 A 
ATOM      8  C   UNL d   1     -40.809  15.499  19.566  0.00  0.00     0.105 C 
ATOM      9  N   UNL d   1     -41.204  15.849  20.207  0.00  0.00    -0.191 NA
ATOM     10  C   UNL d   1     -39.184  14.053  17.066  0.00  0.00     0.002 A 
ATOM     11  C   UNL d   1     -38.609  13.495  17.195  0.00  0.00     0.042 A 
ATOM     12  C   UNL d   1     -38.431  13.287  18.028  0.00  0.00     0.019 A 
ATOM     13  O   UNL d   1     -38.656  13.440  19.432  0.00  0.00    -0.287 OA
ATOM     14  N   UNL d   1     -41.171  15.921  17.885  0.00  0.00    -0.120 N 
ATOM     15  C   UNL d   1     -38.481  13.409  16.375  0.00  0.00     0.009 C 
ATOM     16  C   UNL d   1     -38.020  12.931  17.166  0.00  0.00     0.009 C 
ENDROOT
BRANCH   5  17
ATOM     17  C   UNL d   1     -39.663  14.386  19.893  0.00  0.00     0.001 C 
BRANCH  17  18
ATOM     18  C   UNL d   1     -39.002  14.716  20.257  0.00  0.00     0.000 C 
BRANCH  18  19
ATOM     19  C   UNL d   1     -38.915  14.598  21.068  0.00  0.00     0.000 A 
ATOM     20  C   UNL d   1     -38.477  15.160  21.500  0.00  0.00     0.000 A 
ATOM     21  C   UNL d   1     -38.383  15.056  22.303  0.00  0.00     0.000 A 
ATOM     22  C   UNL d   1     -38.717  14.401  22.687  0.00  0.00     0.000 A 
ATOM     23  C   UNL d   1     -39.154  13.839  22.256  0.00  0.00     0.000 A 
ATOM     24  C   UNL d   1     -39.251  13.939  21.455  0.00  0.00     0.000 A 
ENDBRANCH  18  19
ENDBRANCH  17  18
ENDBRANCH   5  17
TORSDOF 3
ENDMDL
