MODEL 1
REMARK VINA RESULT:     134.0      0.000      0.000
REMARK  4 active torsions:
REMARK  status: ('A' for Active; 'I' for Inactive)
REMARK    1  A    between atoms: C_6  and  C_1 
REMARK    2  A    between atoms: C_4  and  C_11 
REMARK    3  A    between atoms: N_8  and  C_6 
REMARK    4  A    between atoms: C_13  and  C_6 
ROOT
ATOM      1  C   UNL d   1      60.007  48.071  50.894  0.00  0.00     0.067 C 
ENDROOT
BRANCH   1   2
ATOM      2  C   UNL d   1      60.383  48.483  51.518  0.00  0.00     0.057 A 
ATOM      3  C   UNL d   1      61.192  48.487  51.574  0.00  0.00     0.214 A 
ATOM      4  C   UNL d   1      61.580  48.891  52.188  0.00  0.00     0.121 A 
ATOM      5  O   UNL d   1      61.637  48.067  50.990  0.00  0.00    -0.285 OA
ATOM      6  N   UNL d   1      62.389  48.896  52.245  0.00  0.00    -0.241 NA
ATOM      7  C   UNL d   1      61.129  49.295  52.749  0.00  0.00     0.032 A 
ATOM      8  C   UNL d   1      62.757  49.293  52.847  0.00  0.00     0.099 A 
ATOM      9  C   UNL d   1      62.306  49.696  53.407  0.00  0.00     0.021 A 
ATOM     10  C   UNL d   1      61.489  49.700  53.363  0.00  0.00     0.004 A 
ATOM     11  C   UNL d   1      60.291  49.292  52.693  0.00  0.00     0.059 A 
ATOM     12  C   UNL d   1      59.931  48.886  52.079  0.00  0.00     0.016 A 
ATOM     13 CL   UNL d   1      59.822  49.689  53.243  0.00  0.00    -0.082 Cl
ENDBRANCH   1   2
BRANCH   1  14
ATOM     14  N   UNL d   1      60.347  47.393  50.560  0.00  0.00    -0.301 N 
ATOM     15  C   UNL d   1      60.211  46.641  50.863  0.00  0.00     0.100 A 
ATOM     16  C   UNL d   1      60.556  45.979  50.520  0.00  0.00     0.100 A 
ATOM     17  N   UNL d   1      61.037  46.065  49.874  0.00  0.00    -0.299 N 
ATOM     18  C   UNL d   1      61.180  46.823  49.558  0.00  0.00     0.100 A 
ATOM     19  C   UNL d   1      61.373  45.388  49.544  0.00  0.00     0.100 C 
ATOM     20  C   UNL d   1      60.843  47.471  49.894  0.00  0.00     0.100 A 
ENDBRANCH   1  14
BRANCH   1  21
ATOM     21  C   UNL d   1      59.276  48.344  50.600  0.00  0.00     0.016 A 
ATOM     22  C   UNL d   1      58.569  48.049  50.906  0.00  0.00     0.001 A 
ATOM     23  C   UNL d   1      57.847  48.312  50.623  0.00  0.00     0.004 A 
ATOM     24  C   UNL d   1      57.818  48.880  50.020  0.00  0.00     0.071 A 
ATOM     25  C   UNL d   1      58.521  49.173  49.715  0.00  0.00     0.004 A 
ATOM     26  C   UNL d   1      59.247  48.912  49.998  0.00  0.00     0.001 A 
BRANCH  24  27
ATOM     27  C   UNL d   1      57.111  49.149  49.730  0.00  0.00     0.419 C 
ATOM     28  F   UNL d   1      56.437  49.459  49.396  0.00  0.00    -0.166 F 
ATOM     29  F   UNL d   1      56.344  48.871  50.029  0.00  0.00    -0.166 F 
ATOM     30  F   UNL d   1      57.142  49.676  49.161  0.00  0.00    -0.166 F 
ENDBRANCH  24  27
ENDBRANCH   1  21
TORSDOF 4
ENDMDL
MODEL 2
REMARK VINA RESULT:     135.1      2.528      4.114
REMARK  4 active torsions:
REMARK  status: ('A' for Active; 'I' for Inactive)
REMARK    1  A    between atoms: C_6  and  C_1 
REMARK    2  A    between atoms: C_4  and  C_11 
REMARK    3  A    between atoms: N_8  and  C_6 
REMARK    4  A    between atoms: C_13  and  C_6 
ROOT
ATOM      1  C   UNL d   1      59.823  48.925  51.275  0.00  0.00     0.067 C 
ENDROOT
BRANCH   1   2
ATOM      2  C   UNL d   1      60.401  48.583  50.777  0.00  0.00     0.057 A 
ATOM      3  C   UNL d   1      60.518  47.781  50.777  0.00  0.00     0.214 A 
ATOM      4  C   UNL d   1      61.089  47.427  50.287  0.00  0.00     0.121 A 
ATOM      5  O   UNL d   1      60.042  47.307  51.291  0.00  0.00    -0.285 OA
ATOM      6  N   UNL d   1      61.205  46.624  50.288  0.00  0.00    -0.241 NA
ATOM      7  C   UNL d   1      61.543  47.906  49.793  0.00  0.00     0.032 A 
ATOM      8  C   UNL d   1      61.764  46.290  49.807  0.00  0.00     0.099 A 
ATOM      9  C   UNL d   1      62.219  46.769  49.312  0.00  0.00     0.021 A 
ATOM     10  C   UNL d   1      62.112  47.580  49.301  0.00  0.00     0.004 A 
ATOM     11  C   UNL d   1      61.424  48.737  49.790  0.00  0.00     0.059 A 
ATOM     12  C   UNL d   1      60.856  49.063  50.282  0.00  0.00     0.016 A 
ATOM     13 CL   UNL d   1      61.869  49.233  49.303  0.00  0.00    -0.082 Cl
ENDBRANCH   1   2
BRANCH   1  14
ATOM     14  N   UNL d   1      59.067  49.115  50.991  0.00  0.00    -0.301 N 
ATOM     15  C   UNL d   1      58.905  49.173  50.188  0.00  0.00     0.100 A 
ATOM     16  C   UNL d   1      58.151  49.361  49.922  0.00  0.00     0.100 A 
ATOM     17  N   UNL d   1      57.557  49.493  50.457  0.00  0.00    -0.299 N 
ATOM     18  C   UNL d   1      57.711  49.436  51.274  0.00  0.00     0.100 A 
ATOM     19  C   UNL d   1      56.806  49.681  50.170  0.00  0.00     0.100 C 
ATOM     20  C   UNL d   1      58.449  49.252  51.535  0.00  0.00     0.100 A 
ENDBRANCH   1  14
BRANCH   1  21
ATOM     21  C   UNL d   1      60.004  49.080  52.074  0.00  0.00     0.016 A 
ATOM     22  C   UNL d   1      60.680  49.511  52.270  0.00  0.00     0.001 A 
ATOM     23  C   UNL d   1      60.865  49.667  53.052  0.00  0.00     0.004 A 
ATOM     24  C   UNL d   1      60.373  49.393  53.660  0.00  0.00     0.071 A 
ATOM     25  C   UNL d   1      59.701  48.964  53.465  0.00  0.00     0.004 A 
ATOM     26  C   UNL d   1      59.512  48.805  52.682  0.00  0.00     0.001 A 
BRANCH  24  27
ATOM     27  C   UNL d   1      60.544  49.540  54.439  0.00  0.00     0.419 C 
ATOM     28  F   UNL d   1      60.649  49.692  55.231  0.00  0.00    -0.166 F 
ATOM     29  F   UNL d   1      61.358  49.580  54.741  0.00  0.00    -0.166 F 
ATOM     30  F   UNL d   1      59.943  49.648  54.916  0.00  0.00    -0.166 F 
ENDBRANCH  24  27
ENDBRANCH   1  21
TORSDOF 4
ENDMDL
