MODEL 1
REMARK VINA RESULT:       1.0      0.000      0.000
REMARK  6 active torsions:
REMARK  status: ('A' for Active; 'I' for Inactive)
REMARK    1  A    between atoms: C_10  and  N_6 
REMARK    2  A    between atoms: S_14  and  C_9 
REMARK    3  A    between atoms: C_17  and  C_10 
REMARK    4  A    between atoms: N_13  and  C_25 
REMARK    5  A    between atoms: C_20  and  S_14 
REMARK    6  A    between atoms: C_25  and  C_20 
ROOT
ATOM      1  C   UNL d   1      56.674  -1.095  31.967  0.00  0.00     0.174 A 
ATOM      2  C   UNL d   1      56.959  -0.360  32.233  0.00  0.00     0.158 A 
ATOM      3  N   UNL d   1      57.037  -1.260  31.245  0.00  0.00    -0.203 NA
ATOM      4  N   UNL d   1      56.123  -1.511  32.423  0.00  0.00    -0.240 N 
ATOM      5  N   UNL d   1      56.141  -0.466  33.401  0.00  0.00    -0.223 N 
ATOM      6  N   UNL d   1      57.494  -0.078  31.673  0.00  0.00    -0.279 N 
ATOM      7  C   UNL d   1      55.857  -1.201  33.136  0.00  0.00     0.343 A 
ATOM      8  C   UNL d   1      56.688  -0.050  32.952  0.00  0.00     0.287 A 
ATOM      9  C   UNL d   1      57.537  -0.637  31.068  0.00  0.00     0.181 A 
ATOM     10  O   UNL d   1      55.302  -1.621  33.593  0.00  0.00    -0.245 OA
ATOM     11  O   UNL d   1      56.971   0.680  33.216  0.00  0.00    -0.265 OA
ATOM     12  C   UNL d   1      55.840  -2.241  32.160  0.00  0.00     0.105 C 
ATOM     13  C   UNL d   1      55.874  -0.155  34.116  0.00  0.00     0.107 C 
ENDROOT
BRANCH   9  14
ATOM     14  S   UNL d   1      58.013  -0.579  30.384  0.00  0.00    -0.048 SA
BRANCH  14  15
ATOM     15  C   UNL d   1      58.005  -1.178  29.825  0.00  0.00     0.057 C 
BRANCH  15  16
ATOM     16  C   UNL d   1      58.498  -1.126  29.166  0.00  0.00     0.087 C 
BRANCH  16  17
ATOM     17  N   UNL d   1      59.008  -1.746  28.995  0.00  0.00    -0.302 N 
ATOM     18  C   UNL d   1      58.791  -2.516  29.177  0.00  0.00     0.080 A 
ATOM     19  C   UNL d   1      59.300  -3.136  29.006  0.00  0.00     0.019 A 
ATOM     20  C   UNL d   1      60.024  -2.987  28.654  0.00  0.00     0.003 A 
ATOM     21  C   UNL d   1      60.242  -2.217  28.471  0.00  0.00     0.019 A 
ATOM     22  C   UNL d   1      59.734  -1.592  28.641  0.00  0.00     0.080 A 
ENDBRANCH  16  17
ENDBRANCH  15  16
ENDBRANCH  14  15
ENDBRANCH   9  14
BRANCH   6  23
ATOM     23  C   UNL d   1      57.908   0.634  31.717  0.00  0.00     0.082 C 
BRANCH  23  24
ATOM     24  C   UNL d   1      58.721   0.642  31.883  0.00  0.00     0.018 A 
ATOM     25  C   UNL d   1      58.967   0.617  32.672  0.00  0.00     0.002 A 
ATOM     26  C   UNL d   1      59.771   0.624  32.849  0.00  0.00     0.011 A 
ATOM     27  C   UNL d   1      60.327   0.655  32.234  0.00  0.00     0.058 A 
ATOM     28  C   UNL d   1      60.070   0.679  31.440  0.00  0.00     0.011 A 
ATOM     29 CL   UNL d   1      61.133   0.662  32.406  0.00  0.00    -0.082 Cl
ATOM     30  C   UNL d   1      59.263   0.672  31.277  0.00  0.00     0.002 A 
ENDBRANCH  23  24
ENDBRANCH   6  23
TORSDOF 6
ENDMDL
MODEL 2
REMARK VINA RESULT:       2.7      2.007      3.356
REMARK  6 active torsions:
REMARK  status: ('A' for Active; 'I' for Inactive)
REMARK    1  A    between atoms: C_10  and  N_6 
REMARK    2  A    between atoms: S_14  and  C_9 
REMARK    3  A    between atoms: C_17  and  C_10 
REMARK    4  A    between atoms: N_13  and  C_25 
REMARK    5  A    between atoms: C_20  and  S_14 
REMARK    6  A    between atoms: C_25  and  C_20 
ROOT
ATOM      1  C   UNL d   1      58.598   0.679  33.321  0.00  0.00     0.174 A 
ATOM      2  C   UNL d   1      57.788   0.678  33.508  0.00  0.00     0.158 A 
ATOM      3  N   UNL d   1      58.667   0.679  32.499  0.00  0.00    -0.203 NA
ATOM      4  N   UNL d   1      59.160   0.680  33.929  0.00  0.00    -0.240 N 
ATOM      5  N   UNL d   1      58.111   0.679  34.901  0.00  0.00    -0.223 N 
ATOM      6  N   UNL d   1      57.364   0.677  32.801  0.00  0.00    -0.279 N 
ATOM      7  C   UNL d   1      58.920   0.680  34.714  0.00  0.00     0.343 A 
ATOM      8  C   UNL d   1      57.549   0.678  34.302  0.00  0.00     0.287 A 
ATOM      9  C   UNL d   1      57.912   0.678  32.184  0.00  0.00     0.181 A 
ATOM     10  O   UNL d   1      59.488   0.681  35.324  0.00  0.00    -0.245 OA
ATOM     11  O   UNL d   1      56.744   0.677  34.488  0.00  0.00    -0.265 OA
ATOM     12  C   UNL d   1      59.965   0.681  33.742  0.00  0.00     0.105 C 
ATOM     13  C   UNL d   1      57.870   0.679  35.690  0.00  0.00     0.107 C 
ENDROOT
BRANCH   9  14
ATOM     14  S   UNL d   1      57.727   0.677  31.370  0.00  0.00    -0.048 SA
BRANCH  14  15
ATOM     15  C   UNL d   1      58.326   0.618  30.813  0.00  0.00     0.057 C 
BRANCH  15  16
ATOM     16  C   UNL d   1      58.135   0.610  30.010  0.00  0.00     0.087 C 
BRANCH  16  17
ATOM     17  N   UNL d   1      58.585   0.158  29.495  0.00  0.00    -0.302 N 
ATOM     18  C   UNL d   1      59.221   0.498  29.101  0.00  0.00     0.080 A 
ATOM     19  C   UNL d   1      59.672   0.046  28.585  0.00  0.00     0.019 A 
ATOM     20  C   UNL d   1      59.488  -0.743  28.463  0.00  0.00     0.003 A 
ATOM     21  C   UNL d   1      58.854  -1.083  28.857  0.00  0.00     0.019 A 
ATOM     22  C   UNL d   1      58.398  -0.634  29.375  0.00  0.00     0.080 A 
ENDBRANCH  16  17
ENDBRANCH  15  16
ENDBRANCH  14  15
ENDBRANCH   9  14
BRANCH   6  23
ATOM     23  C   UNL d   1      56.542   0.676  32.731  0.00  0.00     0.082 C 
BRANCH  23  24
ATOM     24  C   UNL d   1      56.114  -0.033  32.791  0.00  0.00     0.018 A 
ATOM     25  C   UNL d   1      55.453  -0.058  33.287  0.00  0.00     0.002 A 
ATOM     26  C   UNL d   1      55.021  -0.756  33.354  0.00  0.00     0.011 A 
ATOM     27  C   UNL d   1      55.252  -1.426  32.924  0.00  0.00     0.058 A 
ATOM     28  C   UNL d   1      55.921  -1.391  32.425  0.00  0.00     0.011 A 
ATOM     29 CL   UNL d   1      54.822  -2.127  32.987  0.00  0.00    -0.082 Cl
ATOM     30  C   UNL d   1      56.344  -0.688  32.367  0.00  0.00     0.002 A 
ENDBRANCH  23  24
ENDBRANCH   6  23
TORSDOF 6
ENDMDL
