MODEL 1
REMARK VINA RESULT:      66.8      0.000      0.000
REMARK  9 active torsions:
REMARK  status: ('A' for Active; 'I' for Inactive)
REMARK    1  A    between atoms: N_9  and  C_3 
REMARK    2  A    between atoms: S_14  and  C_6 
REMARK       I    between atoms: C_11  and  N_9 
REMARK    3  A    between atoms: C_18  and  C_11 
REMARK    4  A    between atoms: C_12  and  C_15 
REMARK    5  A    between atoms: O_25  and  C_12 
REMARK    6  A    between atoms: C_13  and  C_23 
REMARK       I    between atoms: N_16  and  C_13 
REMARK    7  A    between atoms: C_23  and  S_14 
REMARK    8  A    between atoms: C_24  and  N_16 
REMARK    9  A    between atoms: C_32  and  O_25 
ROOT
ATOM      1  C   UNL d   1      13.544  13.256  -4.198  0.00  0.00     0.079 A 
ATOM      2  C   UNL d   1      13.519  13.687  -4.913  0.00  0.00     0.187 A 
ATOM      3  C   UNL d   1      13.814  13.620  -3.519  0.00  0.00     0.171 A 
ATOM      4  N   UNL d   1      13.765  14.473  -4.935  0.00  0.00    -0.197 NA
ATOM      5  N   UNL d   1      14.063  14.406  -3.523  0.00  0.00    -0.202 NA
ATOM      6  C   UNL d   1      14.038  14.836  -4.238  0.00  0.00     0.198 A 
ATOM      7  C   UNL d   1      13.266  12.496  -4.356  0.00  0.00     0.029 A 
ATOM      8  O   UNL d   1      13.225  13.185  -5.508  0.00  0.00    -0.289 OA
ATOM      9  C   UNL d   1      13.069  12.447  -5.157  0.00  0.00     0.102 A 
ATOM     10  C   UNL d   1      13.196  11.883  -3.805  0.00  0.00     0.002 C 
ATOM     11  C   UNL d   1      12.770  11.784  -5.546  0.00  0.00     0.027 C 
ENDROOT
BRANCH   6  12
ATOM     12  S   UNL d   1      14.287  15.629  -4.256  0.00  0.00    -0.043 SA
BRANCH  12  13
ATOM     13  C   UNL d   1      13.890  16.174  -4.723  0.00  0.00     0.101 C 
BRANCH  13  14
ATOM     14  C   UNL d   1      14.193  16.937  -4.817  0.00  0.00     0.286 C 
ATOM     15  N   UNL d   1      13.894  17.425  -5.404  0.00  0.00    -0.208 NA
ATOM     16  O   UNL d   1      14.796  17.208  -4.323  0.00  0.00    -0.265 OA
BRANCH  15  17
ATOM     17  C   UNL d   1      14.190  18.188  -5.507  0.00  0.00     0.085 A 
ATOM     18  C   UNL d   1      14.109  18.568  -6.228  0.00  0.00     0.019 A 
ATOM     19  C   UNL d   1      14.409  19.331  -6.320  0.00  0.00     0.007 A 
ATOM     20  C   UNL d   1      14.787  19.708  -5.692  0.00  0.00     0.064 A 
ATOM     21  C   UNL d   1      14.867  19.317  -4.962  0.00  0.00     0.007 A 
ATOM     22  C   UNL d   1      14.570  18.560  -4.869  0.00  0.00     0.019 A 
BRANCH  20  23
ATOM     23  C   UNL d   1      15.088  20.475  -5.786  0.00  0.00     0.300 C 
ATOM     24  O   UNL d   1      15.629  20.637  -6.389  0.00  0.00    -0.259 OA
BRANCH  23  25
ATOM     25  O   UNL d   1      14.846  21.077  -5.277  0.00  0.00    -0.271 OA
BRANCH  25  26
ATOM     26  C   UNL d   1      14.543  21.781  -5.577  0.00  0.00     0.126 C 
ATOM     27  C   UNL d   1      14.673  22.487  -5.180  0.00  0.00     0.029 C 
ENDBRANCH  25  26
ENDBRANCH  23  25
ENDBRANCH  20  23
ENDBRANCH  15  17
ENDBRANCH  13  14
ENDBRANCH  12  13
ENDBRANCH   6  12
BRANCH   3  28
ATOM     28  N   UNL d   1      13.838  13.194  -2.813  0.00  0.00    -0.189 NA
ATOM     29  C   UNL d   1      14.333  13.446  -2.196  0.00  0.00     0.281 C 
ATOM     30  O   UNL d   1      14.799  14.120  -2.288  0.00  0.00    -0.265 OA
BRANCH  29  31
ATOM     31  C   UNL d   1      14.354  13.017  -1.491  0.00  0.00     0.058 A 
ATOM     32  C   UNL d   1      14.513  13.402  -0.784  0.00  0.00     0.005 A 
ATOM     33  C   UNL d   1      14.535  12.980  -0.081  0.00  0.00     0.000 A 
ATOM     34  C   UNL d   1      14.398  12.168  -0.077  0.00  0.00     0.000 A 
ATOM     35  C   UNL d   1      14.238  11.781  -0.792  0.00  0.00     0.000 A 
ATOM     36  C   UNL d   1      14.216  12.208  -1.502  0.00  0.00     0.005 A 
ENDBRANCH  29  31
ENDBRANCH   3  28
TORSDOF 9
ENDMDL
