MODEL 1
REMARK VINA RESULT:      14.5      0.000      0.000
REMARK  1 active torsions:
REMARK  status: ('A' for Active; 'I' for Inactive)
REMARK    1  A    between atoms: C_5  and  C_1 
ROOT
ATOM      1  C   UNL d   1      59.651  49.703  50.906  0.00  0.00     0.128 A 
ATOM      2  C   UNL d   1      59.754  49.704  50.061  0.00  0.00     0.306 A 
ATOM      3  C   UNL d   1      58.893  49.703  51.206  0.00  0.00     0.013 A 
ATOM      4  O   UNL d   1      59.092  49.706  49.576  0.00  0.00    -0.273 OA
ATOM      5  C   UNL d   1      58.227  49.705  50.708  0.00  0.00     0.023 A 
ATOM      6  C   UNL d   1      58.328  49.706  49.886  0.00  0.00     0.103 A 
ATOM      7  O   UNL d   1      60.519  49.704  49.706  0.00  0.00    -0.259 OA
ATOM      8  C   UNL d   1      57.494  49.705  51.034  0.00  0.00     0.002 A 
ATOM      9  C   UNL d   1      57.694  49.707  49.405  0.00  0.00     0.025 A 
ATOM     10  C   UNL d   1      56.822  49.706  50.560  0.00  0.00     0.000 A 
ATOM     11  C   UNL d   1      56.925  49.707  49.714  0.00  0.00     0.002 A 
ENDROOT
BRANCH   1  12
ATOM     12  C   UNL d   1      60.291  49.702  51.377  0.00  0.00     0.216 C 
ATOM     13  O   UNL d   1      60.236  49.707  52.200  0.00  0.00    -0.644 OA
ATOM     14  O   UNL d   1      61.081  49.695  51.192  0.00  0.00    -0.644 OA
ENDBRANCH   1  12
TORSDOF 1
ENDMDL
MODEL 2
REMARK VINA RESULT:      15.5      1.329      2.831
REMARK  1 active torsions:
REMARK  status: ('A' for Active; 'I' for Inactive)
REMARK    1  A    between atoms: C_5  and  C_1 
ROOT
ATOM      1  C   UNL d   1      57.494  49.667  50.364  0.00  0.00     0.128 A 
ATOM      2  C   UNL d   1      57.841  49.685  49.586  0.00  0.00     0.306 A 
ATOM      3  C   UNL d   1      57.990  49.663  51.011  0.00  0.00     0.013 A 
ATOM      4  O   UNL d   1      58.658  49.697  49.511  0.00  0.00    -0.273 OA
ATOM      5  C   UNL d   1      58.816  49.675  50.927  0.00  0.00     0.023 A 
ATOM      6  C   UNL d   1      59.153  49.693  50.171  0.00  0.00     0.103 A 
ATOM      7  O   UNL d   1      57.368  49.691  48.888  0.00  0.00    -0.259 OA
ATOM      8  C   UNL d   1      59.277  49.670  51.584  0.00  0.00     0.002 A 
ATOM      9  C   UNL d   1      59.945  49.705  50.084  0.00  0.00     0.025 A 
ATOM     10  C   UNL d   1      60.097  49.682  51.524  0.00  0.00     0.000 A 
ATOM     11  C   UNL d   1      60.444  49.700  50.746  0.00  0.00     0.002 A 
ENDROOT
BRANCH   1  12
ATOM     12  C   UNL d   1      56.703  49.656  50.437  0.00  0.00     0.216 C 
ATOM     13  O   UNL d   1      56.326  49.680  51.171  0.00  0.00    -0.644 OA
ATOM     14  O   UNL d   1      56.122  49.620  49.873  0.00  0.00    -0.644 OA
ENDBRANCH   1  12
TORSDOF 1
ENDMDL
