MODEL 1
REMARK VINA RESULT:       9.0      0.000      0.000
REMARK  2 active torsions:
REMARK  status: ('A' for Active; 'I' for Inactive)
REMARK    1  A    between atoms: C_6  and  N_1 
REMARK    2  A    between atoms: C_7  and  C_6 
ROOT
ATOM      1  N   UNL d   1     -51.040  25.315  33.346  0.00  0.00    -0.236 N 
ATOM      2  C   UNL d   1     -50.940  24.510  33.332  0.00  0.00     0.267 A 
ATOM      3  C   UNL d   1     -51.832  25.481  33.351  0.00  0.00     0.267 A 
ATOM      4  C   UNL d   1     -51.680  24.165  33.328  0.00  0.00     0.061 A 
ATOM      5  C   UNL d   1     -52.238  24.772  33.340  0.00  0.00     0.061 A 
ATOM      6  O   UNL d   1     -50.210  24.094  33.322  0.00  0.00    -0.267 OA
ATOM      7  O   UNL d   1     -52.187  26.246  33.366  0.00  0.00    -0.267 OA
ATOM      8  C   UNL d   1     -53.041  24.585  33.339  0.00  0.00     0.005 A 
ATOM      9  C   UNL d   1     -51.934  23.380  33.315  0.00  0.00     0.005 A 
ATOM     10  C   UNL d   1     -52.741  23.191  33.314  0.00  0.00     0.000 A 
ATOM     11  C   UNL d   1     -53.298  23.797  33.326  0.00  0.00     0.000 A 
ENDROOT
BRANCH   1  12
ATOM     12  C   UNL d   1     -50.411  25.860  33.354  0.00  0.00     0.134 C 
ATOM     13  C   UNL d   1     -49.635  25.628  33.306  0.00  0.00     0.026 C 
BRANCH  12  14
ATOM     14  C   UNL d   1     -50.596  26.673  33.413  0.00  0.00     0.228 C 
ATOM     15  O   UNL d   1     -49.990  27.225  33.579  0.00  0.00    -0.643 OA
ATOM     16  O   UNL d   1     -51.377  26.934  33.309  0.00  0.00    -0.643 OA
ENDBRANCH  12  14
ENDBRANCH   1  12
TORSDOF 2
ENDMDL
MODEL 2
REMARK VINA RESULT:      10.1      0.638      1.612
REMARK  2 active torsions:
REMARK  status: ('A' for Active; 'I' for Inactive)
REMARK    1  A    between atoms: C_6  and  N_1 
REMARK    2  A    between atoms: C_7  and  C_6 
ROOT
ATOM      1  N   UNL d   1     -51.587  25.545  33.336  0.00  0.00    -0.236 N 
ATOM      2  C   UNL d   1     -52.397  25.591  33.321  0.00  0.00     0.267 A 
ATOM      3  C   UNL d   1     -51.369  24.766  33.347  0.00  0.00     0.267 A 
ATOM      4  C   UNL d   1     -52.692  24.829  33.322  0.00  0.00     0.061 A 
ATOM      5  C   UNL d   1     -52.050  24.313  33.338  0.00  0.00     0.061 A 
ATOM      6  O   UNL d   1     -52.861  26.291  33.306  0.00  0.00    -0.267 OA
ATOM      7  O   UNL d   1     -50.583  24.463  33.363  0.00  0.00    -0.267 OA
ATOM      8  C   UNL d   1     -52.183  23.499  33.343  0.00  0.00     0.005 A 
ATOM      9  C   UNL d   1     -53.458  24.523  33.311  0.00  0.00     0.005 A 
ATOM     10  C   UNL d   1     -53.594  23.706  33.316  0.00  0.00     0.000 A 
ATOM     11  C   UNL d   1     -52.951  23.190  33.332  0.00  0.00     0.000 A 
ENDROOT
BRANCH   1  12
ATOM     12  C   UNL d   1     -51.085  26.209  33.339  0.00  0.00     0.134 C 
ATOM     13  C   UNL d   1     -51.370  26.968  33.312  0.00  0.00     0.026 C 
BRANCH  12  14
ATOM     14  C   UNL d   1     -50.261  26.077  33.371  0.00  0.00     0.228 C 
ATOM     15  O   UNL d   1     -49.742  26.725  33.470  0.00  0.00    -0.643 OA
ATOM     16  O   UNL d   1     -49.955  25.309  33.307  0.00  0.00    -0.643 OA
ENDBRANCH  12  14
ENDBRANCH   1  12
TORSDOF 2
ENDMDL
