MODEL 1
REMARK VINA RESULT:      20.3      0.000      0.000
REMARK  3 active torsions:
REMARK  status: ('A' for Active; 'I' for Inactive)
REMARK    1  A    between atoms: S_3  and  C_1 
REMARK    2  A    between atoms: C_7  and  N_2 
REMARK    3  A    between atoms: C_13  and  C_7 
ROOT
ATOM      1  C   UNL d   1      14.160  12.175  -1.562  0.00  0.00     0.255 A 
ATOM      2  N   UNL d   1      14.434  12.813  -2.012  0.00  0.00    -0.278 N 
ATOM      3  N   UNL d   1      13.582  11.779  -1.960  0.00  0.00    -0.215 NA
ATOM      4  C   UNL d   1      14.006  12.817  -2.728  0.00  0.00     0.084 A 
ATOM      5  C   UNL d   1      13.480  12.180  -2.696  0.00  0.00     0.100 A 
ATOM      6  C   UNL d   1      14.019  13.303  -3.395  0.00  0.00     0.019 A 
ATOM      7  C   UNL d   1      12.971  12.032  -3.331  0.00  0.00     0.021 A 
ATOM      8  C   UNL d   1      13.513  13.159  -4.029  0.00  0.00     0.002 A 
ATOM      9  C   UNL d   1      12.987  12.521  -3.997  0.00  0.00     0.002 A 
ENDROOT
BRANCH   1  10
ATOM     10  S   UNL d   1      14.444  11.978  -0.811  0.00  0.00     0.174 S 
ATOM     11  O   UNL d   1      15.188  11.817  -1.135  0.00  0.00    -0.589 OA
ATOM     12  O   UNL d   1      14.729  11.781  -0.061  0.00  0.00    -0.589 OA
ATOM     13  O   UNL d   1      13.703  12.138  -0.488  0.00  0.00    -0.589 OA
ENDBRANCH   1  10
BRANCH   2  14
ATOM     14  C   UNL d   1      15.013  13.352  -1.816  0.00  0.00     0.082 C 
BRANCH  14  15
ATOM     15  C   UNL d   1      14.765  14.069  -1.511  0.00  0.00     0.018 C 
ATOM     16  C   UNL d   1      14.377  14.623  -1.982  0.00  0.00     0.002 C 
ATOM     17  C   UNL d   1      14.889  14.270  -0.726  0.00  0.00     0.002 C 
ENDBRANCH  14  15
ENDBRANCH   2  14
TORSDOF 3
ENDMDL
MODEL 2
REMARK VINA RESULT:      21.6      9.037      9.792
REMARK  3 active torsions:
REMARK  status: ('A' for Active; 'I' for Inactive)
REMARK    1  A    between atoms: S_3  and  C_1 
REMARK    2  A    between atoms: C_7  and  N_2 
REMARK    3  A    between atoms: C_13  and  C_7 
ROOT
ATOM      1  C   UNL d   1      24.355  12.509  -1.617  0.00  0.00     0.255 A 
ATOM      2  N   UNL d   1      23.687  12.859  -1.959  0.00  0.00    -0.278 N 
ATOM      3  N   UNL d   1      24.768  12.094  -2.170  0.00  0.00    -0.215 NA
ATOM      4  C   UNL d   1      23.682  12.652  -2.767  0.00  0.00     0.084 A 
ATOM      5  C   UNL d   1      24.349  12.180  -2.898  0.00  0.00     0.100 A 
ATOM      6  C   UNL d   1      23.173  12.823  -3.394  0.00  0.00     0.019 A 
ATOM      7  C   UNL d   1      24.502  11.882  -3.654  0.00  0.00     0.021 A 
ATOM      8  C   UNL d   1      23.324  12.527  -4.149  0.00  0.00     0.002 A 
ATOM      9  C   UNL d   1      23.990  12.055  -4.280  0.00  0.00     0.002 A 
ENDROOT
BRANCH   1  10
ATOM     10  S   UNL d   1      24.562  12.581  -0.820  0.00  0.00     0.174 S 
ATOM     11  O   UNL d   1      24.356  11.790  -0.695  0.00  0.00    -0.589 OA
ATOM     12  O   UNL d   1      24.768  12.653  -0.023  0.00  0.00    -0.589 OA
ATOM     13  O   UNL d   1      24.767  13.370  -0.944  0.00  0.00    -0.589 OA
ENDBRANCH   1  10
BRANCH   2  14
ATOM     14  C   UNL d   1      23.124  13.323  -1.597  0.00  0.00     0.082 C 
BRANCH  14  15
ATOM     15  C   UNL d   1      22.610  12.949  -1.082  0.00  0.00     0.018 C 
ATOM     16  C   UNL d   1      22.318  12.194  -1.242  0.00  0.00     0.002 C 
ATOM     17  C   UNL d   1      22.361  13.305  -0.387  0.00  0.00     0.002 C 
ENDBRANCH  14  15
ENDBRANCH   2  14
TORSDOF 3
ENDMDL
