MODEL 1
REMARK VINA RESULT:      10.2      0.000      0.000
REMARK  4 active torsions:
REMARK  status: ('A' for Active; 'I' for Inactive)
REMARK    1  A    between atoms: C_8  and  C_1 
REMARK    2  A    between atoms: C_14  and  C_5 
REMARK    3  A    between atoms: O_16  and  C_8 
REMARK    4  A    between atoms: C_21  and  O_16 
ROOT
ATOM      1  C   UNL d   1     -41.496-121.403 -53.058  0.00  0.00     0.106 A 
ATOM      2  C   UNL d   1     -41.337-120.871 -52.449  0.00  0.00     0.208 A 
ATOM      3  C   UNL d   1     -41.474-122.489 -52.117  0.00  0.00     0.061 A 
ATOM      4  C   UNL d   1     -41.315-121.956 -51.507  0.00  0.00     0.101 A 
ATOM      5  C   UNL d   1     -41.566-122.225 -52.891  0.00  0.00     0.014 A 
ATOM      6  O   UNL d   1     -41.247-121.157 -51.668  0.00  0.00    -0.288 OA
ATOM      7  C   UNL d   1     -41.545-123.288 -51.970  0.00  0.00     0.194 A 
ATOM      8  C   UNL d   1     -41.226-122.220 -50.746  0.00  0.00     0.002 A 
ATOM      9  C   UNL d   1     -41.294-123.015 -50.588  0.00  0.00     0.042 A 
ATOM     10  C   UNL d   1     -41.453-123.548 -51.198  0.00  0.00     0.019 A 
ATOM     11  O   UNL d   1     -41.703-123.817 -52.576  0.00  0.00    -0.287 OA
ATOM     12  N   UNL d   1     -41.269-120.056 -52.623  0.00  0.00    -0.121 N 
ATOM     13  C   UNL d   1     -41.317-123.741 -50.196  0.00  0.00     0.009 C 
ATOM     14  C   UNL d   1     -41.147-122.862 -49.774  0.00  0.00     0.009 C 
ENDROOT
BRANCH   5  15
ATOM     15  C   UNL d   1     -41.724-122.754 -53.498  0.00  0.00     0.000 A 
ATOM     16  C   UNL d   1     -41.123-123.217 -53.812  0.00  0.00     0.000 A 
ATOM     17  C   UNL d   1     -41.312-123.744 -54.425  0.00  0.00     0.000 A 
ATOM     18  C   UNL d   1     -42.063-123.816 -54.721  0.00  0.00     0.000 A 
ATOM     19  C   UNL d   1     -42.665-123.356 -54.410  0.00  0.00     0.000 A 
ATOM     20  C   UNL d   1     -42.505-122.821 -53.797  0.00  0.00     0.000 A 
ENDBRANCH   5  15
BRANCH   1  21
ATOM     21  C   UNL d   1     -41.588-121.124 -53.847  0.00  0.00     0.304 C 
ATOM     22  O   UNL d   1     -41.150-121.436 -54.432  0.00  0.00    -0.259 OA
BRANCH  21  23
ATOM     23  O   UNL d   1     -42.131-120.530 -53.999  0.00  0.00    -0.271 OA
BRANCH  23  24
ATOM     24  C   UNL d   1     -42.041-120.148 -54.508  0.00  0.00     0.126 C 
ATOM     25  C   UNL d   1     -42.677-119.930 -55.023  0.00  0.00     0.029 C 
ENDBRANCH  23  24
ENDBRANCH  21  23
ENDBRANCH   1  21
TORSDOF 4
ENDMDL
