MODEL 1
REMARK VINA RESULT:      -5.1      0.000      0.000
REMARK  3 active torsions:
REMARK  status: ('A' for Active; 'I' for Inactive)
REMARK    1  A    between atoms: S_3  and  N_1 
REMARK    2  A    between atoms: C_7  and  C_4 
REMARK    3  A    between atoms: C_11  and  C_5 
ROOT
ATOM      1  N   UNL d   1      58.199  -0.122  29.738  0.00  0.00    -0.155 N 
ATOM      2  N   UNL d   1      57.688   0.194  30.334  0.00  0.00    -0.156 NA
ATOM      3  C   UNL d   1      58.307  -0.918  29.951  0.00  0.00     0.102 A 
ATOM      4  C   UNL d   1      57.507  -0.395  30.871  0.00  0.00     0.104 A 
ATOM      5  C   UNL d   1      57.901  -1.089  30.620  0.00  0.00     0.041 A 
ENDROOT
BRANCH   4   6
ATOM      6  C   UNL d   1      57.034  -0.305  31.517  0.00  0.00     0.019 A 
ATOM      7  C   UNL d   1      56.643  -0.965  31.837  0.00  0.00     0.002 A 
ATOM      8  C   UNL d   1      56.155  -0.897  32.496  0.00  0.00     0.007 A 
ATOM      9  C   UNL d   1      56.043  -0.152  32.861  0.00  0.00     0.035 A 
ATOM     10  C   UNL d   1      56.435   0.510  32.540  0.00  0.00     0.007 A 
ATOM     11 BR   UNL d   1      55.558  -0.082  33.516  0.00  0.00    -0.049 Br
ATOM     12  C   UNL d   1      56.924   0.440  31.879  0.00  0.00     0.002 A 
ENDBRANCH   4   6
BRANCH   1  13
ATOM     13  S   UNL d   1      58.507   0.270  29.108  0.00  0.00     0.266 S 
ATOM     14  O   UNL d   1      58.839   0.682  28.457  0.00  0.00    -0.203 OA
ATOM     15  O   UNL d   1      57.897   0.016  28.647  0.00  0.00    -0.203 OA
ATOM     16  C   UNL d   1      59.141   0.532  29.588  0.00  0.00     0.165 C 
ENDBRANCH   1  13
BRANCH   3  17
ATOM     17  C   UNL d   1      58.770  -1.449  29.525  0.00  0.00     0.048 A 
ATOM     18  S   UNL d   1      59.579  -1.571  29.593  0.00  0.00    -0.085 SA
ATOM     19  C   UNL d   1      59.811  -2.143  29.072  0.00  0.00     0.035 A 
ATOM     20  C   UNL d   1      59.148  -2.393  28.664  0.00  0.00     0.007 A 
ATOM     21  C   UNL d   1      58.510  -1.975  28.935  0.00  0.00     0.009 A 
ENDBRANCH   3  17
TORSDOF 3
ENDMDL
MODEL 2
REMARK VINA RESULT:      -4.8      0.983      1.634
REMARK  3 active torsions:
REMARK  status: ('A' for Active; 'I' for Inactive)
REMARK    1  A    between atoms: S_3  and  N_1 
REMARK    2  A    between atoms: C_7  and  C_4 
REMARK    3  A    between atoms: C_11  and  C_5 
ROOT
ATOM      1  N   UNL d   1      58.411  -0.937  29.676  0.00  0.00    -0.155 N 
ATOM      2  N   UNL d   1      57.761  -1.004  30.211  0.00  0.00    -0.156 NA
ATOM      3  C   UNL d   1      58.808  -0.245  29.909  0.00  0.00     0.102 A 
ATOM      4  C   UNL d   1      57.779  -0.377  30.736  0.00  0.00     0.104 A 
ATOM      5  C   UNL d   1      58.441   0.093  30.536  0.00  0.00     0.041 A 
ENDROOT
BRANCH   4   6
ATOM      6  C   UNL d   1      57.248  -0.251  31.329  0.00  0.00     0.019 A 
ATOM      7  C   UNL d   1      56.922  -0.898  31.735  0.00  0.00     0.002 A 
ATOM      8  C   UNL d   1      56.379  -0.793  32.343  0.00  0.00     0.007 A 
ATOM      9  C   UNL d   1      56.142  -0.022  32.567  0.00  0.00     0.035 A 
ATOM     10  C   UNL d   1      56.468   0.628  32.159  0.00  0.00     0.007 A 
ATOM     11 BR   UNL d   1      55.601   0.084  33.172  0.00  0.00    -0.049 Br
ATOM     12  C   UNL d   1      57.013   0.520  31.549  0.00  0.00     0.002 A 
ENDBRANCH   4   6
BRANCH   1  13
ATOM     13  S   UNL d   1      58.597  -1.437  29.075  0.00  0.00     0.266 S 
ATOM     14  O   UNL d   1      58.797  -1.967  28.456  0.00  0.00    -0.203 OA
ATOM     15  O   UNL d   1      58.221  -0.954  28.551  0.00  0.00    -0.203 OA
ATOM     16  C   UNL d   1      58.988  -1.938  29.621  0.00  0.00     0.165 C 
ENDBRANCH   1  13
BRANCH   3  17
ATOM     17  C   UNL d   1      59.486   0.044  29.540  0.00  0.00     0.048 A 
ATOM     18  S   UNL d   1      59.524   0.530  28.879  0.00  0.00    -0.085 SA
ATOM     19  C   UNL d   1      60.296   0.682  28.700  0.00  0.00     0.035 A 
ATOM     20  C   UNL d   1      60.762   0.292  29.248  0.00  0.00     0.007 A 
ATOM     21  C   UNL d   1      60.274  -0.099  29.763  0.00  0.00     0.009 A 
ENDBRANCH   3  17
TORSDOF 3
ENDMDL
MODEL 3
REMARK VINA RESULT:      -2.2      9.323      9.999
REMARK  3 active torsions:
REMARK  status: ('A' for Active; 'I' for Inactive)
REMARK    1  A    between atoms: S_3  and  N_1 
REMARK    2  A    between atoms: C_7  and  C_4 
REMARK    3  A    between atoms: C_11  and  C_5 
ROOT
ATOM      1  N   UNL d   1      59.988  -9.158  34.988  0.00  0.00    -0.155 N 
ATOM      2  N   UNL d   1      59.771  -9.573  34.283  0.00  0.00    -0.156 NA
ATOM      3  C   UNL d   1      59.755  -8.372  34.851  0.00  0.00     0.102 A 
ATOM      4  C   UNL d   1      59.427  -9.048  33.759  0.00  0.00     0.104 A 
ATOM      5  C   UNL d   1      59.422  -8.298  34.127  0.00  0.00     0.041 A 
ENDROOT
BRANCH   4   6
ATOM      6  C   UNL d   1      59.148  -9.239  33.027  0.00  0.00     0.019 A 
ATOM      7  C   UNL d   1      58.342  -9.138  32.853  0.00  0.00     0.002 A 
ATOM      8  C   UNL d   1      58.036  -9.326  32.113  0.00  0.00     0.007 A 
ATOM      9  C   UNL d   1      58.539  -9.625  31.514  0.00  0.00     0.035 A 
ATOM     10  C   UNL d   1      59.348  -9.725  31.688  0.00  0.00     0.007 A 
ATOM     11 BR   UNL d   1      58.236  -9.811  30.777  0.00  0.00    -0.049 Br
ATOM     12  C   UNL d   1      59.653  -9.536  32.431  0.00  0.00     0.002 A 
ENDBRANCH   4   6
BRANCH   1  13
ATOM     13  S   UNL d   1      60.341  -9.465  35.641  0.00  0.00     0.266 S 
ATOM     14  O   UNL d   1      60.721  -9.783  36.318  0.00  0.00    -0.203 OA
ATOM     15  O   UNL d   1      59.619  -9.600  35.973  0.00  0.00    -0.203 OA
ATOM     16  C   UNL d   1      61.091  -9.324  35.295  0.00  0.00     0.165 C 
ENDBRANCH   1  13
BRANCH   3  17
ATOM     17  C   UNL d   1      59.858  -7.761  35.394  0.00  0.00     0.048 A 
ATOM     18  S   UNL d   1      59.288  -7.427  35.883  0.00  0.00    -0.085 SA
ATOM     19  C   UNL d   1      59.623  -6.843  36.329  0.00  0.00     0.035 A 
ATOM     20  C   UNL d   1      60.414  -6.798  36.128  0.00  0.00     0.007 A 
ATOM     21  C   UNL d   1      60.564  -7.355  35.559  0.00  0.00     0.009 A 
ENDBRANCH   3  17
TORSDOF 3
ENDMDL
