MODEL 1
REMARK VINA RESULT:      10.4      0.000      0.000
REMARK  3 active torsions:
REMARK  status: ('A' for Active; 'I' for Inactive)
REMARK    1  A    between atoms: N_5  and  C_2 
REMARK    2  A    between atoms: C_14  and  C_4 
REMARK       I    between atoms: C_7  and  N_5 
REMARK    3  A    between atoms: C_8  and  C_7 
ROOT
ATOM      1  S   UNL d   1      23.998  12.864  -1.800  0.00  0.00    -0.026 SA
ATOM      2  C   UNL d   1      24.484  12.349  -2.227  0.00  0.00     0.219 A 
ATOM      3  N   UNL d   1      24.427  11.975  -0.938  0.00  0.00    -0.139 NA
ATOM      4  C   UNL d   1      23.969  12.629  -1.017  0.00  0.00     0.135 A 
ATOM      5  N   UNL d   1      24.753  11.792  -1.686  0.00  0.00    -0.121 NA
ENDROOT
BRANCH   2   6
ATOM      6  N   UNL d   1      24.714  12.315  -3.025  0.00  0.00    -0.181 NA
ATOM      7  C   UNL d   1      24.167  12.495  -3.598  0.00  0.00     0.287 C 
ATOM      8  O   UNL d   1      23.387  12.712  -3.419  0.00  0.00    -0.265 OA
BRANCH   7   9
ATOM      9  C   UNL d   1      24.393  12.461  -4.369  0.00  0.00     0.087 A 
ATOM     10  S   UNL d   1      24.512  13.110  -4.843  0.00  0.00    -0.082 SA
ATOM     11  C   UNL d   1      24.741  12.831  -5.600  0.00  0.00     0.036 A 
ATOM     12  C   UNL d   1      24.756  12.034  -5.570  0.00  0.00     0.008 A 
ATOM     13  C   UNL d   1      24.548  11.781  -4.833  0.00  0.00     0.012 A 
ENDBRANCH   7   9
ENDBRANCH   2   6
BRANCH   4  14
ATOM     14  C   UNL d   1      23.527  13.020  -0.410  0.00  0.00     0.026 C 
ATOM     15  C   UNL d   1      22.838  12.699  -0.086  0.00  0.00     0.002 C 
ATOM     16  C   UNL d   1      23.798  13.759  -0.128  0.00  0.00     0.002 C 
ENDBRANCH   4  14
TORSDOF 3
ENDMDL
MODEL 2
REMARK VINA RESULT:      10.9     10.096     11.127
REMARK  3 active torsions:
REMARK  status: ('A' for Active; 'I' for Inactive)
REMARK    1  A    between atoms: N_5  and  C_2 
REMARK    2  A    between atoms: C_14  and  C_4 
REMARK       I    between atoms: C_7  and  N_5 
REMARK    3  A    between atoms: C_8  and  C_7 
ROOT
ATOM      1  S   UNL d   1      13.691  11.840  -3.996  0.00  0.00    -0.026 SA
ATOM      2  C   UNL d   1      13.403  12.083  -3.260  0.00  0.00     0.219 A 
ATOM      3  N   UNL d   1      12.773  12.741  -4.248  0.00  0.00    -0.139 NA
ATOM      4  C   UNL d   1      13.303  12.245  -4.591  0.00  0.00     0.135 A 
ATOM      5  N   UNL d   1      12.828  12.648  -3.418  0.00  0.00    -0.121 NA
ENDROOT
BRANCH   2   6
ATOM      6  N   UNL d   1      13.587  11.868  -2.479  0.00  0.00    -0.181 NA
ATOM      7  C   UNL d   1      14.096  12.334  -2.053  0.00  0.00     0.287 C 
ATOM      8  O   UNL d   1      14.442  13.020  -2.366  0.00  0.00    -0.265 OA
BRANCH   7   9
ATOM      9  C   UNL d   1      14.271  12.123  -1.297  0.00  0.00     0.087 A 
ATOM     10  S   UNL d   1      13.719  11.985  -0.718  0.00  0.00    -0.082 SA
ATOM     11  C   UNL d   1      14.133  11.780  -0.018  0.00  0.00     0.036 A 
ATOM     12  C   UNL d   1      14.913  11.798  -0.184  0.00  0.00     0.008 A 
ATOM     13  C   UNL d   1      15.027  12.003  -0.955  0.00  0.00     0.012 A 
ENDBRANCH   7   9
ENDBRANCH   2   6
BRANCH   4  14
ATOM     14  C   UNL d   1      13.447  12.145  -5.420  0.00  0.00     0.026 C 
ATOM     15  C   UNL d   1      14.150  12.386  -5.780  0.00  0.00     0.002 C 
ATOM     16  C   UNL d   1      12.855  11.789  -5.891  0.00  0.00     0.002 C 
ENDBRANCH   4  14
TORSDOF 3
ENDMDL
