MODEL 1
REMARK VINA RESULT:      -9.9      0.000      0.000
REMARK  4 active torsions:
REMARK  status: ('A' for Active; 'I' for Inactive)
REMARK    1  A    between atoms: C_8  and  C_1 
REMARK    2  A    between atoms: C_14  and  C_5 
REMARK    3  A    between atoms: O_16  and  C_8 
REMARK    4  A    between atoms: C_21  and  O_16 
ROOT
ATOM      1  C   UNL d   1     -48.304  13.866  22.863  0.00  0.00     0.106 A 
ATOM      2  C   UNL d   1     -47.531  14.153  22.905  0.00  0.00     0.208 A 
ATOM      3  C   UNL d   1     -47.831  12.547  23.179  0.00  0.00     0.061 A 
ATOM      4  C   UNL d   1     -47.058  12.834  23.222  0.00  0.00     0.101 A 
ATOM      5  C   UNL d   1     -48.457  13.051  23.002  0.00  0.00     0.014 A 
ATOM      6  O   UNL d   1     -46.908  13.627  23.087  0.00  0.00    -0.288 OA
ATOM      7  C   UNL d   1     -47.994  11.759  23.311  0.00  0.00     0.194 A 
ATOM      8  C   UNL d   1     -46.444  12.334  23.396  0.00  0.00     0.002 A 
ATOM      9  C   UNL d   1     -46.597  11.546  23.530  0.00  0.00     0.042 A 
ATOM     10  C   UNL d   1     -47.369  11.259  23.488  0.00  0.00     0.019 A 
ATOM     11  O   UNL d   1     -48.761  11.474  23.269  0.00  0.00    -0.287 OA
ATOM     12  N   UNL d   1     -47.387  14.965  22.766  0.00  0.00    -0.121 N 
ATOM     13  C   UNL d   1     -46.503  10.743  23.698  0.00  0.00     0.009 C 
ATOM     14  C   UNL d   1     -45.776  11.414  23.660  0.00  0.00     0.009 C 
ENDROOT
BRANCH   5  15
ATOM     15  C   UNL d   1     -49.225  12.766  22.960  0.00  0.00     0.000 A 
ATOM     16  C   UNL d   1     -49.545  12.541  22.238  0.00  0.00     0.000 A 
ATOM     17  C   UNL d   1     -50.325  12.256  22.226  0.00  0.00     0.000 A 
ATOM     18  C   UNL d   1     -50.776  12.192  22.896  0.00  0.00     0.000 A 
ATOM     19  C   UNL d   1     -50.460  12.415  23.617  0.00  0.00     0.000 A 
ATOM     20  C   UNL d   1     -49.683  12.704  23.659  0.00  0.00     0.000 A 
ENDBRANCH   5  15
BRANCH   1  21
ATOM     21  C   UNL d   1     -48.937  14.390  22.681  0.00  0.00     0.304 C 
ATOM     22  O   UNL d   1     -49.253  14.392  21.952  0.00  0.00    -0.259 OA
BRANCH  21  23
ATOM     23  O   UNL d   1     -49.220  14.892  23.263  0.00  0.00    -0.271 OA
BRANCH  23  24
ATOM     24  C   UNL d   1     -49.461  15.462  23.093  0.00  0.00     0.126 C 
ATOM     25  C   UNL d   1     -49.944  15.920  23.617  0.00  0.00     0.029 C 
ENDBRANCH  23  24
ENDBRANCH  21  23
ENDBRANCH   1  21
TORSDOF 4
ENDMDL
MODEL 2
REMARK VINA RESULT:      -8.1      1.210      3.307
REMARK  4 active torsions:
REMARK  status: ('A' for Active; 'I' for Inactive)
REMARK    1  A    between atoms: C_8  and  C_1 
REMARK    2  A    between atoms: C_14  and  C_5 
REMARK    3  A    between atoms: O_16  and  C_8 
REMARK    4  A    between atoms: C_21  and  O_16 
ROOT
ATOM      1  C   UNL d   1     -47.323  12.756  23.231  0.00  0.00     0.106 A 
ATOM      2  C   UNL d   1     -47.308  11.987  23.529  0.00  0.00     0.208 A 
ATOM      3  C   UNL d   1     -48.759  12.713  23.190  0.00  0.00     0.061 A 
ATOM      4  C   UNL d   1     -48.744  11.943  23.488  0.00  0.00     0.101 A 
ATOM      5  C   UNL d   1     -48.059  13.126  23.059  0.00  0.00     0.014 A 
ATOM      6  O   UNL d   1     -48.029  11.583  23.656  0.00  0.00    -0.288 OA
ATOM      7  C   UNL d   1     -49.465  13.083  23.018  0.00  0.00     0.194 A 
ATOM      8  C   UNL d   1     -49.435  11.540  23.615  0.00  0.00     0.002 A 
ATOM      9  C   UNL d   1     -50.145  11.901  23.447  0.00  0.00     0.042 A 
ATOM     10  C   UNL d   1     -50.160  12.670  23.149  0.00  0.00     0.019 A 
ATOM     11  O   UNL d   1     -49.480  13.848  22.722  0.00  0.00    -0.287 OA
ATOM     12  N   UNL d   1     -46.573  11.627  23.698  0.00  0.00    -0.121 N 
ATOM     13  C   UNL d   1     -50.952  12.047  23.358  0.00  0.00     0.009 C 
ATOM     14  C   UNL d   1     -50.551  11.208  23.698  0.00  0.00     0.009 C 
ENDROOT
BRANCH   5  15
ATOM     15  C   UNL d   1     -48.074  13.890  22.763  0.00  0.00     0.000 A 
ATOM     16  C   UNL d   1     -48.041  14.533  23.272  0.00  0.00     0.000 A 
ATOM     17  C   UNL d   1     -48.058  15.296  22.945  0.00  0.00     0.000 A 
ATOM     18  C   UNL d   1     -48.105  15.426  22.146  0.00  0.00     0.000 A 
ATOM     19  C   UNL d   1     -48.138  14.788  21.635  0.00  0.00     0.000 A 
ATOM     20  C   UNL d   1     -48.123  14.014  21.935  0.00  0.00     0.000 A 
ENDBRANCH   5  15
BRANCH   1  21
ATOM     21  C   UNL d   1     -46.602  13.170  23.101  0.00  0.00     0.304 C 
ATOM     22  O   UNL d   1     -46.388  13.758  23.591  0.00  0.00    -0.259 OA
BRANCH  21  23
ATOM     23  O   UNL d   1     -46.130  12.959  22.466  0.00  0.00    -0.271 OA
BRANCH  23  24
ATOM     24  C   UNL d   1     -45.497  13.064  22.499  0.00  0.00     0.126 C 
ATOM     25  C   UNL d   1     -44.991  12.974  21.826  0.00  0.00     0.029 C 
ENDBRANCH  23  24
ENDBRANCH  21  23
ENDBRANCH   1  21
TORSDOF 4
ENDMDL
MODEL 3
REMARK VINA RESULT:      -7.6      1.258      2.452
REMARK  4 active torsions:
REMARK  status: ('A' for Active; 'I' for Inactive)
REMARK    1  A    between atoms: C_8  and  C_1 
REMARK    2  A    between atoms: C_14  and  C_5 
REMARK    3  A    between atoms: O_16  and  C_8 
REMARK    4  A    between atoms: C_21  and  O_16 
ROOT
ATOM      1  C   UNL d   1     -49.111  12.565  22.982  0.00  0.00     0.106 A 
ATOM      2  C   UNL d   1     -49.245  11.780  23.199  0.00  0.00     0.208 A 
ATOM      3  C   UNL d   1     -47.695  12.360  23.118  0.00  0.00     0.061 A 
ATOM      4  C   UNL d   1     -47.829  11.576  23.335  0.00  0.00     0.101 A 
ATOM      5  C   UNL d   1     -48.325  12.861  22.941  0.00  0.00     0.014 A 
ATOM      6  O   UNL d   1     -48.594  11.286  23.375  0.00  0.00    -0.288 OA
ATOM      7  C   UNL d   1     -46.938  12.661  23.074  0.00  0.00     0.194 A 
ATOM      8  C   UNL d   1     -47.207  11.086  23.508  0.00  0.00     0.002 A 
ATOM      9  C   UNL d   1     -46.448  11.376  23.467  0.00  0.00     0.042 A 
ATOM     10  C   UNL d   1     -46.314  12.161  23.251  0.00  0.00     0.019 A 
ATOM     11  O   UNL d   1     -46.805  13.441  22.860  0.00  0.00    -0.287 OA
ATOM     12  N   UNL d   1     -50.030  11.494  23.237  0.00  0.00    -0.121 N 
ATOM     13  C   UNL d   1     -45.625  11.436  23.495  0.00  0.00     0.009 C 
ATOM     14  C   UNL d   1     -46.153  10.623  23.698  0.00  0.00     0.009 C 
ENDROOT
BRANCH   5  15
ATOM     15  C   UNL d   1     -48.191  13.641  22.727  0.00  0.00     0.000 A 
ATOM     16  C   UNL d   1     -48.206  14.235  23.292  0.00  0.00     0.000 A 
ATOM     17  C   UNL d   1     -48.067  15.016  23.046  0.00  0.00     0.000 A 
ATOM     18  C   UNL d   1     -47.920  15.209  22.273  0.00  0.00     0.000 A 
ATOM     19  C   UNL d   1     -47.905  14.619  21.706  0.00  0.00     0.000 A 
ATOM     20  C   UNL d   1     -48.040  13.830  21.924  0.00  0.00     0.000 A 
ENDBRANCH   5  15
BRANCH   1  21
ATOM     21  C   UNL d   1     -49.761  13.068  22.803  0.00  0.00     0.304 C 
ATOM     22  O   UNL d   1     -50.008  13.602  23.338  0.00  0.00    -0.259 OA
BRANCH  21  23
ATOM     23  O   UNL d   1     -50.132  12.999  22.076  0.00  0.00    -0.271 OA
BRANCH  23  24
ATOM     24  C   UNL d   1     -50.716  13.253  21.999  0.00  0.00     0.126 C 
ATOM     25  C   UNL d   1     -51.059  13.364  21.232  0.00  0.00     0.029 C 
ENDBRANCH  23  24
ENDBRANCH  21  23
ENDBRANCH   1  21
TORSDOF 4
ENDMDL
