MODEL 1
REMARK VINA RESULT:      -6.9      0.000      0.000
REMARK  3 active torsions:
REMARK  status: ('A' for Active; 'I' for Inactive)
REMARK    1  A    between atoms: C_6  and  C_2 
REMARK       I    between atoms: N_8  and  C_6 
REMARK    2  A    between atoms: C_14  and  N_8 
REMARK    3  A    between atoms: C_15  and  C_14 
ROOT
ATOM      1  N   UNL d   1     -47.283  12.980  22.979  0.00  0.00    -0.252 N 
ATOM      2  C   UNL d   1     -48.349  12.224  22.412  0.00  0.00     0.133 A 
ATOM      3  C   UNL d   1     -47.727  12.288  22.948  0.00  0.00     0.272 A 
ATOM      4  C   UNL d   1     -47.461  13.608  22.475  0.00  0.00     0.182 A 
ATOM      5  N   UNL d   1     -48.083  13.545  21.940  0.00  0.00    -0.220 NA
ATOM      6  C   UNL d   1     -48.527  12.852  21.909  0.00  0.00     0.111 A 
ATOM      7  S   UNL d   1     -46.927  14.224  22.630  0.00  0.00    -0.048 SA
ATOM      8  O   UNL d   1     -47.549  11.660  23.451  0.00  0.00    -0.266 OA
ATOM      9  C   UNL d   1     -46.639  13.208  23.445  0.00  0.00     0.092 A 
ATOM     10  C   UNL d   1     -46.425  13.973  23.226  0.00  0.00     0.057 A 
ENDROOT
BRANCH   2  11
ATOM     11  C   UNL d   1     -48.803  11.525  22.376  0.00  0.00     0.285 C 
ATOM     12  N   UNL d   1     -49.617  11.555  22.515  0.00  0.00    -0.208 NA
ATOM     13  O   UNL d   1     -48.434  10.808  22.200  0.00  0.00    -0.265 OA
BRANCH  12  14
ATOM     14  C   UNL d   1     -49.983  12.275  22.691  0.00  0.00     0.085 C 
ATOM     15  C   UNL d   1     -50.161  12.810  22.082  0.00  0.00     0.021 C 
BRANCH  14  16
ATOM     16  C   UNL d   1     -50.170  12.458  23.471  0.00  0.00     0.019 C 
ATOM     17  C   UNL d   1     -50.962  12.552  23.697  0.00  0.00     0.002 C 
ENDBRANCH  14  16
ENDBRANCH  12  14
ENDBRANCH   2  11
TORSDOF 3
ENDMDL
MODEL 2
REMARK VINA RESULT:      -6.7      1.881      2.957
REMARK  3 active torsions:
REMARK  status: ('A' for Active; 'I' for Inactive)
REMARK    1  A    between atoms: C_6  and  C_2 
REMARK       I    between atoms: N_8  and  C_6 
REMARK    2  A    between atoms: C_14  and  N_8 
REMARK    3  A    between atoms: C_15  and  C_14 
ROOT
ATOM      1  N   UNL d   1     -49.959  14.374  22.935  0.00  0.00    -0.252 N 
ATOM      2  C   UNL d   1     -48.863  13.877  22.171  0.00  0.00     0.133 A 
ATOM      3  C   UNL d   1     -49.624  13.783  22.471  0.00  0.00     0.272 A 
ATOM      4  C   UNL d   1     -49.533  15.061  23.099  0.00  0.00     0.182 A 
ATOM      5  N   UNL d   1     -48.772  15.157  22.800  0.00  0.00    -0.220 NA
ATOM      6  C   UNL d   1     -48.437  14.564  22.335  0.00  0.00     0.111 A 
ATOM      7  S   UNL d   1     -50.005  15.552  23.573  0.00  0.00    -0.048 SA
ATOM      8  O   UNL d   1     -50.051  13.096  22.306  0.00  0.00    -0.266 OA
ATOM      9  C   UNL d   1     -50.694  14.441  23.307  0.00  0.00     0.092 A 
ATOM     10  C   UNL d   1     -50.715  15.167  23.698  0.00  0.00     0.057 A 
ENDROOT
BRANCH   2  11
ATOM     11  C   UNL d   1     -48.519  13.282  21.700  0.00  0.00     0.285 C 
ATOM     12  N   UNL d   1     -47.830  12.902  21.955  0.00  0.00    -0.208 NA
ATOM     13  O   UNL d   1     -48.870  13.076  20.982  0.00  0.00    -0.265 OA
BRANCH  12  14
ATOM     14  C   UNL d   1     -47.482  13.111  22.675  0.00  0.00     0.085 C 
ATOM     15  C   UNL d   1     -47.026  13.803  22.730  0.00  0.00     0.021 C 
BRANCH  14  16
ATOM     16  C   UNL d   1     -47.589  12.632  23.335  0.00  0.00     0.019 C 
ATOM     17  C   UNL d   1     -46.953  12.194  23.637  0.00  0.00     0.002 C 
ENDBRANCH  14  16
ENDBRANCH  12  14
ENDBRANCH   2  11
TORSDOF 3
ENDMDL
MODEL 3
REMARK VINA RESULT:      -6.7      1.547      3.128
REMARK  3 active torsions:
REMARK  status: ('A' for Active; 'I' for Inactive)
REMARK    1  A    between atoms: C_6  and  C_2 
REMARK       I    between atoms: N_8  and  C_6 
REMARK    2  A    between atoms: C_14  and  N_8 
REMARK    3  A    between atoms: C_15  and  C_14 
ROOT
ATOM      1  N   UNL d   1     -50.000  12.536  22.680  0.00  0.00    -0.252 N 
ATOM      2  C   UNL d   1     -48.723  12.381  22.066  0.00  0.00     0.133 A 
ATOM      3  C   UNL d   1     -49.448  12.768  22.115  0.00  0.00     0.272 A 
ATOM      4  C   UNL d   1     -49.827  11.916  23.196  0.00  0.00     0.182 A 
ATOM      5  N   UNL d   1     -49.102  11.529  23.148  0.00  0.00    -0.220 NA
ATOM      6  C   UNL d   1     -48.550  11.762  22.583  0.00  0.00     0.111 A 
ATOM      7  S   UNL d   1     -50.479  11.807  23.697  0.00  0.00    -0.048 SA
ATOM      8  O   UNL d   1     -49.621  13.388  21.599  0.00  0.00    -0.266 OA
ATOM      9  C   UNL d   1     -50.758  12.809  22.862  0.00  0.00     0.092 A 
ATOM     10  C   UNL d   1     -51.047  12.357  23.489  0.00  0.00     0.057 A 
ENDROOT
BRANCH   2  11
ATOM     11  C   UNL d   1     -48.160  12.612  21.496  0.00  0.00     0.285 C 
ATOM     12  N   UNL d   1     -47.433  12.922  21.738  0.00  0.00    -0.208 NA
ATOM     13  O   UNL d   1     -48.334  12.529  20.694  0.00  0.00    -0.265 OA
BRANCH  12  14
ATOM     14  C   UNL d   1     -47.262  13.004  22.542  0.00  0.00     0.085 C 
ATOM     15  C   UNL d   1     -47.062  12.337  22.995  0.00  0.00     0.021 C 
BRANCH  14  16
ATOM     16  C   UNL d   1     -47.290  13.748  22.892  0.00  0.00     0.019 C 
ATOM     17  C   UNL d   1     -46.595  14.101  23.173  0.00  0.00     0.002 C 
ENDBRANCH  14  16
ENDBRANCH  12  14
ENDBRANCH   2  11
TORSDOF 3
ENDMDL
MODEL 4
REMARK VINA RESULT:      -6.7      1.284      2.979
REMARK  3 active torsions:
REMARK  status: ('A' for Active; 'I' for Inactive)
REMARK    1  A    between atoms: C_6  and  C_2 
REMARK       I    between atoms: N_8  and  C_6 
REMARK    2  A    between atoms: C_14  and  N_8 
REMARK    3  A    between atoms: C_15  and  C_14 
ROOT
ATOM      1  N   UNL d   1     -49.176  12.664  22.095  0.00  0.00    -0.252 N 
ATOM      2  C   UNL d   1     -48.110  12.468  23.021  0.00  0.00     0.133 A 
ATOM      3  C   UNL d   1     -48.588  12.185  22.413  0.00  0.00     0.272 A 
ATOM      4  C   UNL d   1     -49.287  13.429  22.385  0.00  0.00     0.182 A 
ATOM      5  N   UNL d   1     -48.810  13.714  22.992  0.00  0.00    -0.220 NA
ATOM      6  C   UNL d   1     -48.221  13.233  23.310  0.00  0.00     0.111 A 
ATOM      7  S   UNL d   1     -49.911  13.777  21.964  0.00  0.00    -0.048 SA
ATOM      8  O   UNL d   1     -48.477  11.420  22.123  0.00  0.00    -0.266 OA
ATOM      9  C   UNL d   1     -49.732  12.541  21.496  0.00  0.00     0.092 A 
ATOM     10  C   UNL d   1     -50.180  13.229  21.421  0.00  0.00     0.057 A 
ENDROOT
BRANCH   2  11
ATOM     11  C   UNL d   1     -47.512  11.987  23.347  0.00  0.00     0.285 C 
ATOM     12  N   UNL d   1     -46.724  12.233  23.316  0.00  0.00    -0.208 NA
ATOM     13  O   UNL d   1     -47.714  11.268  23.698  0.00  0.00    -0.265 OA
BRANCH  12  14
ATOM     14  C   UNL d   1     -46.525  12.953  22.964  0.00  0.00     0.085 C 
ATOM     15  C   UNL d   1     -46.655  13.664  23.372  0.00  0.00     0.021 C 
BRANCH  14  16
ATOM     16  C   UNL d   1     -46.200  12.962  22.209  0.00  0.00     0.019 C 
ATOM     17  C   UNL d   1     -45.442  13.275  22.087  0.00  0.00     0.002 C 
ENDBRANCH  14  16
ENDBRANCH  12  14
ENDBRANCH   2  11
TORSDOF 3
ENDMDL
MODEL 5
REMARK VINA RESULT:      -6.6      1.541      1.722
REMARK  3 active torsions:
REMARK  status: ('A' for Active; 'I' for Inactive)
REMARK    1  A    between atoms: C_6  and  C_2 
REMARK       I    between atoms: N_8  and  C_6 
REMARK    2  A    between atoms: C_14  and  N_8 
REMARK    3  A    between atoms: C_15  and  C_14 
ROOT
ATOM      1  N   UNL d   1     -47.558  13.889  22.680  0.00  0.00    -0.252 N 
ATOM      2  C   UNL d   1     -48.872  13.698  22.160  0.00  0.00     0.133 A 
ATOM      3  C   UNL d   1     -48.353  14.101  22.657  0.00  0.00     0.272 A 
ATOM      4  C   UNL d   1     -47.282  13.273  22.206  0.00  0.00     0.182 A 
ATOM      5  N   UNL d   1     -47.799  12.869  21.709  0.00  0.00    -0.220 NA
ATOM      6  C   UNL d   1     -48.595  13.082  21.687  0.00  0.00     0.111 A 
ATOM      7  S   UNL d   1     -46.468  13.185  22.344  0.00  0.00    -0.048 SA
ATOM      8  O   UNL d   1     -48.630  14.717  23.131  0.00  0.00    -0.266 OA
ATOM      9  C   UNL d   1     -46.916  14.181  23.111  0.00  0.00     0.092 A 
ATOM     10  C   UNL d   1     -46.250  13.744  22.900  0.00  0.00     0.057 A 
ENDROOT
BRANCH   2  11
ATOM     11  C   UNL d   1     -49.678  13.908  22.133  0.00  0.00     0.285 C 
ATOM     12  N   UNL d   1     -50.255  13.358  22.352  0.00  0.00    -0.208 NA
ATOM     13  O   UNL d   1     -49.893  14.666  21.886  0.00  0.00    -0.265 OA
BRANCH  12  14
ATOM     14  C   UNL d   1     -50.035  12.601  22.599  0.00  0.00     0.085 C 
ATOM     15  C   UNL d   1     -49.825  12.026  22.038  0.00  0.00     0.021 C 
BRANCH  14  16
ATOM     16  C   UNL d   1     -50.026  12.419  23.401  0.00  0.00     0.019 C 
ATOM     17  C   UNL d   1     -50.517  11.821  23.697  0.00  0.00     0.002 C 
ENDBRANCH  14  16
ENDBRANCH  12  14
ENDBRANCH   2  11
TORSDOF 3
ENDMDL
MODEL 6
REMARK VINA RESULT:      -5.6      8.750     10.192
REMARK  3 active torsions:
REMARK  status: ('A' for Active; 'I' for Inactive)
REMARK    1  A    between atoms: C_6  and  C_2 
REMARK       I    between atoms: N_8  and  C_6 
REMARK    2  A    between atoms: C_14  and  N_8 
REMARK    3  A    between atoms: C_15  and  C_14 
ROOT
ATOM      1  N   UNL d   1     -40.428  14.686  19.283  0.00  0.00    -0.252 N 
ATOM      2  C   UNL d   1     -40.341  15.104  17.924  0.00  0.00     0.133 A 
ATOM      3  C   UNL d   1     -40.618  14.574  18.491  0.00  0.00     0.272 A 
ATOM      4  C   UNL d   1     -39.961  15.327  19.510  0.00  0.00     0.182 A 
ATOM      5  N   UNL d   1     -39.684  15.857  18.944  0.00  0.00    -0.220 NA
ATOM      6  C   UNL d   1     -39.875  15.745  18.151  0.00  0.00     0.111 A 
ATOM      7  S   UNL d   1     -39.862  15.298  20.333  0.00  0.00    -0.048 SA
ATOM      8  O   UNL d   1     -41.084  13.933  18.264  0.00  0.00    -0.266 OA
ATOM      9  C   UNL d   1     -40.617  14.261  19.966  0.00  0.00     0.092 A 
ATOM     10  C   UNL d   1     -40.267  14.642  20.608  0.00  0.00     0.057 A 
ENDROOT
BRANCH   2  11
ATOM     11  C   UNL d   1     -40.531  14.996  17.119  0.00  0.00     0.285 C 
ATOM     12  N   UNL d   1     -39.932  14.826  16.575  0.00  0.00    -0.208 NA
ATOM     13  O   UNL d   1     -41.315  15.061  16.872  0.00  0.00    -0.265 OA
BRANCH  12  14
ATOM     14  C   UNL d   1     -39.148  14.761  16.825  0.00  0.00     0.085 C 
ATOM     15  C   UNL d   1     -38.700  15.446  16.968  0.00  0.00     0.021 C 
BRANCH  14  16
ATOM     16  C   UNL d   1     -38.813  14.018  16.933  0.00  0.00     0.019 C 
ATOM     17  C   UNL d   1     -38.183  13.772  16.453  0.00  0.00     0.002 C 
ENDBRANCH  14  16
ENDBRANCH  12  14
ENDBRANCH   2  11
TORSDOF 3
ENDMDL
MODEL 7
REMARK VINA RESULT:      -5.2      9.378     10.518
REMARK  3 active torsions:
REMARK  status: ('A' for Active; 'I' for Inactive)
REMARK    1  A    between atoms: C_6  and  C_2 
REMARK       I    between atoms: N_8  and  C_6 
REMARK    2  A    between atoms: C_14  and  N_8 
REMARK    3  A    between atoms: C_15  and  C_14 
ROOT
ATOM      1  N   UNL d   1     -38.924  14.367  16.950  0.00  0.00    -0.252 N 
ATOM      2  C   UNL d   1     -39.989  14.584  17.872  0.00  0.00     0.133 A 
ATOM      3  C   UNL d   1     -39.452  14.075  17.509  0.00  0.00     0.272 A 
ATOM      4  C   UNL d   1     -38.931  15.167  16.753  0.00  0.00     0.182 A 
ATOM      5  N   UNL d   1     -39.467  15.677  17.114  0.00  0.00    -0.220 NA
ATOM      6  C   UNL d   1     -39.996  15.385  17.674  0.00  0.00     0.111 A 
ATOM      7  S   UNL d   1     -38.345  15.299  16.181  0.00  0.00    -0.048 SA
ATOM      8  O   UNL d   1     -39.445  13.274  17.707  0.00  0.00    -0.266 OA
ATOM      9  C   UNL d   1     -38.333  14.004  16.501  0.00  0.00     0.092 A 
ATOM     10  C   UNL d   1     -37.981  14.582  16.030  0.00  0.00     0.057 A 
ENDROOT
BRANCH   2  11
ATOM     11  C   UNL d   1     -40.527  14.295  18.439  0.00  0.00     0.285 C 
ATOM     12  N   UNL d   1     -40.485  14.562  19.220  0.00  0.00    -0.208 NA
ATOM     13  O   UNL d   1     -41.098  13.743  18.215  0.00  0.00    -0.265 OA
BRANCH  12  14
ATOM     14  C   UNL d   1     -39.912  15.115  19.440  0.00  0.00     0.085 C 
ATOM     15  C   UNL d   1     -40.023  15.920  19.269  0.00  0.00     0.021 C 
BRANCH  14  16
ATOM     16  C   UNL d   1     -39.232  14.865  19.830  0.00  0.00     0.019 C 
ATOM     17  C   UNL d   1     -39.095  15.093  20.615  0.00  0.00     0.002 C 
ENDBRANCH  14  16
ENDBRANCH  12  14
ENDBRANCH   2  11
TORSDOF 3
ENDMDL
