MODEL 1
REMARK VINA RESULT:      -4.1      0.000      0.000
REMARK  7 active torsions:
REMARK  status: ('A' for Active; 'I' for Inactive)
REMARK    1  A    between atoms: C_5  and  C_1 
REMARK    2  A    between atoms: N_6  and  C_2 
REMARK    3  A    between atoms: C_7  and  C_5 
REMARK    4  A    between atoms: C_8  and  C_5 
REMARK       I    between atoms: N_13  and  C_7 
REMARK    5  A    between atoms: C_17  and  N_13 
REMARK    6  A    between atoms: C_23  and  C_17 
REMARK    7  A    between atoms: C_18  and  C_23 
ROOT
ATOM      1  C   UNL d   1      58.776  -1.447  29.198  0.00  0.00     0.117 A 
ATOM      2  C   UNL d   1      59.580  -1.585  29.326  0.00  0.00     0.145 A 
ATOM      3  N   UNL d   1      59.891  -2.342  29.208  0.00  0.00    -0.230 NA
ATOM      4  N   UNL d   1      58.285  -2.066  28.953  0.00  0.00    -0.241 NA
ATOM      5  C   UNL d   1      59.401  -2.956  28.964  0.00  0.00     0.100 A 
ATOM      6  C   UNL d   1      58.598  -2.818  28.837  0.00  0.00     0.099 A 
ATOM      7  C   UNL d   1      59.713  -3.708  28.848  0.00  0.00     0.021 A 
ATOM      8  C   UNL d   1      58.107  -3.432  28.593  0.00  0.00     0.021 A 
ATOM      9  C   UNL d   1      59.222  -4.331  28.602  0.00  0.00     0.002 A 
ATOM     10  C   UNL d   1      58.419  -4.193  28.474  0.00  0.00     0.002 A 
ENDROOT
BRANCH   1  11
ATOM     11  C   UNL d   1      58.631  -0.654  29.357  0.00  0.00     0.099 C 
BRANCH  11  12
ATOM     12  C   UNL d   1      58.155  -0.279  29.934  0.00  0.00     0.282 C 
ATOM     13  O   UNL d   1      57.850   0.482  29.791  0.00  0.00    -0.265 OA
ATOM     14  N   UNL d   1      57.989  -0.670  30.646  0.00  0.00    -0.206 NA
BRANCH  14  15
ATOM     15  C   UNL d   1      57.515  -0.293  31.218  0.00  0.00     0.102 C 
BRANCH  15  16
ATOM     16  C   UNL d   1      56.970  -0.630  31.743  0.00  0.00     0.021 C 
BRANCH  16  17
ATOM     17  C   UNL d   1      56.729  -0.216  32.411  0.00  0.00     0.002 A 
ATOM     18  C   UNL d   1      55.932  -0.192  32.599  0.00  0.00     0.000 A 
ATOM     19  C   UNL d   1      55.690   0.225  33.272  0.00  0.00     0.000 A 
ATOM     20  C   UNL d   1      56.243   0.610  33.744  0.00  0.00     0.000 A 
ATOM     21  C   UNL d   1      57.043   0.575  33.539  0.00  0.00     0.000 A 
ATOM     22  C   UNL d   1      57.282   0.164  32.877  0.00  0.00     0.000 A 
ENDBRANCH  16  17
ENDBRANCH  15  16
ENDBRANCH  14  15
ENDBRANCH  11  12
BRANCH  11  23
ATOM     23  C   UNL d   1      59.002  -0.100  28.886  0.00  0.00     0.129 C 
ATOM     24  N   UNL d   1      58.759   0.561  28.457  0.00  0.00    -0.146 N 
ENDBRANCH  11  23
ENDBRANCH   1  11
BRANCH   2  25
ATOM     25  N   UNL d   1      59.929  -0.877  29.563  0.00  0.00    -0.188 NA
ATOM     26  C   UNL d   1      60.655  -0.838  29.942  0.00  0.00     0.083 A 
ATOM     27  C   UNL d   1      60.628   0.261  30.017  0.00  0.00     0.136 A 
ATOM     28  O   UNL d   1      61.082   0.682  30.286  0.00  0.00    -0.301 OA
ATOM     29  C   UNL d   1      60.295   0.595  29.873  0.00  0.00     0.136 A 
ATOM     30  C   UNL d   1      60.345  -0.430  29.815  0.00  0.00     0.083 A 
ENDBRANCH   2  25
TORSDOF 7
ENDMDL
MODEL 2
REMARK VINA RESULT:      -1.4      1.135      4.620
REMARK  7 active torsions:
REMARK  status: ('A' for Active; 'I' for Inactive)
REMARK    1  A    between atoms: C_5  and  C_1 
REMARK    2  A    between atoms: N_6  and  C_2 
REMARK    3  A    between atoms: C_7  and  C_5 
REMARK    4  A    between atoms: C_8  and  C_5 
REMARK       I    between atoms: N_13  and  C_7 
REMARK    5  A    between atoms: C_17  and  N_13 
REMARK    6  A    between atoms: C_23  and  C_17 
REMARK    7  A    between atoms: C_18  and  C_23 
ROOT
ATOM      1  C   UNL d   1      57.317  -0.426  31.319  0.00  0.00     0.117 A 
ATOM      2  C   UNL d   1      57.797   0.068  31.774  0.00  0.00     0.145 A 
ATOM      3  N   UNL d   1      57.542   0.316  32.520  0.00  0.00    -0.230 NA
ATOM      4  N   UNL d   1      56.582  -0.671  31.611  0.00  0.00    -0.241 NA
ATOM      5  C   UNL d   1      56.811   0.072  32.809  0.00  0.00     0.100 A 
ATOM      6  C   UNL d   1      56.332  -0.422  32.354  0.00  0.00     0.099 A 
ATOM      7  C   UNL d   1      56.560   0.320  33.552  0.00  0.00     0.021 A 
ATOM      8  C   UNL d   1      55.601  -0.667  32.642  0.00  0.00     0.021 A 
ATOM      9  C   UNL d   1      55.823   0.076  33.847  0.00  0.00     0.002 A 
ATOM     10  C   UNL d   1      55.344  -0.418  33.392  0.00  0.00     0.002 A 
ENDROOT
BRANCH   1  11
ATOM     11  C   UNL d   1      57.711  -0.578  30.614  0.00  0.00     0.099 C 
BRANCH  11  12
ATOM     12  C   UNL d   1      58.009  -1.285  30.282  0.00  0.00     0.282 C 
ATOM     13  O   UNL d   1      58.171  -1.939  30.772  0.00  0.00    -0.265 OA
ATOM     14  N   UNL d   1      58.139  -1.331  29.465  0.00  0.00    -0.206 NA
BRANCH  14  15
ATOM     15  C   UNL d   1      58.436  -2.038  29.137  0.00  0.00     0.102 C 
BRANCH  15  16
ATOM     16  C   UNL d   1      58.947  -2.137  28.494  0.00  0.00     0.021 C 
BRANCH  16  17
ATOM     17  C   UNL d   1      59.509  -2.736  28.500  0.00  0.00     0.002 A 
ATOM     18  C   UNL d   1      59.261  -3.515  28.544  0.00  0.00     0.000 A 
ATOM     19  C   UNL d   1      59.829  -4.118  28.550  0.00  0.00     0.000 A 
ATOM     20  C   UNL d   1      60.631  -3.935  28.512  0.00  0.00     0.000 A 
ATOM     21  C   UNL d   1      60.862  -3.143  28.468  0.00  0.00     0.000 A 
ATOM     22  C   UNL d   1      60.304  -2.549  28.462  0.00  0.00     0.000 A 
ENDBRANCH  16  17
ENDBRANCH  15  16
ENDBRANCH  14  15
ENDBRANCH  11  12
BRANCH  11  23
ATOM     23  C   UNL d   1      57.858   0.056  30.120  0.00  0.00     0.129 C 
ATOM     24  N   UNL d   1      57.548   0.324  29.404  0.00  0.00    -0.146 N 
ENDBRANCH  11  23
ENDBRANCH   1  11
BRANCH   2  25
ATOM     25  N   UNL d   1      58.487   0.220  31.349  0.00  0.00    -0.188 NA
ATOM     26  C   UNL d   1      59.188   0.461  31.700  0.00  0.00     0.083 A 
ATOM     27  C   UNL d   1      59.725   0.510  30.739  0.00  0.00     0.136 A 
ATOM     28  O   UNL d   1      60.367   0.682  30.617  0.00  0.00    -0.301 OA
ATOM     29  C   UNL d   1      59.585   0.418  30.275  0.00  0.00     0.136 A 
ATOM     30  C   UNL d   1      59.107   0.380  31.184  0.00  0.00     0.083 A 
ENDBRANCH   2  25
TORSDOF 7
ENDMDL
