MODEL 1
REMARK VINA RESULT:      34.9      0.000      0.000
REMARK  4 active torsions:
REMARK  status: ('A' for Active; 'I' for Inactive)
REMARK    1  A    between atoms: C_9  and  N_1 
REMARK    2  A    between atoms: C_2  and  C_9 
REMARK    3  A    between atoms: S_13  and  C_5 
REMARK    4  A    between atoms: C_17  and  S_13 
ROOT
ATOM      1  N   UNL d   1      58.178  49.677  50.548  0.00  0.00    -0.265 N 
ATOM      2  C   UNL d   1      57.894  49.675  51.325  0.00  0.00     0.296 A 
ATOM      3  S   UNL d   1      57.073  49.643  51.289  0.00  0.00    -0.025 SA
ATOM      4  C   UNL d   1      57.542  49.647  50.033  0.00  0.00     0.074 A 
ATOM      5  C   UNL d   1      56.855  49.625  50.483  0.00  0.00     0.050 A 
ATOM      6  O   UNL d   1      58.351  49.700  52.007  0.00  0.00    -0.259 OA
ATOM      7  C   UNL d   1      57.491  49.635  49.205  0.00  0.00     0.018 A 
ATOM      8  C   UNL d   1      56.116  49.592  50.115  0.00  0.00     0.008 A 
ATOM      9  C   UNL d   1      56.755  49.603  48.833  0.00  0.00     0.002 A 
ATOM     10  C   UNL d   1      56.068  49.581  49.299  0.00  0.00     0.001 A 
ENDROOT
BRANCH   1  11
ATOM     11  C   UNL d   1      58.971  49.705  50.322  0.00  0.00     0.123 C 
BRANCH  11  12
ATOM     12  C   UNL d   1      59.552  49.416  50.815  0.00  0.00     0.189 A 
ATOM     13  N   UNL d   1      60.334  49.421  50.574  0.00  0.00    -0.265 N 
ATOM     14  C   UNL d   1      60.788  49.099  51.180  0.00  0.00     0.201 A 
ATOM     15  C   UNL d   1      60.629  49.697  49.856  0.00  0.00     0.103 C 
ATOM     16  N   UNL d   1      60.285  48.894  51.796  0.00  0.00    -0.121 NA
ATOM     17  N   UNL d   1      59.520  49.092  51.568  0.00  0.00    -0.126 NA
BRANCH  14  18
ATOM     18  S   UNL d   1      61.605  48.998  51.173  0.00  0.00    -0.048 SA
BRANCH  18  19
ATOM     19  C   UNL d   1      62.095  49.509  51.596  0.00  0.00     0.038 C 
ATOM     20  C   UNL d   1      62.176  49.429  52.414  0.00  0.00     0.008 C 
ENDBRANCH  18  19
ENDBRANCH  14  18
ENDBRANCH  11  12
ENDBRANCH   1  11
TORSDOF 4
ENDMDL
