MODEL 1
REMARK VINA RESULT:     131.2      0.000      0.000
REMARK  5 active torsions:
REMARK  status: ('A' for Active; 'I' for Inactive)
REMARK    1  A    between atoms: N_6  and  C_1 
REMARK    2  A    between atoms: C_10  and  C_2 
REMARK       I    between atoms: C_9  and  N_6 
REMARK    3  A    between atoms: C_14  and  C_9 
REMARK    4  A    between atoms: C_13  and  C_15 
REMARK    5  A    between atoms: C_19  and  C_13 
ROOT
ATOM      1  N   UNL d   1      60.905  45.593  50.786  0.00  0.00    -0.201 NA
ATOM      2  C   UNL d   1      61.332  46.298  50.803  0.00  0.00     0.280 C 
ATOM      3  O   UNL d   1      62.150  46.291  50.719  0.00  0.00    -0.265 OA
ENDROOT
BRANCH   1   4
ATOM      4  C   UNL d   1      61.298  44.871  50.685  0.00  0.00     0.118 A 
ATOM      5  C   UNL d   1      61.575  44.561  49.972  0.00  0.00     0.083 A 
ATOM      6  C   UNL d   1      61.927  43.838  50.135  0.00  0.00     0.008 A 
ATOM      7  C   UNL d   1      62.295  43.288  49.638  0.00  0.00    -0.004 A 
ATOM      8  C   UNL d   1      61.872  43.696  50.936  0.00  0.00     0.028 A 
ATOM      9  C   UNL d   1      62.606  42.593  49.960  0.00  0.00     0.099 A 
ATOM     10  C   UNL d   1      62.661  42.738  49.148  0.00  0.00     0.029 C 
ATOM     11  C   UNL d   1      62.919  41.899  50.276  0.00  0.00     0.029 C 
ATOM     12  N   UNL d   1      62.551  42.449  50.774  0.00  0.00    -0.294 NA
ATOM     13  C   UNL d   1      62.184  43.000  51.263  0.00  0.00     0.104 A 
ATOM     14  C   UNL d   1      62.425  42.385  51.762  0.00  0.00     0.029 C 
ATOM     15  C   UNL d   1      61.867  43.408  51.905  0.00  0.00     0.029 C 
ATOM     16  S   UNL d   1      61.482  44.336  51.287  0.00  0.00    -0.070 SA
BRANCH   5  17
ATOM     17  C   UNL d   1      61.504  44.922  49.240  0.00  0.00     0.299 C 
ATOM     18  O   UNL d   1      60.769  44.914  48.858  0.00  0.00    -0.264 OA
ATOM     19  N   UNL d   1      62.153  45.290  48.886  0.00  0.00    -0.102 N 
ENDBRANCH   5  17
ENDBRANCH   1   4
BRANCH   2  20
ATOM     20  C   UNL d   1      60.945  47.008  50.903  0.00  0.00     0.058 A 
ATOM     21  C   UNL d   1      61.323  47.716  50.712  0.00  0.00     0.005 A 
ATOM     22  C   UNL d   1      60.930  48.437  50.814  0.00  0.00     0.003 A 
ATOM     23  C   UNL d   1      60.158  48.450  51.105  0.00  0.00     0.039 A 
ATOM     24  C   UNL d   1      59.789  47.748  51.291  0.00  0.00     0.003 A 
ATOM     25  C   UNL d   1      60.183  47.027  51.190  0.00  0.00     0.005 A 
BRANCH  23  26
ATOM     26  C   UNL d   1      59.770  49.169  51.205  0.00  0.00     0.196 C 
ATOM     27  O   UNL d   1      60.037  49.706  51.761  0.00  0.00    -0.287 OA
BRANCH  26  28
ATOM     28  C   UNL d   1      59.113  49.346  50.743  0.00  0.00     0.039 A 
ATOM     29  C   UNL d   1      59.196  49.528  49.950  0.00  0.00     0.003 A 
ATOM     30  C   UNL d   1      58.539  49.705  49.489  0.00  0.00     0.000 A 
ATOM     31  C   UNL d   1      57.787  49.699  49.832  0.00  0.00     0.000 A 
ATOM     32  C   UNL d   1      57.698  49.516  50.633  0.00  0.00     0.000 A 
ATOM     33  C   UNL d   1      58.361  49.341  51.086  0.00  0.00     0.003 A 
ENDBRANCH  26  28
ENDBRANCH  23  26
ENDBRANCH   2  20
TORSDOF 5
ENDMDL
