MODEL 1
REMARK VINA RESULT:      43.3      0.000      0.000
REMARK  6 active torsions:
REMARK  status: ('A' for Active; 'I' for Inactive)
REMARK    1  A    between atoms: N_2  and  S_1 
REMARK    2  A    between atoms: C_3  and  S_1 
REMARK    3  A    between atoms: C_7  and  N_2 
REMARK    4  A    between atoms: C_10  and  C_7 
REMARK    5  A    between atoms: O_14  and  C_11 
REMARK    6  A    between atoms: C_17  and  O_14 
ROOT
ATOM      1  S   UNL d   1      59.426  49.222  50.670  0.00  0.00     0.285 S 
ATOM      2  O   UNL d   1      59.367  48.948  51.445  0.00  0.00    -0.198 OA
ATOM      3  O   UNL d   1      59.485  49.497  49.894  0.00  0.00    -0.198 OA
ENDROOT
BRANCH   1   4
ATOM      4  N   UNL d   1      58.770  49.707  50.791  0.00  0.00    -0.155 NA
BRANCH   4   5
ATOM      5  C   UNL d   1      58.028  49.373  50.924  0.00  0.00     0.131 C 
BRANCH   5   6
ATOM      6  C   UNL d   1      57.421  49.482  50.376  0.00  0.00     0.101 A 
ATOM      7  N   UNL d   1      57.591  49.490  49.570  0.00  0.00    -0.242 NA
ATOM      8  C   UNL d   1      56.984  49.599  49.022  0.00  0.00     0.099 A 
ATOM      9  C   UNL d   1      56.208  49.700  49.280  0.00  0.00     0.021 A 
ATOM     10  C   UNL d   1      56.035  49.693  50.092  0.00  0.00     0.003 A 
ATOM     11  C   UNL d   1      56.641  49.584  50.640  0.00  0.00     0.021 A 
ENDBRANCH   5   6
ENDBRANCH   4   5
ENDBRANCH   1   4
BRANCH   1  12
ATOM     12  C   UNL d   1      60.082  48.737  50.548  0.00  0.00     0.105 A 
ATOM     13  C   UNL d   1      60.031  47.930  50.698  0.00  0.00     0.015 A 
ATOM     14  C   UNL d   1      60.687  47.445  50.576  0.00  0.00     0.025 A 
ATOM     15  C   UNL d   1      61.395  47.767  50.305  0.00  0.00     0.100 A 
ATOM     16  C   UNL d   1      61.445  48.576  50.155  0.00  0.00     0.025 A 
ATOM     17  C   UNL d   1      60.783  49.066  50.278  0.00  0.00     0.015 A 
BRANCH  15  18
ATOM     18  O   UNL d   1      62.051  47.282  50.183  0.00  0.00    -0.305 OA
BRANCH  18  19
ATOM     19  C   UNL d   1      61.969  46.464  50.209  0.00  0.00     0.123 C 
ATOM     20  C   UNL d   1      62.195  46.005  49.562  0.00  0.00     0.029 C 
ENDBRANCH  18  19
ENDBRANCH  15  18
ENDBRANCH   1  12
TORSDOF 6
ENDMDL
