MODEL 1
REMARK VINA RESULT:      53.9      0.000      0.000
REMARK  4 active torsions:
REMARK  status: ('A' for Active; 'I' for Inactive)
REMARK    1  A    between atoms: N_10  and  C_1 
REMARK       I    between atoms: C_12  and  N_10 
REMARK    2  A    between atoms: C_17  and  C_12 
REMARK    3  A    between atoms: C_18  and  C_17 
REMARK    4  A    between atoms: C_19  and  C_18 
ROOT
ATOM      1  C   UNL d   1      59.349  49.420  49.878  0.00  0.00     0.197 A 
ATOM      2  C   UNL d   1      58.115  49.150  50.250  0.00  0.00     0.057 A 
ATOM      3  C   UNL d   1      57.444  48.916  50.612  0.00  0.00     0.056 A 
ATOM      4  N   UNL d   1      58.880  49.707  49.303  0.00  0.00    -0.221 NA
ATOM      5  S   UNL d   1      58.908  49.064  50.487  0.00  0.00    -0.046 SA
ATOM      6  N   UNL d   1      56.143  48.769  50.751  0.00  0.00    -0.238 NA
ATOM      7  S   UNL d   1      57.298  48.530  51.305  0.00  0.00    -0.066 SA
ATOM      8  C   UNL d   1      58.097  49.540  49.532  0.00  0.00     0.090 A 
ATOM      9  C   UNL d   1      56.708  49.063  50.268  0.00  0.00     0.088 A 
ATOM     10  C   UNL d   1      56.450  48.437  51.391  0.00  0.00     0.111 A 
ATOM     11  C   UNL d   1      56.664  49.451  49.551  0.00  0.00     0.021 A 
ATOM     12  C   UNL d   1      57.375  49.694  49.177  0.00  0.00     0.021 A 
ATOM     13  C   UNL d   1      56.037  48.074  52.017  0.00  0.00     0.028 C 
ENDROOT
BRANCH   1  14
ATOM     14  N   UNL d   1      60.199  49.464  49.882  0.00  0.00    -0.183 NA
ATOM     15  C   UNL d   1      60.577  49.602  50.589  0.00  0.00     0.281 C 
ATOM     16  O   UNL d   1      60.079  49.690  51.271  0.00  0.00    -0.265 OA
BRANCH  15  17
ATOM     17  C   UNL d   1      61.358  49.643  50.592  0.00  0.00     0.063 C 
BRANCH  17  18
ATOM     18  C   UNL d   1      61.839  49.252  51.312  0.00  0.00     0.005 C 
BRANCH  18  19
ATOM     19  C   UNL d   1      61.880  49.708  52.140  0.00  0.00     0.000 C 
ATOM     20  C   UNL d   1      62.464  49.679  52.726  0.00  0.00     0.000 C 
ENDBRANCH  18  19
ENDBRANCH  17  18
ENDBRANCH  15  17
ENDBRANCH   1  14
TORSDOF 4
ENDMDL
