MODEL 1
REMARK VINA RESULT:      -9.9      0.000      0.000
REMARK  5 active torsions:
REMARK  status: ('A' for Active; 'I' for Inactive)
REMARK    1  A    between atoms: C_6  and  C_1 
REMARK    2  A    between atoms: C_8  and  N_3 
REMARK    3  A    between atoms: C_7  and  C_8 
REMARK    4  A    between atoms: C_9  and  C_7 
REMARK    5  A    between atoms: C_10  and  C_9 
ROOT
ATOM      1  C   UNL d   1      54.135  33.747  54.713  0.00  0.00     0.187 A 
ATOM      2  N   UNL d   1      53.760  34.487  54.830  0.00  0.00    -0.224 NA
ATOM      3  N   UNL d   1      53.774  33.373  54.063  0.00  0.00    -0.287 N 
ATOM      4  C   UNL d   1      53.179  33.870  53.775  0.00  0.00     0.083 A 
ATOM      5  C   UNL d   1      53.167  34.556  54.244  0.00  0.00     0.099 A 
ATOM      6  C   UNL d   1      52.635  33.798  53.143  0.00  0.00     0.019 A 
ATOM      7  C   UNL d   1      52.621  35.168  54.090  0.00  0.00     0.021 A 
ATOM      8  C   UNL d   1      52.095  34.403  52.989  0.00  0.00     0.002 A 
ATOM      9  C   UNL d   1      52.088  35.086  53.461  0.00  0.00     0.002 A 
ENDROOT
BRANCH   3  10
ATOM     10  C   UNL d   1      54.091  32.632  53.883  0.00  0.00     0.082 C 
BRANCH  10  11
ATOM     11  C   UNL d   1      53.596  31.999  53.724  0.00  0.00     0.019 C 
BRANCH  11  12
ATOM     12  C   UNL d   1      53.909  31.304  53.404  0.00  0.00     0.002 C 
BRANCH  12  13
ATOM     13  C   UNL d   1      53.493  30.597  53.471  0.00  0.00     0.000 A 
ATOM     14  C   UNL d   1      52.908  30.411  52.920  0.00  0.00     0.000 A 
ATOM     15  C   UNL d   1      52.497  29.706  52.993  0.00  0.00     0.000 A 
ATOM     16  C   UNL d   1      52.664  29.185  53.610  0.00  0.00     0.000 A 
ATOM     17  C   UNL d   1      53.251  29.375  54.160  0.00  0.00     0.000 A 
ATOM     18  C   UNL d   1      53.660  30.076  54.089  0.00  0.00     0.000 A 
ENDBRANCH  12  13
ENDBRANCH  11  12
ENDBRANCH  10  11
ENDBRANCH   3  10
BRANCH   1  19
ATOM     19  C   UNL d   1      54.676  33.565  55.164  0.00  0.00     0.230 C 
ATOM     20  O   UNL d   1      54.598  33.081  55.827  0.00  0.00    -0.283 OA
ATOM     21  C   UNL d   1      55.426  33.865  55.002  0.00  0.00     0.049 C 
ENDBRANCH   1  19
TORSDOF 5
ENDMDL
MODEL 2
REMARK VINA RESULT:      -9.6      1.208      3.739
REMARK  5 active torsions:
REMARK  status: ('A' for Active; 'I' for Inactive)
REMARK    1  A    between atoms: C_6  and  C_1 
REMARK    2  A    between atoms: C_8  and  N_3 
REMARK    3  A    between atoms: C_7  and  C_8 
REMARK    4  A    between atoms: C_9  and  C_7 
REMARK    5  A    between atoms: C_10  and  C_9 
ROOT
ATOM      1  C   UNL d   1      53.826  32.606  54.319  0.00  0.00     0.187 A 
ATOM      2  N   UNL d   1      54.034  31.824  54.535  0.00  0.00    -0.224 NA
ATOM      3  N   UNL d   1      53.326  32.568  53.655  0.00  0.00    -0.287 N 
ATOM      4  C   UNL d   1      53.220  31.773  53.455  0.00  0.00     0.083 A 
ATOM      5  C   UNL d   1      53.654  31.312  53.994  0.00  0.00     0.099 A 
ATOM      6  C   UNL d   1      52.785  31.392  52.850  0.00  0.00     0.019 A 
ATOM      7  C   UNL d   1      53.658  30.479  53.936  0.00  0.00     0.021 A 
ATOM      8  C   UNL d   1      52.787  30.568  52.791  0.00  0.00     0.002 A 
ATOM      9  C   UNL d   1      53.223  30.113  53.333  0.00  0.00     0.002 A 
ENDROOT
BRANCH   3  10
ATOM     10  C   UNL d   1      53.076  33.305  53.380  0.00  0.00     0.082 C 
BRANCH  10  11
ATOM     11  C   UNL d   1      52.312  33.403  53.100  0.00  0.00     0.019 C 
BRANCH  11  12
ATOM     12  C   UNL d   1      52.071  34.142  52.815  0.00  0.00     0.002 C 
BRANCH  12  13
ATOM     13  C   UNL d   1      51.287  34.260  52.594  0.00  0.00     0.000 A 
ATOM     14  C   UNL d   1      50.725  34.455  53.165  0.00  0.00     0.000 A 
ATOM     15  C   UNL d   1      49.946  34.572  52.939  0.00  0.00     0.000 A 
ATOM     16  C   UNL d   1      49.723  34.497  52.148  0.00  0.00     0.000 A 
ATOM     17  C   UNL d   1      50.289  34.301  51.579  0.00  0.00     0.000 A 
ATOM     18  C   UNL d   1      51.065  34.184  51.803  0.00  0.00     0.000 A 
ENDBRANCH  12  13
ENDBRANCH  11  12
ENDBRANCH  10  11
ENDBRANCH   3  10
BRANCH   1  19
ATOM     19  C   UNL d   1      54.096  33.152  54.717  0.00  0.00     0.230 C 
ATOM     20  O   UNL d   1      53.687  33.554  55.310  0.00  0.00    -0.283 OA
ATOM     21  C   UNL d   1      54.870  33.389  54.566  0.00  0.00     0.049 C 
ENDBRANCH   1  19
TORSDOF 5
ENDMDL
MODEL 3
REMARK VINA RESULT:      -9.3      1.465      2.334
REMARK  5 active torsions:
REMARK  status: ('A' for Active; 'I' for Inactive)
REMARK    1  A    between atoms: C_6  and  C_1 
REMARK    2  A    between atoms: C_8  and  N_3 
REMARK    3  A    between atoms: C_7  and  C_8 
REMARK    4  A    between atoms: C_9  and  C_7 
REMARK    5  A    between atoms: C_10  and  C_9 
ROOT
ATOM      1  C   UNL d   1      51.916  34.146  53.022  0.00  0.00     0.187 A 
ATOM      2  N   UNL d   1      52.015  34.837  53.484  0.00  0.00    -0.224 NA
ATOM      3  N   UNL d   1      52.492  33.592  53.257  0.00  0.00    -0.287 N 
ATOM      4  C   UNL d   1      52.947  33.930  53.858  0.00  0.00     0.083 A 
ATOM      5  C   UNL d   1      52.657  34.696  54.001  0.00  0.00     0.099 A 
ATOM      6  C   UNL d   1      53.596  33.650  54.307  0.00  0.00     0.019 A 
ATOM      7  C   UNL d   1      53.005  35.183  54.583  0.00  0.00     0.021 A 
ATOM      8  C   UNL d   1      53.941  34.129  54.883  0.00  0.00     0.002 A 
ATOM      9  C   UNL d   1      53.647  34.894  55.021  0.00  0.00     0.002 A 
ENDROOT
BRANCH   3  10
ATOM     10  C   UNL d   1      52.460  32.877  52.844  0.00  0.00     0.082 C 
BRANCH  10  11
ATOM     11  C   UNL d   1      52.741  32.189  53.189  0.00  0.00     0.019 C 
BRANCH  11  12
ATOM     12  C   UNL d   1      52.783  31.495  52.742  0.00  0.00     0.002 C 
BRANCH  12  13
ATOM     13  C   UNL d   1      52.930  30.775  53.114  0.00  0.00     0.000 A 
ATOM     14  C   UNL d   1      52.311  30.246  53.244  0.00  0.00     0.000 A 
ATOM     15  C   UNL d   1      52.464  29.532  53.616  0.00  0.00     0.000 A 
ATOM     16  C   UNL d   1      53.229  29.341  53.859  0.00  0.00     0.000 A 
ATOM     17  C   UNL d   1      53.847  29.874  53.727  0.00  0.00     0.000 A 
ATOM     18  C   UNL d   1      53.696  30.585  53.357  0.00  0.00     0.000 A 
ENDBRANCH  12  13
ENDBRANCH  11  12
ENDBRANCH  10  11
ENDBRANCH   3  10
BRANCH   1  19
ATOM     19  C   UNL d   1      51.383  34.140  52.527  0.00  0.00     0.230 C 
ATOM     20  O   UNL d   1      51.491  34.224  51.714  0.00  0.00    -0.283 OA
ATOM     21  C   UNL d   1      50.612  34.043  52.797  0.00  0.00     0.049 C 
ENDBRANCH   1  19
TORSDOF 5
ENDMDL
MODEL 4
REMARK VINA RESULT:      -8.6      1.715      3.976
REMARK  5 active torsions:
REMARK  status: ('A' for Active; 'I' for Inactive)
REMARK    1  A    between atoms: C_6  and  C_1 
REMARK    2  A    between atoms: C_8  and  N_3 
REMARK    3  A    between atoms: C_7  and  C_8 
REMARK    4  A    between atoms: C_9  and  C_7 
REMARK    5  A    between atoms: C_10  and  C_9 
ROOT
ATOM      1  C   UNL d   1      53.104  31.910  53.389  0.00  0.00     0.187 A 
ATOM      2  N   UNL d   1      53.614  31.715  54.023  0.00  0.00    -0.224 NA
ATOM      3  N   UNL d   1      53.013  32.738  53.373  0.00  0.00    -0.287 N 
ATOM      4  C   UNL d   1      53.461  33.059  53.990  0.00  0.00     0.083 A 
ATOM      5  C   UNL d   1      53.832  32.434  54.392  0.00  0.00     0.099 A 
ATOM      6  C   UNL d   1      53.588  33.844  54.251  0.00  0.00     0.019 A 
ATOM      7  C   UNL d   1      54.326  32.582  55.048  0.00  0.00     0.021 A 
ATOM      8  C   UNL d   1      54.077  33.993  54.899  0.00  0.00     0.002 A 
ATOM      9  C   UNL d   1      54.445  33.363  55.297  0.00  0.00     0.002 A 
ENDROOT
BRANCH   3  10
ATOM     10  C   UNL d   1      52.520  33.011  52.770  0.00  0.00     0.082 C 
BRANCH  10  11
ATOM     11  C   UNL d   1      51.924  33.548  52.937  0.00  0.00     0.019 C 
BRANCH  11  12
ATOM     12  C   UNL d   1      51.623  34.026  52.333  0.00  0.00     0.002 C 
BRANCH  12  13
ATOM     13  C   UNL d   1      50.834  34.261  52.350  0.00  0.00     0.000 A 
ATOM     14  C   UNL d   1      50.515  34.580  53.041  0.00  0.00     0.000 A 
ATOM     15  C   UNL d   1      49.729  34.812  53.051  0.00  0.00     0.000 A 
ATOM     16  C   UNL d   1      49.258  34.727  52.380  0.00  0.00     0.000 A 
ATOM     17  C   UNL d   1      49.581  34.407  51.689  0.00  0.00     0.000 A 
ATOM     18  C   UNL d   1      50.363  34.176  51.678  0.00  0.00     0.000 A 
ENDBRANCH  12  13
ENDBRANCH  11  12
ENDBRANCH  10  11
ENDBRANCH   3  10
BRANCH   1  19
ATOM     19  C   UNL d   1      52.841  31.366  52.983  0.00  0.00     0.230 C 
ATOM     20  O   UNL d   1      53.026  31.233  52.191  0.00  0.00    -0.283 OA
ATOM     21  C   UNL d   1      52.319  30.840  53.342  0.00  0.00     0.049 C 
ENDBRANCH   1  19
TORSDOF 5
ENDMDL
