MODEL 1
REMARK VINA RESULT:      89.8      0.000      0.000
REMARK  9 active torsions:
REMARK  status: ('A' for Active; 'I' for Inactive)
REMARK    1  A    between atoms: C_2  and  N_11 
REMARK    2  A    between atoms: S_3  and  N_22 
REMARK    3  A    between atoms: C_16  and  S_3 
REMARK    4  A    between atoms: C_21  and  C_5 
REMARK       I    between atoms: N_11  and  C_17 
REMARK    5  A    between atoms: S_23  and  C_12 
REMARK    6  A    between atoms: C_17  and  C_27 
REMARK    7  A    between atoms: C_28  and  C_21 
REMARK    8  A    between atoms: N_22  and  C_28 
REMARK    9  A    between atoms: C_27  and  S_23 
ROOT
ATOM      1  N   UNL d   1     -55.214-100.890 -44.247  0.00  0.00    -0.191 N 
ATOM      2  C   UNL d   1     -55.217-101.424 -44.879  0.00  0.00     0.187 A 
ATOM      3  C   UNL d   1     -55.256-100.127 -44.555  0.00  0.00     0.188 A 
ATOM      4  N   UNL d   1     -55.173-101.178 -43.475  0.00  0.00    -0.156 NA
ATOM      5  N   UNL d   1     -55.261-100.979 -45.576  0.00  0.00    -0.127 NA
ATOM      6  N   UNL d   1     -55.285-100.191 -45.378  0.00  0.00    -0.127 NA
ATOM      7  C   UNL d   1     -55.137-101.984 -43.338  0.00  0.00     0.131 A 
ATOM      8  C   UNL d   1     -55.180-102.230 -44.743  0.00  0.00     0.043 A 
ATOM      9  C   UNL d   1     -55.140-102.513 -43.968  0.00  0.00     0.031 A 
ENDROOT
BRANCH   7  10
ATOM     10  S   UNL d   1     -55.096-102.262 -42.561  0.00  0.00    -0.061 SA
BRANCH  10  11
ATOM     11  C   UNL d   1     -54.778-101.784 -41.965  0.00  0.00     0.099 C 
BRANCH  11  12
ATOM     12  C   UNL d   1     -54.943-101.959 -41.175  0.00  0.00     0.288 C 
ATOM     13  N   UNL d   1     -54.772-101.414 -40.597  0.00  0.00    -0.182 NA
ATOM     14  O   UNL d   1     -55.280-102.680 -40.971  0.00  0.00    -0.265 OA
BRANCH  13  15
ATOM     15  C   UNL d   1     -54.930-101.574 -39.810  0.00  0.00     0.197 A 
ATOM     16  N   UNL d   1     -55.082-101.005 -39.228  0.00  0.00    -0.221 NA
ATOM     17  C   UNL d   1     -55.212-101.409 -38.518  0.00  0.00     0.090 A 
ATOM     18  C   UNL d   1     -55.384-101.136 -37.768  0.00  0.00     0.020 A 
ATOM     19  C   UNL d   1     -55.140-102.222 -38.664  0.00  0.00     0.050 A 
ATOM     20  C   UNL d   1     -55.490-101.669 -37.143  0.00  0.00     0.002 A 
ATOM     21  C   UNL d   1     -55.416-102.492 -37.296  0.00  0.00     0.001 A 
ATOM     22  C   UNL d   1     -55.244-102.757 -38.048  0.00  0.00     0.008 A 
ATOM     23  S   UNL d   1     -54.969-102.327 -39.447  0.00  0.00    -0.047 SA
ENDBRANCH  13  15
ENDBRANCH  11  12
ENDBRANCH  10  11
ENDBRANCH   7  10
BRANCH   3  24
ATOM     24  C   UNL d   1     -55.266 -99.432 -44.114  0.00  0.00     0.062 C 
BRANCH  24  25
ATOM     25  C   UNL d   1     -55.882 -99.283 -43.584  0.00  0.00     0.115 C 
BRANCH  25  26
ATOM     26  N   UNL d   1     -56.650 -99.155 -43.869  0.00  0.00    -0.157 NA
BRANCH  26  27
ATOM     27  S   UNL d   1     -57.290 -99.149 -43.343  0.00  0.00     0.285 S 
ATOM     28  O   UNL d   1     -57.758 -99.534 -43.909  0.00  0.00    -0.198 OA
ATOM     29  O   UNL d   1     -56.823 -98.764 -42.777  0.00  0.00    -0.198 OA
BRANCH  27  30
ATOM     30  C   UNL d   1     -57.917 -99.139 -42.818  0.00  0.00     0.105 A 
ATOM     31  C   UNL d   1     -58.692 -99.085 -43.094  0.00  0.00     0.013 A 
ATOM     32  C   UNL d   1     -59.329 -99.075 -42.560  0.00  0.00     0.001 A 
ATOM     33  C   UNL d   1     -59.187 -99.120 -41.750  0.00  0.00     0.000 A 
ATOM     34  C   UNL d   1     -58.403 -99.175 -41.472  0.00  0.00     0.001 A 
ATOM     35  C   UNL d   1     -59.808 -99.111 -41.220  0.00  0.00     0.000 C 
ATOM     36  C   UNL d   1     -57.772 -99.184 -42.011  0.00  0.00     0.013 A 
ENDBRANCH  27  30
ENDBRANCH  26  27
ENDBRANCH  25  26
ENDBRANCH  24  25
ENDBRANCH   3  24
TORSDOF 9
ENDMDL
