MODEL 1
REMARK VINA RESULT:       0.2      0.000      0.000
REMARK  11 active torsions:
REMARK  status: ('A' for Active; 'I' for Inactive)
REMARK    1  A    between atoms: C_2  and  N_1 
REMARK    2  A    between atoms: C_4  and  C_2 
REMARK    3  A    between atoms: C_5  and  C_2 
REMARK    4  A    between atoms: C_3  and  N_6 
REMARK    5  A    between atoms: N_15  and  C_3 
REMARK    6  A    between atoms: N_6  and  C_4 
REMARK    7  A    between atoms: C_16  and  N_7 
REMARK    8  A    between atoms: C_20  and  N_15 
REMARK    9  A    between atoms: C_19  and  C_16 
REMARK   10  A    between atoms: C_23  and  C_20 
REMARK   11  A    between atoms: C_22  and  C_23 
ROOT
ATOM      1  C   UNL d   1      59.258  -0.590  29.891  0.00  0.00     0.088 C 
ENDROOT
BRANCH   1   2
ATOM      2  N   UNL d   1      59.412  -1.324  29.547  0.00  0.00    -0.300 N 
ATOM      3  C   UNL d   1      59.864  -1.882  29.955  0.00  0.00     0.100 A 
ATOM      4  C   UNL d   1      60.018  -2.615  29.610  0.00  0.00     0.100 A 
ATOM      5  N   UNL d   1      59.724  -2.794  28.863  0.00  0.00    -0.300 N 
ATOM      6  C   UNL d   1      59.274  -2.237  28.458  0.00  0.00     0.100 A 
ATOM      7  C   UNL d   1      59.120  -1.504  28.802  0.00  0.00     0.100 A 
BRANCH   5   8
ATOM      8  C   UNL d   1      59.881  -3.529  28.522  0.00  0.00     0.080 C 
BRANCH   8   9
ATOM      9  C   UNL d   1      59.296  -4.118  28.527  0.00  0.00     0.018 A 
ATOM     10  C   UNL d   1      58.511  -3.914  28.586  0.00  0.00     0.002 A 
ATOM     11  C   UNL d   1      57.926  -4.498  28.592  0.00  0.00     0.000 A 
ATOM     12  C   UNL d   1      58.153  -5.284  28.536  0.00  0.00     0.000 A 
ATOM     13  C   UNL d   1      58.951  -5.499  28.476  0.00  0.00     0.000 A 
ATOM     14  C   UNL d   1      59.522  -4.900  28.472  0.00  0.00     0.002 A 
ENDBRANCH   8   9
ENDBRANCH   5   8
ENDBRANCH   1   2
BRANCH   1  15
ATOM     15  C   UNL d   1      58.487  -0.346  30.027  0.00  0.00     0.100 C 
ATOM     16  C   UNL d   1      58.047  -0.040  29.411  0.00  0.00     0.022 C 
BRANCH  15  17
ATOM     17  N   UNL d   1      58.172  -0.413  30.775  0.00  0.00    -0.216 NA
BRANCH  17  18
ATOM     18  C   UNL d   1      57.606   0.133  31.037  0.00  0.00     0.221 C 
ATOM     19  S   UNL d   1      57.302   0.682  30.503  0.00  0.00    -0.037 SA
BRANCH  18  20
ATOM     20  N   UNL d   1      57.358   0.122  31.813  0.00  0.00    -0.216 NA
BRANCH  20  21
ATOM     21  C   UNL d   1      56.569   0.232  32.004  0.00  0.00     0.102 C 
BRANCH  21  22
ATOM     22  C   UNL d   1      56.174  -0.355  32.437  0.00  0.00     0.021 C 
BRANCH  22  23
ATOM     23  C   UNL d   1      55.894  -0.179  33.181  0.00  0.00     0.002 A 
ATOM     24  C   UNL d   1      56.163   0.501  33.567  0.00  0.00     0.000 A 
ATOM     25  C   UNL d   1      55.881   0.682  34.321  0.00  0.00     0.000 A 
ATOM     26  C   UNL d   1      55.338   0.193  34.687  0.00  0.00     0.000 A 
ATOM     27  C   UNL d   1      55.071  -0.489  34.294  0.00  0.00     0.000 A 
ATOM     28  C   UNL d   1      55.350  -0.666  33.550  0.00  0.00     0.000 A 
ENDBRANCH  22  23
ENDBRANCH  21  22
ENDBRANCH  20  21
ENDBRANCH  18  20
ENDBRANCH  17  18
ENDBRANCH  15  17
ENDBRANCH   1  15
BRANCH   1  29
ATOM     29  C   UNL d   1      59.887  -0.099  30.101  0.00  0.00     0.047 A 
ATOM     30  S   UNL d   1      60.060   0.174  30.862  0.00  0.00    -0.085 SA
ATOM     31  C   UNL d   1      60.730   0.644  30.817  0.00  0.00     0.035 A 
ATOM     32  C   UNL d   1      60.976   0.666  30.029  0.00  0.00     0.007 A 
ATOM     33  C   UNL d   1      60.453   0.205  29.587  0.00  0.00     0.009 A 
ENDBRANCH   1  29
TORSDOF 11
ENDMDL
MODEL 2
REMARK VINA RESULT:       2.3      1.075      5.269
REMARK  11 active torsions:
REMARK  status: ('A' for Active; 'I' for Inactive)
REMARK    1  A    between atoms: C_2  and  N_1 
REMARK    2  A    between atoms: C_4  and  C_2 
REMARK    3  A    between atoms: C_5  and  C_2 
REMARK    4  A    between atoms: C_3  and  N_6 
REMARK    5  A    between atoms: N_15  and  C_3 
REMARK    6  A    between atoms: N_6  and  C_4 
REMARK    7  A    between atoms: C_16  and  N_7 
REMARK    8  A    between atoms: C_20  and  N_15 
REMARK    9  A    between atoms: C_19  and  C_16 
REMARK   10  A    between atoms: C_23  and  C_20 
REMARK   11  A    between atoms: C_22  and  C_23 
ROOT
ATOM      1  C   UNL d   1      59.127   0.487  30.786  0.00  0.00     0.088 C 
ENDROOT
BRANCH   1   2
ATOM      2  N   UNL d   1      58.411   0.494  31.196  0.00  0.00    -0.300 N 
ATOM      3  C   UNL d   1      57.701   0.417  30.781  0.00  0.00     0.100 A 
ATOM      4  C   UNL d   1      56.985   0.424  31.190  0.00  0.00     0.100 A 
ATOM      5  N   UNL d   1      56.974   0.508  32.009  0.00  0.00    -0.300 N 
ATOM      6  C   UNL d   1      57.682   0.585  32.420  0.00  0.00     0.100 A 
ATOM      7  C   UNL d   1      58.398   0.578  32.011  0.00  0.00     0.100 A 
BRANCH   5   8
ATOM      8  C   UNL d   1      56.255   0.515  32.415  0.00  0.00     0.080 C 
BRANCH   8   9
ATOM      9  C   UNL d   1      55.964  -0.187  32.747  0.00  0.00     0.018 A 
ATOM     10  C   UNL d   1      56.126  -0.903  32.398  0.00  0.00     0.002 A 
ATOM     11  C   UNL d   1      55.837  -1.605  32.726  0.00  0.00     0.000 A 
ATOM     12  C   UNL d   1      55.386  -1.564  33.410  0.00  0.00     0.000 A 
ATOM     13  C   UNL d   1      55.217  -0.837  33.772  0.00  0.00     0.000 A 
ATOM     14  C   UNL d   1      55.515  -0.146  33.427  0.00  0.00     0.002 A 
ENDBRANCH   8   9
ENDBRANCH   5   8
ENDBRANCH   1   2
BRANCH   1  15
ATOM     15  C   UNL d   1      59.141   0.408  29.970  0.00  0.00     0.100 C 
ATOM     16  C   UNL d   1      58.512   0.681  29.528  0.00  0.00     0.022 C 
BRANCH  15  17
ATOM     17  N   UNL d   1      59.784   0.057  29.613  0.00  0.00    -0.216 NA
BRANCH  17  18
ATOM     18  C   UNL d   1      59.670  -0.489  29.000  0.00  0.00     0.221 C 
ATOM     19  S   UNL d   1      58.978  -0.453  28.555  0.00  0.00    -0.037 SA
BRANCH  18  20
ATOM     20  N   UNL d   1      60.240  -1.050  28.844  0.00  0.00    -0.216 NA
BRANCH  20  21
ATOM     21  C   UNL d   1      60.048  -1.749  28.459  0.00  0.00     0.102 C 
BRANCH  21  22
ATOM     22  C   UNL d   1      60.486  -2.433  28.626  0.00  0.00     0.021 C 
BRANCH  22  23
ATOM     23  C   UNL d   1      60.104  -3.152  28.656  0.00  0.00     0.002 A 
ATOM     24  C   UNL d   1      59.291  -3.174  28.804  0.00  0.00     0.000 A 
ATOM     25  C   UNL d   1      58.901  -3.901  28.835  0.00  0.00     0.000 A 
ATOM     26  C   UNL d   1      59.315  -4.596  28.720  0.00  0.00     0.000 A 
ATOM     27  C   UNL d   1      60.132  -4.568  28.571  0.00  0.00     0.000 A 
ATOM     28  C   UNL d   1      60.515  -3.849  28.540  0.00  0.00     0.000 A 
ENDBRANCH  22  23
ENDBRANCH  21  22
ENDBRANCH  20  21
ENDBRANCH  18  20
ENDBRANCH  17  18
ENDBRANCH  15  17
ENDBRANCH   1  15
BRANCH   1  29
ATOM     29  C   UNL d   1      59.836   0.561  31.204  0.00  0.00     0.047 A 
ATOM     30  S   UNL d   1      60.594   0.590  30.876  0.00  0.00    -0.085 SA
ATOM     31  C   UNL d   1      61.133   0.664  31.489  0.00  0.00     0.035 A 
ATOM     32  C   UNL d   1      60.713   0.682  32.200  0.00  0.00     0.007 A 
ATOM     33  C   UNL d   1      59.909   0.617  32.021  0.00  0.00     0.009 A 
ENDBRANCH   1  29
TORSDOF 11
ENDMDL
