MODEL 1
REMARK VINA RESULT:      -6.0      0.000      0.000
REMARK  2 active torsions:
REMARK  status: ('A' for Active; 'I' for Inactive)
REMARK    1  A    between atoms: C_2  and  CA_1 
REMARK    2  A    between atoms: C_3  and  CA_1 
ROOT
ATOM      1  C   UNL d   1     -47.764  12.775  22.845  0.00  0.00     0.025 A 
ATOM      2  C   UNL d   1     -46.975  12.908  23.069  0.00  0.00     0.002 A 
ATOM      3  C   UNL d   1     -48.134  12.066  23.050  0.00  0.00     0.002 A 
ATOM      4  C   UNL d   1     -46.604  13.616  22.864  0.00  0.00     0.000 C 
ATOM      5  C   UNL d   1     -46.564  12.334  23.493  0.00  0.00     0.000 A 
ATOM      6  C   UNL d   1     -47.716  11.491  23.478  0.00  0.00     0.000 A 
ATOM      7  C   UNL d   1     -46.935  11.626  23.698  0.00  0.00     0.000 A 
ENDROOT
BRANCH   1   8
ATOM      8  CA  UNL d   1     -48.174  13.351  22.419  0.00  0.00     0.167 C 
ATOM      9  N   UNL d   1     -48.067  14.148  22.592  0.00  0.00    -0.142 N 
BRANCH   8  10
ATOM     10  C   UNL d   1     -48.691  13.125  21.817  0.00  0.00     0.231 C 
ATOM     11  O   UNL d   1     -48.407  12.918  21.073  0.00  0.00    -0.643 OA
ATOM     12  OXT UNL d   1     -49.507  13.104  21.960  0.00  0.00    -0.643 OA
ENDBRANCH   8  10
ENDBRANCH   1   8
TORSDOF 2
ENDMDL
