MODEL 1
REMARK VINA RESULT:      45.5      0.000      0.000
REMARK  6 active torsions:
REMARK  status: ('A' for Active; 'I' for Inactive)
REMARK    1  A    between atoms: C_3  and  C_1 
REMARK    2  A    between atoms: N_9  and  C_3 
REMARK    3  A    between atoms: C_13  and  C_3 
REMARK    4  A    between atoms: N_4  and  C_10 
REMARK    5  A    between atoms: C_19  and  C_8 
REMARK    6  A    between atoms: C_15  and  N_9 
ROOT
ATOM      1  C   UNL d   1      45.197 -15.027  44.402  0.00  0.00     0.125 C 
ENDROOT
BRANCH   1   2
ATOM      2  C   UNL d   1      45.313 -14.255  44.093  0.00  0.00     0.161 A 
ATOM      3  C   UNL d   1      45.926 -13.786  44.358  0.00  0.00     0.258 A 
ATOM      4  C   UNL d   1      46.030 -13.023  44.043  0.00  0.00     0.238 A 
ATOM      5  O   UNL d   1      46.460 -14.062  44.948  0.00  0.00    -0.281 OA
ATOM      6  O   UNL d   1      46.643 -12.555  44.309  0.00  0.00    -0.283 OA
ATOM      7  C   UNL d   1      45.514 -12.741  43.465  0.00  0.00     0.073 A 
ATOM      8  C   UNL d   1      44.901 -13.209  43.200  0.00  0.00     0.146 A 
ATOM      9  O   UNL d   1      44.794 -13.967  43.509  0.00  0.00    -0.299 OA
BRANCH   8  10
ATOM     10  C   UNL d   1      44.382 -12.922  42.616  0.00  0.00     0.259 C 
ATOM     11  O   UNL d   1      44.419 -12.142  42.363  0.00  0.00    -0.281 OA
ENDBRANCH   8  10
ENDBRANCH   1   2
BRANCH   1  12
ATOM     12  N   UNL d   1      45.829 -15.529  44.521  0.00  0.00    -0.242 NA
BRANCH  12  13
ATOM     13  C   UNL d   1      45.960 -16.155  44.022  0.00  0.00     0.083 A 
ATOM     14  C   UNL d   1      46.028 -16.921  44.336  0.00  0.00     0.043 A 
ATOM     15  C   UNL d   1      46.162 -17.567  43.834  0.00  0.00     0.128 A 
ATOM     16  C   UNL d   1      46.228 -17.451  43.029  0.00  0.00     0.024 A 
ATOM     17  C   UNL d   1      46.161 -16.687  42.715  0.00  0.00     0.003 A 
ATOM     18  C   UNL d   1      46.026 -16.038  43.217  0.00  0.00     0.019 A 
BRANCH  15  19
ATOM     19  N   UNL d   1      46.230 -18.332  44.137  0.00  0.00    -0.114 N 
ATOM     20  O   UNL d   1      46.234 -18.513  44.953  0.00  0.00    -0.532 OA
ATOM     21  O   UNL d   1      46.303 -19.007  43.678  0.00  0.00    -0.532 OA
ENDBRANCH  15  19
ENDBRANCH  12  13
ENDBRANCH   1  12
BRANCH   1  22
ATOM     22  C   UNL d   1      44.429 -15.277  44.587  0.00  0.00     0.101 A 
ATOM     23  N   UNL d   1      44.261 -16.088  44.665  0.00  0.00    -0.242 NA
ATOM     24  C   UNL d   1      43.496 -16.335  44.849  0.00  0.00     0.099 A 
ATOM     25  C   UNL d   1      42.902 -15.786  44.955  0.00  0.00     0.021 A 
ATOM     26  C   UNL d   1      43.079 -14.993  44.875  0.00  0.00     0.003 A 
ATOM     27  C   UNL d   1      43.825 -14.738  44.695  0.00  0.00     0.021 A 
ENDBRANCH   1  22
TORSDOF 6
ENDMDL
