MODEL 1
REMARK VINA RESULT:      31.8      0.000      0.000
REMARK  3 active torsions:
REMARK  status: ('A' for Active; 'I' for Inactive)
REMARK       I    between atoms: C_2  and  N_1 
REMARK    1  A    between atoms: C_6  and  C_2 
REMARK    2  A    between atoms: O_14  and  C_9 
REMARK    3  A    between atoms: O_16  and  C_11 
ROOT
ATOM      1  C   UNL d   1     -51.126  25.815  33.395  0.00  0.00     0.060 A 
ATOM      2  C   UNL d   1     -50.682  26.501  33.485  0.00  0.00     0.031 A 
ATOM      3  C   UNL d   1     -49.861  26.469  33.488  0.00  0.00     0.116 A 
ATOM      4  C   UNL d   1     -49.477  25.740  33.399  0.00  0.00     0.116 A 
ATOM      5  C   UNL d   1     -50.742  25.085  33.306  0.00  0.00     0.007 A 
ATOM      6  C   UNL d   1     -49.918  25.049  33.308  0.00  0.00     0.026 A 
ENDROOT
BRANCH   1   7
ATOM      7  C   UNL d   1     -51.947  25.851  33.393  0.00  0.00     0.280 C 
ATOM      8  N   UNL d   1     -52.387  25.157  33.392  0.00  0.00    -0.195 N 
ATOM      9  N   UNL d   1     -53.216  25.105  33.390  0.00  0.00    -0.163 NA
ATOM     10  C   UNL d   1     -52.086  24.392  33.393  0.00  0.00     0.088 A 
ATOM     11  C   UNL d   1     -53.423  24.305  33.390  0.00  0.00     0.103 A 
ATOM     12  C   UNL d   1     -54.193  24.002  33.388  0.00  0.00     0.022 C 
ATOM     13  C   UNL d   1     -52.729  23.863  33.392  0.00  0.00     0.040 A 
ATOM     14  C   UNL d   1     -51.285  24.182  33.396  0.00  0.00     0.021 C 
ATOM     15  O   UNL d   1     -52.328  26.583  33.391  0.00  0.00    -0.265 OA
ENDBRANCH   1   7
BRANCH   3  16
ATOM     16  O   UNL d   1     -49.421  27.158  33.579  0.00  0.00    -0.326 OA
ATOM     17  C   UNL d   1     -49.793  27.893  33.543  0.00  0.00     0.181 C 
ENDBRANCH   3  16
BRANCH   4  18
ATOM     18  O   UNL d   1     -48.657  25.706  33.401  0.00  0.00    -0.326 OA
ATOM     19  C   UNL d   1     -48.268  25.034  33.678  0.00  0.00     0.181 C 
ENDBRANCH   4  18
TORSDOF 3
ENDMDL
