MODEL 1
REMARK VINA RESULT:      13.0      0.000      0.000
REMARK  3 active torsions:
REMARK  status: ('A' for Active; 'I' for Inactive)
REMARK    1  A    between atoms: C_10  and  C_3 
REMARK    2  A    between atoms: C_13  and  C_7 
REMARK    3  A    between atoms: C_12  and  C_13 
ROOT
ATOM      1  C   UNL d   1      44.777 -13.220  43.632  0.00  0.00     0.171 A 
ATOM      2  N   UNL d   1      45.576 -13.291  43.822  0.00  0.00    -0.212 N 
ATOM      3  C   UNL d   1      44.681 -12.525  43.190  0.00  0.00     0.121 A 
ATOM      4  N   UNL d   1      44.241 -13.790  43.881  0.00  0.00    -0.227 NA
ATOM      5  N   UNL d   1      45.979 -12.639  43.498  0.00  0.00    -0.162 NA
ATOM      6  C   UNL d   1      45.842 -13.931  44.262  0.00  0.00     0.086 A 
ATOM      7  C   UNL d   1      45.305 -14.504  44.513  0.00  0.00     0.035 A 
ATOM      8  C   UNL d   1      44.506 -14.433  44.323  0.00  0.00     0.085 A 
ATOM      9  C   UNL d   1      45.420 -12.166  43.107  0.00  0.00     0.130 A 
ATOM     10  C   UNL d   1      46.643 -14.001  44.452  0.00  0.00     0.021 C 
ATOM     11  C   UNL d   1      43.969 -15.009  44.575  0.00  0.00     0.021 C 
ENDROOT
BRANCH   3  12
ATOM     12  C   UNL d   1      43.969 -12.242  42.886  0.00  0.00     0.215 C 
ATOM     13  O   UNL d   1      43.896 -12.081  42.076  0.00  0.00    -0.644 OA
ATOM     14  O   UNL d   1      43.320 -12.117  43.385  0.00  0.00    -0.644 OA
ENDBRANCH   3  12
BRANCH   7  15
ATOM     15  C   UNL d   1      45.570 -15.147  44.954  0.00  0.00     0.003 C 
BRANCH  15  16
ATOM     16  C   UNL d   1      45.331 -15.909  44.751  0.00  0.00     0.000 C 
ATOM     17  C   UNL d   1      45.865 -16.537  44.810  0.00  0.00     0.000 C 
ENDBRANCH  15  16
ENDBRANCH   7  15
TORSDOF 3
ENDMDL
MODEL 2
REMARK VINA RESULT:      13.1      6.931      7.623
REMARK  3 active torsions:
REMARK  status: ('A' for Active; 'I' for Inactive)
REMARK    1  A    between atoms: C_10  and  C_3 
REMARK    2  A    between atoms: C_13  and  C_7 
REMARK    3  A    between atoms: C_12  and  C_13 
ROOT
ATOM      1  C   UNL d   1      45.018 -15.068  37.000  0.00  0.00     0.171 A 
ATOM      2  N   UNL d   1      44.837 -15.800  36.667  0.00  0.00    -0.212 N 
ATOM      3  C   UNL d   1      45.835 -14.947  36.919  0.00  0.00     0.121 A 
ATOM      4  N   UNL d   1      44.426 -14.607  37.332  0.00  0.00    -0.227 NA
ATOM      5  N   UNL d   1      45.542 -16.136  36.377  0.00  0.00    -0.162 NA
ATOM      6  C   UNL d   1      44.064 -16.074  36.664  0.00  0.00     0.086 A 
ATOM      7  C   UNL d   1      43.467 -15.612  36.997  0.00  0.00     0.035 A 
ATOM      8  C   UNL d   1      43.648 -14.881  37.330  0.00  0.00     0.085 A 
ATOM      9  C   UNL d   1      46.158 -15.603  36.536  0.00  0.00     0.130 A 
ATOM     10  C   UNL d   1      43.883 -16.808  36.330  0.00  0.00     0.021 C 
ATOM     11  C   UNL d   1      43.049 -14.419  37.664  0.00  0.00     0.021 C 
ENDROOT
BRANCH   3  12
ATOM     12  C   UNL d   1      46.251 -14.283  37.177  0.00  0.00     0.215 C 
ATOM     13  O   UNL d   1      46.410 -13.662  36.653  0.00  0.00    -0.644 OA
ATOM     14  O   UNL d   1      46.513 -14.232  37.961  0.00  0.00    -0.644 OA
ENDBRANCH   3  12
BRANCH   7  15
ATOM     15  C   UNL d   1      42.689 -15.886  36.996  0.00  0.00     0.003 C 
BRANCH  15  16
ATOM     16  C   UNL d   1      42.191 -15.696  36.367  0.00  0.00     0.000 C 
ATOM     17  C   UNL d   1      41.373 -15.678  36.484  0.00  0.00     0.000 C 
ENDBRANCH  15  16
ENDBRANCH   7  15
TORSDOF 3
ENDMDL
MODEL 3
REMARK VINA RESULT:      13.3      4.976      6.226
REMARK  3 active torsions:
REMARK  status: ('A' for Active; 'I' for Inactive)
REMARK    1  A    between atoms: C_10  and  C_3 
REMARK    2  A    between atoms: C_13  and  C_7 
REMARK    3  A    between atoms: C_12  and  C_13 
ROOT
ATOM      1  C   UNL d   1      46.200 -19.138  43.502  0.00  0.00     0.171 A 
ATOM      2  N   UNL d   1      46.219 -18.337  43.309  0.00  0.00    -0.212 N 
ATOM      3  C   UNL d   1      46.039 -19.200  44.314  0.00  0.00     0.121 A 
ATOM      4  N   UNL d   1      46.329 -19.706  42.924  0.00  0.00    -0.227 NA
ATOM      5  N   UNL d   1      46.070 -17.898  44.000  0.00  0.00    -0.162 NA
ATOM      6  C   UNL d   1      46.367 -18.101  42.537  0.00  0.00     0.086 A 
ATOM      7  C   UNL d   1      46.497 -18.670  41.955  0.00  0.00     0.035 A 
ATOM      8  C   UNL d   1      46.478 -19.471  42.148  0.00  0.00     0.085 A 
ATOM      9  C   UNL d   1      45.959 -18.438  44.622  0.00  0.00     0.130 A 
ATOM     10  C   UNL d   1      46.387 -17.298  42.343  0.00  0.00     0.021 C 
ATOM     11  C   UNL d   1      46.609 -20.041  41.563  0.00  0.00     0.021 C 
ENDROOT
BRANCH   3  12
ATOM     12  C   UNL d   1      45.971 -19.903  44.739  0.00  0.00     0.215 C 
ATOM     13  O   UNL d   1      45.223 -20.189  44.953  0.00  0.00    -0.644 OA
ATOM     14  O   UNL d   1      46.647 -20.330  44.954  0.00  0.00    -0.644 OA
ENDBRANCH   3  12
BRANCH   7  15
ATOM     15  C   UNL d   1      46.647 -18.435  41.179  0.00  0.00     0.003 C 
BRANCH  15  16
ATOM     16  C   UNL d   1      46.040 -18.456  40.621  0.00  0.00     0.000 C 
ATOM     17  C   UNL d   1      46.209 -18.315  39.825  0.00  0.00     0.000 C 
ENDBRANCH  15  16
ENDBRANCH   7  15
TORSDOF 3
ENDMDL
MODEL 4
REMARK VINA RESULT:      14.7      4.528      5.938
REMARK  3 active torsions:
REMARK  status: ('A' for Active; 'I' for Inactive)
REMARK    1  A    between atoms: C_10  and  C_3 
REMARK    2  A    between atoms: C_13  and  C_7 
REMARK    3  A    between atoms: C_12  and  C_13 
ROOT
ATOM      1  C   UNL d   1      46.534 -19.052  42.402  0.00  0.00     0.171 A 
ATOM      2  N   UNL d   1      46.532 -19.541  43.066  0.00  0.00    -0.212 N 
ATOM      3  C   UNL d   1      46.605 -19.535  41.731  0.00  0.00     0.121 A 
ATOM      4  N   UNL d   1      46.473 -18.238  42.488  0.00  0.00    -0.227 NA
ATOM      5  N   UNL d   1      46.602 -20.330  42.809  0.00  0.00    -0.162 NA
ATOM      6  C   UNL d   1      46.469 -19.218  43.818  0.00  0.00     0.086 A 
ATOM      7  C   UNL d   1      46.406 -18.401  43.906  0.00  0.00     0.035 A 
ATOM      8  C   UNL d   1      46.408 -17.912  43.242  0.00  0.00     0.085 A 
ATOM      9  C   UNL d   1      46.647 -20.321  41.980  0.00  0.00     0.130 A 
ATOM     10  C   UNL d   1      46.467 -19.708  44.483  0.00  0.00     0.021 C 
ATOM     11  C   UNL d   1      46.346 -17.092  43.332  0.00  0.00     0.021 C 
ENDROOT
BRANCH   3  12
ATOM     12  C   UNL d   1      46.629 -19.273  40.950  0.00  0.00     0.215 C 
ATOM     13  O   UNL d   1      46.646 -18.461  40.784  0.00  0.00    -0.644 OA
ATOM     14  O   UNL d   1      46.637 -19.816  40.325  0.00  0.00    -0.644 OA
ENDBRANCH   3  12
BRANCH   7  15
ATOM     15  C   UNL d   1      46.342 -18.074  44.660  0.00  0.00     0.003 C 
BRANCH  15  16
ATOM     16  C   UNL d   1      45.620 -17.766  44.912  0.00  0.00     0.000 C 
ATOM     17  C   UNL d   1      45.515 -16.948  44.954  0.00  0.00     0.000 C 
ENDBRANCH  15  16
ENDBRANCH   7  15
TORSDOF 3
ENDMDL
MODEL 5
REMARK VINA RESULT:      15.9      3.821      5.209
REMARK  3 active torsions:
REMARK  status: ('A' for Active; 'I' for Inactive)
REMARK    1  A    between atoms: C_10  and  C_3 
REMARK    2  A    between atoms: C_13  and  C_7 
REMARK    3  A    between atoms: C_12  and  C_13 
ROOT
ATOM      1  C   UNL d   1      46.132 -17.846  43.673  0.00  0.00     0.171 A 
ATOM      2  N   UNL d   1      46.172 -18.541  44.113  0.00  0.00    -0.212 N 
ATOM      3  C   UNL d   1      45.954 -17.225  44.195  0.00  0.00     0.121 A 
ATOM      4  N   UNL d   1      46.261 -17.860  42.862  0.00  0.00    -0.227 NA
ATOM      5  N   UNL d   1      46.018 -18.356  44.909  0.00  0.00    -0.162 NA
ATOM      6  C   UNL d   1      46.340 -19.255  43.744  0.00  0.00     0.086 A 
ATOM      7  C   UNL d   1      46.470 -19.272  42.930  0.00  0.00     0.035 A 
ATOM      8  C   UNL d   1      46.431 -18.576  42.490  0.00  0.00     0.085 A 
ATOM      9  C   UNL d   1      45.884 -17.537  44.955  0.00  0.00     0.130 A 
ATOM     10  C   UNL d   1      46.380 -19.953  44.184  0.00  0.00     0.021 C 
ATOM     11  C   UNL d   1      46.561 -18.595  41.673  0.00  0.00     0.021 C 
ENDROOT
BRANCH   3  12
ATOM     12  C   UNL d   1      45.864 -16.432  43.986  0.00  0.00     0.215 C 
ATOM     13  O   UNL d   1      46.526 -15.936  43.940  0.00  0.00    -0.644 OA
ATOM     14  O   UNL d   1      45.113 -16.126  43.821  0.00  0.00    -0.644 OA
ENDBRANCH   3  12
BRANCH   7  15
ATOM     15  C   UNL d   1      46.640 -19.988  42.557  0.00  0.00     0.003 C 
BRANCH  15  16
ATOM     16  C   UNL d   1      46.228 -20.202  41.876  0.00  0.00     0.000 C 
ATOM     17  C   UNL d   1      46.639 -20.325  41.170  0.00  0.00     0.000 C 
ENDBRANCH  15  16
ENDBRANCH   7  15
TORSDOF 3
ENDMDL
