MODEL 1
REMARK VINA RESULT:      59.1      0.000      0.000
REMARK  6 active torsions:
REMARK  status: ('A' for Active; 'I' for Inactive)
REMARK    1  A    between atoms: C_7  and  C_1 
REMARK    2  A    between atoms: C_6  and  C_2 
REMARK       I    between atoms: N_9  and  C_6 
REMARK    3  A    between atoms: O_16  and  C_7 
REMARK       I    between atoms: C_8  and  N_10 
REMARK    4  A    between atoms: C_14  and  C_8 
REMARK    5  A    between atoms: N_10  and  N_9 
REMARK    6  A    between atoms: C_20  and  O_16 
ROOT
ATOM      1  C   UNL d   1      60.657  48.555  50.851  0.00  0.00     0.083 A 
ATOM      2  C   UNL d   1      59.674  49.092  51.566  0.00  0.00     0.141 A 
ATOM      3  C   UNL d   1      59.851  48.505  51.015  0.00  0.00     0.029 A 
ATOM      4  N   UNL d   1      60.358  49.498  51.741  0.00  0.00    -0.240 NA
ATOM      5  C   UNL d   1      60.978  49.172  51.301  0.00  0.00     0.087 A 
ATOM      6  C   UNL d   1      59.322  47.963  50.683  0.00  0.00     0.002 C 
ATOM      7  C   UNL d   1      61.756  49.414  51.310  0.00  0.00     0.021 C 
ENDROOT
BRANCH   2   8
ATOM      8  C   UNL d   1      58.921  49.239  51.886  0.00  0.00     0.314 C 
ATOM      9  N   UNL d   1      58.291  49.415  51.391  0.00  0.00    -0.101 NA
ATOM     10  O   UNL d   1      58.808  49.207  52.702  0.00  0.00    -0.262 OA
BRANCH   9  11
ATOM     11  N   UNL d   1      57.542  49.562  51.705  0.00  0.00    -0.102 NA
ATOM     12  C   UNL d   1      56.873  49.532  51.226  0.00  0.00     0.297 C 
ATOM     13  O   UNL d   1      56.128  49.681  51.552  0.00  0.00    -0.264 OA
BRANCH  12  14
ATOM     14  C   UNL d   1      56.955  49.355  50.429  0.00  0.00     0.059 A 
ATOM     15  C   UNL d   1      56.351  48.937  50.047  0.00  0.00     0.005 A 
ATOM     16  C   UNL d   1      56.429  48.755  49.239  0.00  0.00     0.000 A 
ATOM     17  C   UNL d   1      57.106  48.994  48.834  0.00  0.00     0.000 A 
ATOM     18  C   UNL d   1      57.701  49.408  49.218  0.00  0.00     0.000 A 
ATOM     19  C   UNL d   1      57.625  49.589  50.021  0.00  0.00     0.005 A 
ENDBRANCH  12  14
ENDBRANCH   9  11
ENDBRANCH   2   8
BRANCH   1  20
ATOM     20  C   UNL d   1      61.078  48.072  50.326  0.00  0.00     0.302 C 
ATOM     21  O   UNL d   1      61.556  48.414  49.747  0.00  0.00    -0.259 OA
BRANCH  20  22
ATOM     22  O   UNL d   1      61.019  47.248  50.382  0.00  0.00    -0.271 OA
BRANCH  22  23
ATOM     23  C   UNL d   1      61.693  46.792  50.353  0.00  0.00     0.126 C 
ATOM     24  C   UNL d   1      61.737  46.146  49.842  0.00  0.00     0.029 C 
ENDBRANCH  22  23
ENDBRANCH  20  22
ENDBRANCH   1  20
TORSDOF 6
ENDMDL
MODEL 2
REMARK VINA RESULT:      59.2      1.245      4.349
REMARK  6 active torsions:
REMARK  status: ('A' for Active; 'I' for Inactive)
REMARK    1  A    between atoms: C_7  and  C_1 
REMARK    2  A    between atoms: C_6  and  C_2 
REMARK       I    between atoms: N_9  and  C_6 
REMARK    3  A    between atoms: O_16  and  C_7 
REMARK       I    between atoms: C_8  and  N_10 
REMARK    4  A    between atoms: C_14  and  C_8 
REMARK    5  A    between atoms: N_10  and  N_9 
REMARK    6  A    between atoms: C_20  and  O_16 
ROOT
ATOM      1  C   UNL d   1      58.714  49.521  50.961  0.00  0.00     0.083 A 
ATOM      2  C   UNL d   1      60.005  49.270  50.772  0.00  0.00     0.141 A 
ATOM      3  C   UNL d   1      59.280  49.347  50.388  0.00  0.00     0.029 A 
ATOM      4  N   UNL d   1      59.891  49.392  51.569  0.00  0.00    -0.240 NA
ATOM      5  C   UNL d   1      59.089  49.550  51.699  0.00  0.00     0.087 A 
ATOM      6  C   UNL d   1      59.139  49.268  49.577  0.00  0.00     0.002 C 
ATOM      7  C   UNL d   1      58.738  49.704  52.418  0.00  0.00     0.021 C 
ENDROOT
BRANCH   2   8
ATOM      8  C   UNL d   1      60.728  49.095  50.401  0.00  0.00     0.314 C 
ATOM      9  N   UNL d   1      60.993  48.319  50.362  0.00  0.00    -0.101 NA
ATOM     10  O   UNL d   1      61.179  49.702  50.073  0.00  0.00    -0.262 OA
BRANCH   9  11
ATOM     11  N   UNL d   1      61.711  48.142  49.995  0.00  0.00    -0.102 NA
ATOM     12  C   UNL d   1      61.986  47.366  49.966  0.00  0.00     0.297 C 
ATOM     13  O   UNL d   1      62.707  47.201  49.595  0.00  0.00    -0.264 OA
BRANCH  12  14
ATOM     14  C   UNL d   1      61.541  46.766  50.305  0.00  0.00     0.059 A 
ATOM     15  C   UNL d   1      61.365  46.806  51.113  0.00  0.00     0.005 A 
ATOM     16  C   UNL d   1      60.914  46.200  51.462  0.00  0.00     0.000 A 
ATOM     17  C   UNL d   1      60.651  45.572  50.996  0.00  0.00     0.000 A 
ATOM     18  C   UNL d   1      60.829  45.538  50.197  0.00  0.00     0.000 A 
ATOM     19  C   UNL d   1      61.277  46.140  49.849  0.00  0.00     0.005 A 
ENDBRANCH  12  14
ENDBRANCH   9  11
ENDBRANCH   2   8
BRANCH   1  20
ATOM     20  C   UNL d   1      57.906  49.645  50.827  0.00  0.00     0.302 C 
ATOM     21  O   UNL d   1      57.388  49.707  51.466  0.00  0.00    -0.259 OA
BRANCH  20  22
ATOM     22  O   UNL d   1      57.619  49.707  50.052  0.00  0.00    -0.271 OA
BRANCH  22  23
ATOM     23  C   UNL d   1      56.933  49.322  49.844  0.00  0.00     0.126 C 
ATOM     24  C   UNL d   1      56.222  49.504  50.222  0.00  0.00     0.029 C 
ENDBRANCH  22  23
ENDBRANCH  20  22
ENDBRANCH   1  20
TORSDOF 6
ENDMDL
