MODEL 1
REMARK VINA RESULT:      33.9      0.000      0.000
REMARK  5 active torsions:
REMARK  status: ('A' for Active; 'I' for Inactive)
REMARK    1  A    between atoms: N_2  and  S_1 
REMARK    2  A    between atoms: C_3  and  S_1 
REMARK    3  A    between atoms: C_13  and  N_2 
REMARK       I    between atoms: C_6  and  N_7 
REMARK    4  A    between atoms: N_7  and  C_14 
REMARK    5  A    between atoms: C_12  and  C_13 
ROOT
ATOM      1  S   UNL d   1     -54.723-101.279 -42.024  0.00  0.00     0.285 S 
ATOM      2  O   UNL d   1     -54.732-102.016 -42.403  0.00  0.00    -0.198 OA
ATOM      3  O   UNL d   1     -54.713-100.540 -41.620  0.00  0.00    -0.198 OA
ENDROOT
BRANCH   1   4
ATOM      4  N   UNL d   1     -54.713-100.896 -42.748  0.00  0.00    -0.157 NA
BRANCH   4   5
ATOM      5  C   UNL d   1     -55.009-101.288 -43.425  0.00  0.00     0.114 C 
BRANCH   5   6
ATOM      6  C   UNL d   1     -54.986-100.898 -44.140  0.00  0.00     0.039 A 
ATOM      7  C   UNL d   1     -54.933-101.308 -44.849  0.00  0.00     0.101 A 
ATOM      8  N   UNL d   1     -54.912-100.877 -45.564  0.00  0.00    -0.242 NA
ATOM      9  C   UNL d   1     -54.943-100.045 -45.571  0.00  0.00     0.099 A 
ATOM     10  C   UNL d   1     -54.996 -99.639 -44.843  0.00  0.00     0.021 A 
ATOM     11  C   UNL d   1     -55.017-100.055 -44.145  0.00  0.00     0.005 A 
ENDBRANCH   5   6
ENDBRANCH   4   5
ENDBRANCH   1   4
BRANCH   1  12
ATOM     12  C   UNL d   1     -54.733-101.677 -41.270  0.00  0.00     0.105 A 
ATOM     13  C   UNL d   1     -54.724-101.237 -40.566  0.00  0.00     0.015 A 
ATOM     14  C   UNL d   1     -54.734-101.615 -39.841  0.00  0.00     0.020 A 
ATOM     15  C   UNL d   1     -54.752-102.454 -39.824  0.00  0.00     0.085 A 
ATOM     16  C   UNL d   1     -54.760-102.880 -40.519  0.00  0.00     0.020 A 
ATOM     17  C   UNL d   1     -54.750-102.487 -41.251  0.00  0.00     0.015 A 
BRANCH  15  18
ATOM     18  N   UNL d   1     -54.762-102.856 -39.084  0.00  0.00    -0.208 NA
ATOM     19  C   UNL d   1     -54.788-102.404 -38.368  0.00  0.00     0.279 C 
ATOM     20  O   UNL d   1     -54.804-101.569 -38.402  0.00  0.00    -0.265 OA
ATOM     21  C   UNL d   1     -54.798-102.783 -37.655  0.00  0.00     0.068 C 
ENDBRANCH  15  18
ENDBRANCH   1  12
TORSDOF 5
ENDMDL
MODEL 2
REMARK VINA RESULT:      35.1      1.690      5.688
REMARK  5 active torsions:
REMARK  status: ('A' for Active; 'I' for Inactive)
REMARK    1  A    between atoms: N_2  and  S_1 
REMARK    2  A    between atoms: C_3  and  S_1 
REMARK    3  A    between atoms: C_13  and  N_2 
REMARK       I    between atoms: C_6  and  N_7 
REMARK    4  A    between atoms: N_7  and  C_14 
REMARK    5  A    between atoms: C_12  and  C_13 
ROOT
ATOM      1  S   UNL d   1     -55.503-102.638 -39.001  0.00  0.00     0.285 S 
ATOM      2  O   UNL d   1     -56.277-102.791 -39.255  0.00  0.00    -0.198 OA
ATOM      3  O   UNL d   1     -54.712-102.476 -38.763  0.00  0.00    -0.198 OA
ENDROOT
BRANCH   1   4
ATOM      4  N   UNL d   1     -55.694-102.879 -38.242  0.00  0.00    -0.157 NA
BRANCH   4   5
ATOM      5  C   UNL d   1     -56.076-102.345 -37.724  0.00  0.00     0.114 C 
BRANCH   5   6
ATOM      6  C   UNL d   1     -55.817-102.300 -36.953  0.00  0.00     0.039 A 
ATOM      7  C   UNL d   1     -56.125-102.789 -36.370  0.00  0.00     0.101 A 
ATOM      8  N   UNL d   1     -55.837-102.717 -35.589  0.00  0.00    -0.242 NA
ATOM      9  C   UNL d   1     -55.247-102.163 -35.393  0.00  0.00     0.099 A 
ATOM     10  C   UNL d   1     -54.941-101.672 -35.995  0.00  0.00     0.021 A 
ATOM     11  C   UNL d   1     -55.219-101.738 -36.756  0.00  0.00     0.005 A 
ENDBRANCH   5   6
ENDBRANCH   4   5
ENDBRANCH   1   4
BRANCH   1  12
ATOM     12  C   UNL d   1     -55.304-102.387 -39.791  0.00  0.00     0.105 A 
ATOM     13  C   UNL d   1     -55.495-102.865 -40.442  0.00  0.00     0.015 A 
ATOM     14  C   UNL d   1     -55.305-102.627 -41.201  0.00  0.00     0.020 A 
ATOM     15  C   UNL d   1     -54.915-101.892 -41.307  0.00  0.00     0.085 A 
ATOM     16  C   UNL d   1     -54.730-101.427 -40.665  0.00  0.00     0.020 A 
ATOM     17  C   UNL d   1     -54.926-101.677 -39.897  0.00  0.00     0.015 A 
BRANCH  15  18
ATOM     18  N   UNL d   1     -54.714-101.636 -42.084  0.00  0.00    -0.208 NA
ATOM     19  C   UNL d   1     -55.136-101.952 -42.747  0.00  0.00     0.279 C 
ATOM     20  O   UNL d   1     -55.744-102.513 -42.625  0.00  0.00    -0.265 OA
ATOM     21  C   UNL d   1     -54.949-101.711 -43.494  0.00  0.00     0.068 C 
ENDBRANCH  15  18
ENDBRANCH   1  12
TORSDOF 5
ENDMDL
