MODEL 1
REMARK VINA RESULT:     -10.2      0.000      0.000
REMARK  2 active torsions:
REMARK  status: ('A' for Active; 'I' for Inactive)
REMARK    1  A    between atoms: N_2  and  S_1 
REMARK    2  A    between atoms: C_8  and  S_1 
ROOT
ATOM      1  N   UNL d   1      53.321  32.005  53.506  0.00  0.00    -0.231 N 
ATOM      2  C   UNL d   1      52.769  32.265  52.962  0.00  0.00     0.092 A 
ATOM      3  C   UNL d   1      53.285  31.180  53.525  0.00  0.00     0.075 A 
ATOM      4  C   UNL d   1      52.388  31.609  52.641  0.00  0.00     0.021 A 
ATOM      5  C   UNL d   1      52.706  30.935  52.988  0.00  0.00     0.018 A 
ATOM      6  C   UNL d   1      53.705  30.625  53.961  0.00  0.00     0.018 A 
ATOM      7  C   UNL d   1      52.549  30.134  52.890  0.00  0.00     0.002 A 
ATOM      8  C   UNL d   1      53.548  29.819  53.865  0.00  0.00     0.002 A 
ATOM      9  C   UNL d   1      52.969  29.573  53.328  0.00  0.00     0.000 A 
ENDROOT
BRANCH   1  10
ATOM     10  S   UNL d   1      53.825  32.479  53.955  0.00  0.00     0.271 S 
ATOM     11  O   UNL d   1      54.399  32.427  53.360  0.00  0.00    -0.200 OA
ATOM     12  O   UNL d   1      53.250  32.529  54.546  0.00  0.00    -0.200 OA
BRANCH  10  13
ATOM     13  C   UNL d   1      54.327  32.956  54.408  0.00  0.00     0.104 A 
ATOM     14  C   UNL d   1      54.169  33.088  55.203  0.00  0.00     0.013 A 
ATOM     15  C   UNL d   1      54.665  33.558  55.649  0.00  0.00     0.001 A 
ATOM     16  C   UNL d   1      55.332  33.905  55.302  0.00  0.00     0.000 A 
ATOM     17  C   UNL d   1      55.496  33.776  54.509  0.00  0.00     0.001 A 
ATOM     18  C   UNL d   1      54.993  33.300  54.057  0.00  0.00     0.013 A 
ENDBRANCH  10  13
ENDBRANCH   1  10
TORSDOF 2
ENDMDL
MODEL 2
REMARK VINA RESULT:      -9.8      1.837      3.655
REMARK  2 active torsions:
REMARK  status: ('A' for Active; 'I' for Inactive)
REMARK    1  A    between atoms: N_2  and  S_1 
REMARK    2  A    between atoms: C_8  and  S_1 
ROOT
ATOM      1  N   UNL d   1      53.025  32.978  53.506  0.00  0.00    -0.231 N 
ATOM      2  C   UNL d   1      53.349  32.263  53.276  0.00  0.00     0.092 A 
ATOM      3  C   UNL d   1      53.509  33.295  54.094  0.00  0.00     0.075 A 
ATOM      4  C   UNL d   1      54.033  32.132  53.717  0.00  0.00     0.021 A 
ATOM      5  C   UNL d   1      54.135  32.770  54.224  0.00  0.00     0.018 A 
ATOM      6  C   UNL d   1      53.461  33.993  54.525  0.00  0.00     0.018 A 
ATOM      7  C   UNL d   1      54.708  32.945  54.786  0.00  0.00     0.002 A 
ATOM      8  C   UNL d   1      54.037  34.172  55.090  0.00  0.00     0.002 A 
ATOM      9  C   UNL d   1      54.662  33.646  55.221  0.00  0.00     0.000 A 
ENDROOT
BRANCH   1  10
ATOM     10  S   UNL d   1      52.338  33.321  53.205  0.00  0.00     0.271 S 
ATOM     11  O   UNL d   1      51.884  32.851  53.715  0.00  0.00    -0.200 OA
ATOM     12  O   UNL d   1      52.793  33.788  52.698  0.00  0.00    -0.200 OA
BRANCH  10  13
ATOM     13  C   UNL d   1      51.650  33.668  52.901  0.00  0.00     0.104 A 
ATOM     14  C   UNL d   1      51.663  34.049  52.175  0.00  0.00     0.013 A 
ATOM     15  C   UNL d   1      50.984  34.390  51.875  0.00  0.00     0.001 A 
ATOM     16  C   UNL d   1      50.278  34.353  52.306  0.00  0.00     0.000 A 
ATOM     17  C   UNL d   1      50.258  33.974  53.032  0.00  0.00     0.001 A 
ATOM     18  C   UNL d   1      50.946  33.629  53.334  0.00  0.00     0.013 A 
ENDBRANCH  10  13
ENDBRANCH   1  10
TORSDOF 2
ENDMDL
MODEL 3
REMARK VINA RESULT:      -9.8      1.735      2.965
REMARK  2 active torsions:
REMARK  status: ('A' for Active; 'I' for Inactive)
REMARK    1  A    between atoms: N_2  and  S_1 
REMARK    2  A    between atoms: C_8  and  S_1 
ROOT
ATOM      1  N   UNL d   1      52.972  32.589  53.343  0.00  0.00    -0.231 N 
ATOM      2  C   UNL d   1      53.670  32.865  53.667  0.00  0.00     0.092 A 
ATOM      3  C   UNL d   1      53.025  31.766  53.298  0.00  0.00     0.075 A 
ATOM      4  C   UNL d   1      54.159  32.221  53.824  0.00  0.00     0.021 A 
ATOM      5  C   UNL d   1      53.762  31.538  53.596  0.00  0.00     0.018 A 
ATOM      6  C   UNL d   1      52.498  31.199  53.024  0.00  0.00     0.018 A 
ATOM      7  C   UNL d   1      53.968  30.744  53.619  0.00  0.00     0.002 A 
ATOM      8  C   UNL d   1      52.704  30.398  53.045  0.00  0.00     0.002 A 
ATOM      9  C   UNL d   1      53.441  30.170  53.344  0.00  0.00     0.000 A 
ENDROOT
BRANCH   1  10
ATOM     10  S   UNL d   1      52.329  33.048  53.105  0.00  0.00     0.271 S 
ATOM     11  O   UNL d   1      52.568  32.964  52.315  0.00  0.00    -0.200 OA
ATOM     12  O   UNL d   1      52.095  33.128  53.892  0.00  0.00    -0.200 OA
BRANCH  10  13
ATOM     13  C   UNL d   1      51.683  33.509  52.868  0.00  0.00     0.104 A 
ATOM     14  C   UNL d   1      51.706  33.922  52.160  0.00  0.00     0.013 A 
ATOM     15  C   UNL d   1      51.069  34.377  51.927  0.00  0.00     0.001 A 
ATOM     16  C   UNL d   1      50.395  34.422  52.407  0.00  0.00     0.000 A 
ATOM     17  C   UNL d   1      50.367  34.011  53.115  0.00  0.00     0.001 A 
ATOM     18  C   UNL d   1      51.012  33.552  53.350  0.00  0.00     0.013 A 
ENDBRANCH  10  13
ENDBRANCH   1  10
TORSDOF 2
ENDMDL
MODEL 4
REMARK VINA RESULT:      -9.5      1.545      3.447
REMARK  2 active torsions:
REMARK  status: ('A' for Active; 'I' for Inactive)
REMARK    1  A    between atoms: N_2  and  S_1 
REMARK    2  A    between atoms: C_8  and  S_1 
ROOT
ATOM      1  N   UNL d   1      52.638  33.256  53.149  0.00  0.00    -0.231 N 
ATOM      2  C   UNL d   1      52.231  33.628  52.545  0.00  0.00     0.092 A 
ATOM      3  C   UNL d   1      52.845  33.832  53.702  0.00  0.00     0.075 A 
ATOM      4  C   UNL d   1      52.182  34.432  52.717  0.00  0.00     0.021 A 
ATOM      5  C   UNL d   1      52.562  34.562  53.434  0.00  0.00     0.018 A 
ATOM      6  C   UNL d   1      53.253  33.785  54.414  0.00  0.00     0.018 A 
ATOM      7  C   UNL d   1      52.689  35.240  53.879  0.00  0.00     0.002 A 
ATOM      8  C   UNL d   1      53.383  34.467  54.863  0.00  0.00     0.002 A 
ATOM      9  C   UNL d   1      53.100  35.197  54.595  0.00  0.00     0.000 A 
ENDROOT
BRANCH   1  10
ATOM     10  S   UNL d   1      52.811  32.451  53.198  0.00  0.00     0.271 S 
ATOM     11  O   UNL d   1      53.558  32.596  52.870  0.00  0.00    -0.200 OA
ATOM     12  O   UNL d   1      52.065  32.311  53.524  0.00  0.00    -0.200 OA
BRANCH  10  13
ATOM     13  C   UNL d   1      52.982  31.643  53.248  0.00  0.00     0.104 A 
ATOM     14  C   UNL d   1      53.671  31.386  53.611  0.00  0.00     0.013 A 
ATOM     15  C   UNL d   1      53.840  30.589  53.660  0.00  0.00     0.001 A 
ATOM     16  C   UNL d   1      53.313  30.034  53.343  0.00  0.00     0.000 A 
ATOM     17  C   UNL d   1      52.622  30.284  52.979  0.00  0.00     0.001 A 
ATOM     18  C   UNL d   1      52.453  31.091  52.930  0.00  0.00     0.013 A 
ENDBRANCH  10  13
ENDBRANCH   1  10
TORSDOF 2
ENDMDL
MODEL 5
REMARK VINA RESULT:      -8.8      1.338      2.459
REMARK  2 active torsions:
REMARK  status: ('A' for Active; 'I' for Inactive)
REMARK    1  A    between atoms: N_2  and  S_1 
REMARK    2  A    between atoms: C_8  and  S_1 
ROOT
ATOM      1  N   UNL d   1      52.798  32.939  53.491  0.00  0.00    -0.231 N 
ATOM      2  C   UNL d   1      52.595  32.196  53.215  0.00  0.00     0.092 A 
ATOM      3  C   UNL d   1      52.206  33.463  53.255  0.00  0.00     0.075 A 
ATOM      4  C   UNL d   1      51.881  32.252  52.809  0.00  0.00     0.021 A 
ATOM      5  C   UNL d   1      51.637  33.037  52.832  0.00  0.00     0.018 A 
ATOM      6  C   UNL d   1      52.113  34.271  53.371  0.00  0.00     0.018 A 
ATOM      7  C   UNL d   1      50.978  33.421  52.527  0.00  0.00     0.002 A 
ATOM      8  C   UNL d   1      51.450  34.660  53.065  0.00  0.00     0.002 A 
ATOM      9  C   UNL d   1      50.881  34.234  52.642  0.00  0.00     0.000 A 
ENDROOT
BRANCH   1  10
ATOM     10  S   UNL d   1      53.471  33.131  53.926  0.00  0.00     0.271 S 
ATOM     11  O   UNL d   1      53.898  33.219  53.221  0.00  0.00    -0.200 OA
ATOM     12  O   UNL d   1      53.043  33.043  54.627  0.00  0.00    -0.200 OA
BRANCH  10  13
ATOM     13  C   UNL d   1      54.146  33.324  54.366  0.00  0.00     0.104 A 
ATOM     14  C   UNL d   1      54.850  33.508  53.987  0.00  0.00     0.013 A 
ATOM     15  C   UNL d   1      55.515  33.698  54.421  0.00  0.00     0.001 A 
ATOM     16  C   UNL d   1      55.481  33.706  55.248  0.00  0.00     0.000 A 
ATOM     17  C   UNL d   1      54.781  33.523  55.633  0.00  0.00     0.001 A 
ATOM     18  C   UNL d   1      54.109  33.331  55.193  0.00  0.00     0.013 A 
ENDBRANCH  10  13
ENDBRANCH   1  10
TORSDOF 2
ENDMDL
