MODEL 1
REMARK VINA RESULT:      21.7      0.000      0.000
REMARK  6 active torsions:
REMARK  status: ('A' for Active; 'I' for Inactive)
REMARK    1  A    between atoms: C_6  and  C_2 
REMARK    2  A    between atoms: C_7  and  C_6 
REMARK    3  A    between atoms: C_8  and  C_15 
REMARK       I    between atoms: N_9  and  C_8 
REMARK    4  A    between atoms: C_16  and  N_9 
REMARK    5  A    between atoms: O_13  and  C_12 
REMARK    6  A    between atoms: C_15  and  O_13 
ROOT
ATOM      1  C   UNL d   1      46.444 -18.242  43.453  0.00  0.00     0.023 A 
ATOM      2  C   UNL d   1      46.044 -17.771  43.998  0.00  0.00     0.100 A 
ATOM      3  C   UNL d   1      46.646 -19.014  43.641  0.00  0.00     0.002 A 
ATOM      4  C   UNL d   1      45.844 -18.074  44.739  0.00  0.00     0.025 A 
ATOM      5  C   UNL d   1      46.449 -19.327  44.382  0.00  0.00     0.000 A 
ATOM      6  C   UNL d   1      46.046 -18.851  44.929  0.00  0.00     0.002 A 
ENDROOT
BRANCH   2   7
ATOM      7  O   UNL d   1      45.841 -16.991  43.807  0.00  0.00    -0.300 OA
BRANCH   7   8
ATOM      8  C   UNL d   1      45.719 -16.442  44.418  0.00  0.00     0.185 C 
BRANCH   8   9
ATOM      9  C   UNL d   1      44.949 -16.175  44.585  0.00  0.00     0.304 C 
ATOM     10  N   UNL d   1      44.788 -15.363  44.580  0.00  0.00    -0.206 NA
ATOM     11  O   UNL d   1      44.352 -16.719  44.753  0.00  0.00    -0.263 OA
BRANCH  10  12
ATOM     12  C   UNL d   1      45.385 -14.821  44.411  0.00  0.00     0.085 A 
ATOM     13  C   UNL d   1      45.376 -14.411  43.687  0.00  0.00     0.019 A 
ATOM     14  C   UNL d   1      45.972 -13.867  43.513  0.00  0.00     0.002 A 
ATOM     15  C   UNL d   1      46.580 -13.728  44.062  0.00  0.00     0.000 A 
ATOM     16  C   UNL d   1      46.583 -14.140  44.781  0.00  0.00     0.002 A 
ATOM     17  C   UNL d   1      45.985 -14.683  44.950  0.00  0.00     0.019 A 
ENDBRANCH  10  12
ENDBRANCH   8   9
ENDBRANCH   7   8
ENDBRANCH   2   7
BRANCH   1  18
ATOM     18  C   UNL d   1      46.646 -17.940  42.709  0.00  0.00     0.013 C 
BRANCH  18  19
ATOM     19  C   UNL d   1      46.638 -18.424  42.043  0.00  0.00     0.092 A 
ATOM     20  C   UNL d   1      46.638 -18.178  41.261  0.00  0.00     0.288 A 
ATOM     21  N   UNL d   1      46.629 -18.844  40.780  0.00  0.00    -0.163 NA
ATOM     22  O   UNL d   1      46.647 -17.394  41.001  0.00  0.00    -0.265 OA
ATOM     23  C   UNL d   1      46.622 -19.512  41.269  0.00  0.00     0.313 A 
ATOM     24  S   UNL d   1      46.628 -19.252  42.054  0.00  0.00    -0.021 SA
ATOM     25  O   UNL d   1      46.612 -20.304  41.018  0.00  0.00    -0.258 OA
ENDBRANCH  18  19
ENDBRANCH   1  18
TORSDOF 6
ENDMDL
