MODEL 1
REMARK VINA RESULT:      91.5      0.000      0.000
REMARK  8 active torsions:
REMARK  status: ('A' for Active; 'I' for Inactive)
REMARK    1  A    between atoms: C_5  and  C_1 
REMARK    2  A    between atoms: N_6  and  C_2 
REMARK    3  A    between atoms: C_7  and  C_5 
REMARK    4  A    between atoms: C_8  and  C_5 
REMARK    5  A    between atoms: O_13  and  C_7 
REMARK    6  A    between atoms: C_12  and  C_16 
REMARK    7  A    between atoms: C_22  and  O_13 
REMARK    8  A    between atoms: C_25  and  C_22 
ROOT
ATOM      1  C   UNL d   1     -49.632  27.242  34.807  0.00  0.00     0.296 C 
ATOM      2  O   UNL d   1     -50.125  26.989  35.423  0.00  0.00    -0.259 OA
ATOM      3  O   UNL d   1     -49.710  26.907  34.058  0.00  0.00    -0.296 OA
ATOM      4  C   UNL d   1     -49.788  26.572  33.308  0.00  0.00     0.185 C 
ENDROOT
BRANCH   1   5
ATOM      5  C   UNL d   1     -49.068  27.827  34.946  0.00  0.00     0.065 A 
ATOM      6  C   UNL d   1     -48.343  28.273  35.227  0.00  0.00     0.018 A 
ATOM      7  C   UNL d   1     -48.611  29.162  34.771  0.00  0.00     0.057 A 
ATOM      8  N   UNL d   1     -48.313  29.757  34.750  0.00  0.00    -0.192 NA
ATOM      9  C   UNL d   1     -48.992  29.376  34.475  0.00  0.00     0.057 A 
ATOM     10  C   UNL d   1     -48.734  28.413  34.948  0.00  0.00     0.018 A 
BRANCH   8  11
ATOM     11  C   UNL d   1     -48.105  30.544  34.610  0.00  0.00     0.145 A 
ATOM     12  C   UNL d   1     -47.475  30.733  35.099  0.00  0.00     0.117 A 
ATOM     13  N   UNL d   1     -47.150  31.492  35.077  0.00  0.00    -0.241 NA
ATOM     14  C   UNL d   1     -47.453  32.056  34.570  0.00  0.00     0.099 A 
ATOM     15  C   UNL d   1     -48.092  31.871  34.072  0.00  0.00     0.100 A 
ATOM     16  C   UNL d   1     -47.133  32.809  34.546  0.00  0.00     0.021 A 
ATOM     17  C   UNL d   1     -48.400  32.441  33.558  0.00  0.00     0.021 A 
ATOM     18  N   UNL d   1     -48.417  31.112  34.094  0.00  0.00    -0.230 NA
ATOM     19  C   UNL d   1     -48.072  33.190  33.543  0.00  0.00     0.002 A 
ATOM     20  C   UNL d   1     -47.436  33.383  34.036  0.00  0.00     0.002 A 
BRANCH  12  21
ATOM     21  C   UNL d   1     -47.288  30.063  35.545  0.00  0.00     0.104 C 
BRANCH  21  22
ATOM     22  C   UNL d   1     -47.352  29.994  36.373  0.00  0.00     0.303 C 
ATOM     23  O   UNL d   1     -48.076  29.801  36.714  0.00  0.00    -0.259 OA
BRANCH  22  24
ATOM     24  O   UNL d   1     -46.688  30.120  36.847  0.00  0.00    -0.271 OA
BRANCH  24  25
ATOM     25  C   UNL d   1     -46.776  30.250  37.656  0.00  0.00     0.126 C 
BRANCH  25  26
ATOM     26  C   UNL d   1     -46.184  30.019  38.179  0.00  0.00     0.025 C 
ATOM     27  C   UNL d   1     -45.818  29.291  38.087  0.00  0.00     0.002 C 
ATOM     28  C   UNL d   1     -45.961  30.520  38.795  0.00  0.00     0.002 C 
ENDBRANCH  25  26
ENDBRANCH  24  25
ENDBRANCH  22  24
ENDBRANCH  21  22
BRANCH  21  29
ATOM     29  C   UNL d   1     -47.029  29.476  35.032  0.00  0.00     0.129 C 
ATOM     30  N   UNL d   1     -46.247  29.217  34.935  0.00  0.00    -0.146 N 
ENDBRANCH  21  29
ENDBRANCH  12  21
ENDBRANCH   8  11
ENDBRANCH   1   5
TORSDOF 8
ENDMDL
