MODEL 1
REMARK VINA RESULT:      20.2      0.000      0.000
REMARK  3 active torsions:
REMARK  status: ('A' for Active; 'I' for Inactive)
REMARK    1  A    between atoms: C_6  and  C_1 
REMARK    2  A    between atoms: O_18  and  C_11 
REMARK    3  A    between atoms: O_19  and  C_13 
ROOT
ATOM      1  C   UNL d   1      46.095 -16.407  44.116  0.00  0.00     0.064 A 
ATOM      2  C   UNL d   1      45.482 -16.035  44.534  0.00  0.00     0.199 A 
ATOM      3  C   UNL d   1      45.420 -15.215  44.535  0.00  0.00     0.062 A 
ATOM      4  C   UNL d   1      46.644 -15.951  43.702  0.00  0.00     0.126 A 
ATOM      5  C   UNL d   1      45.969 -14.758  44.121  0.00  0.00     0.106 A 
ATOM      6  O   UNL d   1      46.579 -15.123  43.705  0.00  0.00    -0.305 OA
ATOM      7  C   UNL d   1      44.811 -14.849  44.951  0.00  0.00     0.009 A 
ATOM      8  C   UNL d   1      45.908 -13.937  44.123  0.00  0.00     0.067 A 
ATOM      9  O   UNL d   1      44.933 -16.491  44.948  0.00  0.00    -0.286 OA
ATOM     10  C   UNL d   1      45.298 -13.573  44.539  0.00  0.00     0.198 A 
ATOM     11  C   UNL d   1      44.749 -14.029  44.953  0.00  0.00     0.042 A 
ATOM     12  O   UNL d   1      45.231 -12.741  44.543  0.00  0.00    -0.286 OA
ENDROOT
BRANCH   1  13
ATOM     13  C   UNL d   1      46.157 -17.227  44.114  0.00  0.00     0.007 A 
ATOM     14  C   UNL d   1      46.180 -17.640  43.398  0.00  0.00     0.026 A 
ATOM     15  C   UNL d   1      46.242 -18.461  43.396  0.00  0.00     0.116 A 
ATOM     16  C   UNL d   1      46.280 -18.874  44.109  0.00  0.00     0.116 A 
ATOM     17  C   UNL d   1      46.257 -18.462  44.826  0.00  0.00     0.026 A 
ATOM     18  C   UNL d   1      46.195 -17.640  44.827  0.00  0.00     0.002 A 
BRANCH  15  19
ATOM     19  O   UNL d   1      46.265 -18.869  42.682  0.00  0.00    -0.326 OA
ATOM     20  C   UNL d   1      46.526 -18.489  41.997  0.00  0.00     0.181 C 
ENDBRANCH  15  19
BRANCH  16  21
ATOM     21  O   UNL d   1      46.342 -19.699  44.115  0.00  0.00    -0.326 OA
ATOM     22  C   UNL d   1      46.455 -20.097  44.835  0.00  0.00     0.181 C 
ENDBRANCH  16  21
ENDBRANCH   1  13
TORSDOF 3
ENDMDL
MODEL 2
REMARK VINA RESULT:      20.8      0.985      4.435
REMARK  3 active torsions:
REMARK  status: ('A' for Active; 'I' for Inactive)
REMARK    1  A    between atoms: C_6  and  C_1 
REMARK    2  A    between atoms: O_18  and  C_11 
REMARK    3  A    between atoms: O_19  and  C_13 
ROOT
ATOM      1  C   UNL d   1      45.983 -16.780  44.343  0.00  0.00     0.064 A 
ATOM      2  C   UNL d   1      46.162 -17.040  43.574  0.00  0.00     0.199 A 
ATOM      3  C   UNL d   1      46.267 -17.841  43.423  0.00  0.00     0.062 A 
ATOM      4  C   UNL d   1      45.911 -17.329  44.954  0.00  0.00     0.126 A 
ATOM      5  C   UNL d   1      46.195 -18.391  44.034  0.00  0.00     0.106 A 
ATOM      6  O   UNL d   1      46.018 -18.138  44.797  0.00  0.00    -0.305 OA
ATOM      7  C   UNL d   1      46.445 -18.095  42.660  0.00  0.00     0.009 A 
ATOM      8  C   UNL d   1      46.301 -19.194  43.882  0.00  0.00     0.067 A 
ATOM      9  O   UNL d   1      46.234 -16.490  42.963  0.00  0.00    -0.286 OA
ATOM     10  C   UNL d   1      46.478 -19.446  43.119  0.00  0.00     0.198 A 
ATOM     11  C   UNL d   1      46.550 -18.897  42.508  0.00  0.00     0.042 A 
ATOM     12  O   UNL d   1      46.586 -20.258  42.959  0.00  0.00    -0.286 OA
ENDROOT
BRANCH   1  13
ATOM     13  C   UNL d   1      45.878 -15.978  44.495  0.00  0.00     0.007 A 
ATOM     14  C   UNL d   1      45.130 -15.635  44.409  0.00  0.00     0.026 A 
ATOM     15  C   UNL d   1      45.025 -14.833  44.561  0.00  0.00     0.116 A 
ATOM     16  C   UNL d   1      45.664 -14.370  44.799  0.00  0.00     0.116 A 
ATOM     17  C   UNL d   1      46.413 -14.713  44.885  0.00  0.00     0.026 A 
ATOM     18  C   UNL d   1      46.518 -15.516  44.733  0.00  0.00     0.002 A 
BRANCH  15  19
ATOM     19  O   UNL d   1      44.280 -14.494  44.474  0.00  0.00    -0.326 OA
ATOM     20  C   UNL d   1      43.652 -14.751  44.943  0.00  0.00     0.181 C 
ENDBRANCH  15  19
BRANCH  16  21
ATOM     21  O   UNL d   1      45.566 -13.563  44.953  0.00  0.00    -0.326 OA
ATOM     22  C   UNL d   1      46.187 -13.036  44.794  0.00  0.00     0.181 C 
ENDBRANCH  16  21
ENDBRANCH   1  13
TORSDOF 3
ENDMDL
