MODEL 1
REMARK VINA RESULT:      -6.1      0.000      0.000
REMARK  6 active torsions:
REMARK  status: ('A' for Active; 'I' for Inactive)
REMARK    1  A    between atoms: N_3  and  C_1 
REMARK       I    between atoms: C_5  and  N_3 
REMARK    2  A    between atoms: C_19  and  N_3 
REMARK    3  A    between atoms: C_8  and  C_5 
REMARK    4  A    between atoms: C_20  and  C_19 
REMARK    5  A    between atoms: C_23  and  C_20 
REMARK    6  A    between atoms: N_21  and  C_23 
ROOT
ATOM      1  N   UNL d   1     -47.299  11.918  23.216  0.00  0.00    -0.253 N 
ATOM      2  C   UNL d   1     -47.913  11.422  22.970  0.00  0.00     0.266 C 
ATOM      3  O   UNL d   1     -47.759  10.657  22.734  0.00  0.00    -0.267 OA
ENDROOT
BRANCH   1   4
ATOM      4  C   UNL d   1     -46.519  11.626  23.221  0.00  0.00     0.182 A 
ATOM      5  N   UNL d   1     -45.877  11.964  22.828  0.00  0.00    -0.222 NA
ATOM      6  C   UNL d   1     -45.209  11.508  22.973  0.00  0.00     0.089 A 
ATOM      7  C   UNL d   1     -44.433  11.572  22.735  0.00  0.00     0.018 A 
ATOM      8  C   UNL d   1     -45.440  10.879  23.463  0.00  0.00     0.050 A 
ATOM      9  C   UNL d   1     -43.873  11.019  22.974  0.00  0.00     0.002 A 
ATOM     10  C   UNL d   1     -44.194  12.199  22.245  0.00  0.00     0.002 C 
ATOM     11  C   UNL d   1     -44.105  10.400  23.457  0.00  0.00     0.001 A 
ATOM     12  C   UNL d   1     -44.890  10.336  23.698  0.00  0.00     0.008 A 
ATOM     13  S   UNL d   1     -46.249  10.951  23.616  0.00  0.00    -0.048 SA
ENDBRANCH   1   4
BRANCH   1  14
ATOM     14  C   UNL d   1     -47.455  12.691  23.454  0.00  0.00     0.086 C 
BRANCH  14  15
ATOM     15  C   UNL d   1     -47.088  13.324  23.065  0.00  0.00     0.038 C 
BRANCH  15  16
ATOM     16  C   UNL d   1     -47.168  14.089  23.360  0.00  0.00     0.082 C 
BRANCH  16  17
ATOM     17  N   UNL d   1     -47.101  14.735  22.856  0.00  0.00    -0.300 N 
ATOM     18  C   UNL d   1     -47.774  15.143  22.616  0.00  0.00     0.100 C 
ATOM     19  C   UNL d   1     -46.360  14.972  22.591  0.00  0.00     0.100 C 
ENDBRANCH  16  17
ENDBRANCH  15  16
ENDBRANCH  14  15
ENDBRANCH   1  14
BRANCH   2  20
ATOM     20  C   UNL d   1     -48.685  11.715  22.966  0.00  0.00     0.057 A 
ATOM     21  C   UNL d   1     -49.029  11.981  22.267  0.00  0.00     0.013 A 
ATOM     22  C   UNL d   1     -49.805  12.272  22.283  0.00  0.00     0.049 A 
ATOM     23  S   UNL d   1     -50.283  12.571  21.677  0.00  0.00    -0.064 SA
ATOM     24  C   UNL d   1     -50.233  12.297  22.988  0.00  0.00     0.088 A 
ATOM     25  C   UNL d   1     -51.010  12.780  22.016  0.00  0.00     0.135 A 
ATOM     26  N   UNL d   1     -50.976  12.610  22.826  0.00  0.00    -0.236 NA
ATOM     27  C   UNL d   1     -49.889  12.030  23.688  0.00  0.00     0.020 A 
ATOM     28  C   UNL d   1     -49.117  11.739  23.683  0.00  0.00     0.006 A 
ENDBRANCH   2  20
TORSDOF 6
ENDMDL
MODEL 2
REMARK VINA RESULT:      -6.0      6.595      9.358
REMARK  6 active torsions:
REMARK  status: ('A' for Active; 'I' for Inactive)
REMARK    1  A    between atoms: N_3  and  C_1 
REMARK       I    between atoms: C_5  and  N_3 
REMARK    2  A    between atoms: C_19  and  N_3 
REMARK    3  A    between atoms: C_8  and  C_5 
REMARK    4  A    between atoms: C_20  and  C_19 
REMARK    5  A    between atoms: C_23  and  C_20 
REMARK    6  A    between atoms: N_21  and  C_23 
ROOT
ATOM      1  N   UNL d   1     -39.902  15.167  20.217  0.00  0.00    -0.253 N 
ATOM      2  C   UNL d   1     -39.126  15.315  20.460  0.00  0.00     0.266 C 
ATOM      3  O   UNL d   1     -38.548  15.493  19.913  0.00  0.00    -0.267 OA
ENDROOT
BRANCH   1   4
ATOM      4  C   UNL d   1     -40.087  15.203  19.406  0.00  0.00     0.182 A 
ATOM      5  N   UNL d   1     -39.812  14.683  18.828  0.00  0.00    -0.222 NA
ATOM      6  C   UNL d   1     -40.123  14.909  18.102  0.00  0.00     0.089 A 
ATOM      7  C   UNL d   1     -40.046  14.607  17.348  0.00  0.00     0.018 A 
ATOM      8  C   UNL d   1     -40.598  15.576  18.231  0.00  0.00     0.050 A 
ATOM      9  C   UNL d   1     -40.433  14.958  16.714  0.00  0.00     0.002 A 
ATOM     10  C   UNL d   1     -39.573  13.939  17.210  0.00  0.00     0.002 C 
ATOM     11  C   UNL d   1     -40.900  15.617  16.847  0.00  0.00     0.001 A 
ATOM     12  C   UNL d   1     -40.979  15.922  17.608  0.00  0.00     0.008 A 
ATOM     13  S   UNL d   1     -40.576  15.759  19.038  0.00  0.00    -0.048 SA
ENDBRANCH   1   4
BRANCH   1  14
ATOM     14  C   UNL d   1     -40.486  14.987  20.770  0.00  0.00     0.086 C 
BRANCH  14  15
ATOM     15  C   UNL d   1     -40.986  14.338  20.644  0.00  0.00     0.038 C 
BRANCH  15  16
ATOM     16  C   UNL d   1     -41.679  14.264  21.083  0.00  0.00     0.082 C 
BRANCH  16  17
ATOM     17  N   UNL d   1     -42.052  13.533  21.145  0.00  0.00    -0.300 N 
ATOM     18  C   UNL d   1     -42.751  13.391  20.734  0.00  0.00     0.100 C 
ATOM     19  C   UNL d   1     -41.724  12.946  21.617  0.00  0.00     0.100 C 
ENDBRANCH  16  17
ENDBRANCH  15  16
ENDBRANCH  14  15
ENDBRANCH   1  14
BRANCH   2  20
ATOM     20  C   UNL d   1     -38.946  15.280  21.265  0.00  0.00     0.057 A 
ATOM     21  C   UNL d   1     -38.566  14.620  21.581  0.00  0.00     0.013 A 
ATOM     22  C   UNL d   1     -38.394  14.603  22.392  0.00  0.00     0.049 A 
ATOM     23  S   UNL d   1     -38.023  14.024  22.853  0.00  0.00    -0.064 SA
ATOM     24  C   UNL d   1     -38.597  15.235  22.882  0.00  0.00     0.088 A 
ATOM     25  C   UNL d   1     -38.001  14.305  23.631  0.00  0.00     0.135 A 
ATOM     26  N   UNL d   1     -38.356  15.054  23.646  0.00  0.00    -0.236 NA
ATOM     27  C   UNL d   1     -38.977  15.894  22.566  0.00  0.00     0.020 A 
ATOM     28  C   UNL d   1     -39.153  15.922  21.760  0.00  0.00     0.006 A 
ENDBRANCH   2  20
TORSDOF 6
ENDMDL
MODEL 3
REMARK VINA RESULT:      -5.6      6.499      8.854
REMARK  6 active torsions:
REMARK  status: ('A' for Active; 'I' for Inactive)
REMARK    1  A    between atoms: N_3  and  C_1 
REMARK       I    between atoms: C_5  and  N_3 
REMARK    2  A    between atoms: C_19  and  N_3 
REMARK    3  A    between atoms: C_8  and  C_5 
REMARK    4  A    between atoms: C_20  and  C_19 
REMARK    5  A    between atoms: C_23  and  C_20 
REMARK    6  A    between atoms: N_21  and  C_23 
ROOT
ATOM      1  N   UNL d   1     -39.821  14.867  20.338  0.00  0.00    -0.253 N 
ATOM      2  C   UNL d   1     -39.307  14.918  19.692  0.00  0.00     0.266 C 
ATOM      3  O   UNL d   1     -38.509  15.035  19.806  0.00  0.00    -0.267 OA
ENDROOT
BRANCH   1   4
ATOM      4  C   UNL d   1     -39.512  14.937  21.108  0.00  0.00     0.182 A 
ATOM      5  N   UNL d   1     -39.168  14.327  21.545  0.00  0.00    -0.222 NA
ATOM      6  C   UNL d   1     -38.936  14.625  22.274  0.00  0.00     0.089 A 
ATOM      7  C   UNL d   1     -38.573  14.286  22.921  0.00  0.00     0.018 A 
ATOM      8  C   UNL d   1     -39.138  15.429  22.291  0.00  0.00     0.050 A 
ATOM      9  C   UNL d   1     -38.405  14.732  23.591  0.00  0.00     0.002 A 
ATOM     10  C   UNL d   1     -38.367  13.482  22.913  0.00  0.00     0.002 C 
ATOM     11  C   UNL d   1     -38.607  15.525  23.602  0.00  0.00     0.001 A 
ATOM     12  C   UNL d   1     -38.974  15.868  22.949  0.00  0.00     0.008 A 
ATOM     13  S   UNL d   1     -39.495  15.623  21.570  0.00  0.00    -0.048 SA
ENDBRANCH   1   4
BRANCH   1  14
ATOM     14  C   UNL d   1     -40.628  14.748  20.223  0.00  0.00     0.086 C 
BRANCH  14  15
ATOM     15  C   UNL d   1     -41.051  14.260  20.742  0.00  0.00     0.038 C 
BRANCH  15  16
ATOM     16  C   UNL d   1     -41.821  14.035  20.556  0.00  0.00     0.082 C 
BRANCH  16  17
ATOM     17  N   UNL d   1     -42.267  13.606  21.098  0.00  0.00    -0.300 N 
ATOM     18  C   UNL d   1     -42.875  13.973  21.515  0.00  0.00     0.100 C 
ATOM     19  C   UNL d   1     -42.104  12.810  21.223  0.00  0.00     0.100 C 
ENDBRANCH  16  17
ENDBRANCH  15  16
ENDBRANCH  14  15
ENDBRANCH   1  14
BRANCH   2  20
ATOM     20  C   UNL d   1     -39.617  14.848  18.930  0.00  0.00     0.057 A 
ATOM     21  C   UNL d   1     -40.013  15.480  18.579  0.00  0.00     0.013 A 
ATOM     22  C   UNL d   1     -40.317  15.391  17.813  0.00  0.00     0.049 A 
ATOM     23  S   UNL d   1     -40.732  15.921  17.331  0.00  0.00    -0.064 SA
ATOM     24  C   UNL d   1     -40.228  14.681  17.401  0.00  0.00     0.088 A 
ATOM     25  C   UNL d   1     -40.897  15.531  16.620  0.00  0.00     0.135 A 
ATOM     26  N   UNL d   1     -40.584  14.765  16.665  0.00  0.00    -0.236 NA
ATOM     27  C   UNL d   1     -39.832  14.050  17.752  0.00  0.00     0.020 A 
ATOM     28  C   UNL d   1     -39.525  14.128  18.514  0.00  0.00     0.006 A 
ENDBRANCH   2  20
TORSDOF 6
ENDMDL
MODEL 4
REMARK VINA RESULT:      -5.0      2.018      5.163
REMARK  6 active torsions:
REMARK  status: ('A' for Active; 'I' for Inactive)
REMARK    1  A    between atoms: N_3  and  C_1 
REMARK       I    between atoms: C_5  and  N_3 
REMARK    2  A    between atoms: C_19  and  N_3 
REMARK    3  A    between atoms: C_8  and  C_5 
REMARK    4  A    between atoms: C_20  and  C_19 
REMARK    5  A    between atoms: C_23  and  C_20 
REMARK    6  A    between atoms: N_21  and  C_23 
ROOT
ATOM      1  N   UNL d   1     -47.883  13.987  22.932  0.00  0.00    -0.253 N 
ATOM      2  C   UNL d   1     -47.217  14.353  22.607  0.00  0.00     0.266 C 
ATOM      3  O   UNL d   1     -47.265  15.108  22.305  0.00  0.00    -0.267 OA
ENDROOT
BRANCH   1   4
ATOM      4  C   UNL d   1     -48.606  14.401  22.947  0.00  0.00     0.182 A 
ATOM      5  N   UNL d   1     -49.211  14.332  22.390  0.00  0.00    -0.222 NA
ATOM      6  C   UNL d   1     -49.826  14.832  22.607  0.00  0.00     0.089 A 
ATOM      7  C   UNL d   1     -50.552  14.993  22.273  0.00  0.00     0.018 A 
ATOM      8  C   UNL d   1     -49.600  15.215  23.307  0.00  0.00     0.050 A 
ATOM      9  C   UNL d   1     -51.064  15.532  22.623  0.00  0.00     0.002 A 
ATOM     10  C   UNL d   1     -50.785  14.614  21.573  0.00  0.00     0.002 C 
ATOM     11  C   UNL d   1     -50.837  15.908  23.314  0.00  0.00     0.001 A 
ATOM     12  C   UNL d   1     -50.103  15.745  23.652  0.00  0.00     0.008 A 
ATOM     13  S   UNL d   1     -48.846  14.949  23.519  0.00  0.00    -0.048 SA
ENDBRANCH   1   4
BRANCH   1  14
ATOM     14  C   UNL d   1     -47.835  13.223  23.237  0.00  0.00     0.086 C 
BRANCH  14  15
ATOM     15  C   UNL d   1     -48.453  12.687  23.105  0.00  0.00     0.038 C 
BRANCH  15  16
ATOM     16  C   UNL d   1     -48.389  11.913  23.382  0.00  0.00     0.082 C 
BRANCH  16  17
ATOM     17  N   UNL d   1     -48.966  11.359  23.190  0.00  0.00    -0.300 N 
ATOM     18  C   UNL d   1     -48.907  10.928  22.491  0.00  0.00     0.100 C 
ATOM     19  C   UNL d   1     -49.600  11.235  23.698  0.00  0.00     0.100 C 
ENDBRANCH  16  17
ENDBRANCH  15  16
ENDBRANCH  14  15
ENDBRANCH   1  14
BRANCH   2  20
ATOM     20  C   UNL d   1     -46.502  13.939  22.593  0.00  0.00     0.057 A 
ATOM     21  C   UNL d   1     -46.198  13.652  21.883  0.00  0.00     0.013 A 
ATOM     22  C   UNL d   1     -45.478  13.240  21.889  0.00  0.00     0.049 A 
ATOM     23  S   UNL d   1     -45.048  12.895  21.272  0.00  0.00    -0.064 SA
ATOM     24  C   UNL d   1     -45.068  13.115  22.594  0.00  0.00     0.088 A 
ATOM     25  C   UNL d   1     -44.369  12.557  21.604  0.00  0.00     0.135 A 
ATOM     26  N   UNL d   1     -44.383  12.694  22.421  0.00  0.00    -0.236 NA
ATOM     27  C   UNL d   1     -45.372  13.402  23.304  0.00  0.00     0.020 A 
ATOM     28  C   UNL d   1     -46.088  13.814  23.309  0.00  0.00     0.006 A 
ENDBRANCH   2  20
TORSDOF 6
ENDMDL
MODEL 5
REMARK VINA RESULT:      -4.9      1.654      2.734
REMARK  6 active torsions:
REMARK  status: ('A' for Active; 'I' for Inactive)
REMARK    1  A    between atoms: N_3  and  C_1 
REMARK       I    between atoms: C_5  and  N_3 
REMARK    2  A    between atoms: C_19  and  N_3 
REMARK    3  A    between atoms: C_8  and  C_5 
REMARK    4  A    between atoms: C_20  and  C_19 
REMARK    5  A    between atoms: C_23  and  C_20 
REMARK    6  A    between atoms: N_21  and  C_23 
ROOT
ATOM      1  N   UNL d   1     -47.266  13.530  22.557  0.00  0.00    -0.253 N 
ATOM      2  C   UNL d   1     -47.382  14.182  23.053  0.00  0.00     0.266 C 
ATOM      3  O   UNL d   1     -46.831  14.373  23.622  0.00  0.00    -0.267 OA
ENDROOT
BRANCH   1   4
ATOM      4  C   UNL d   1     -46.577  13.071  22.646  0.00  0.00     0.182 A 
ATOM      5  N   UNL d   1     -45.884  13.155  22.207  0.00  0.00    -0.222 NA
ATOM      6  C   UNL d   1     -45.340  12.596  22.466  0.00  0.00     0.089 A 
ATOM      7  C   UNL d   1     -44.576  12.421  22.241  0.00  0.00     0.018 A 
ATOM      8  C   UNL d   1     -45.700  12.160  23.073  0.00  0.00     0.050 A 
ATOM      9  C   UNL d   1     -44.158  11.817  22.609  0.00  0.00     0.002 A 
ATOM     10  C   UNL d   1     -44.208  12.853  21.635  0.00  0.00     0.002 C 
ATOM     11  C   UNL d   1     -44.518  11.389  23.207  0.00  0.00     0.001 A 
ATOM     12  C   UNL d   1     -45.290  11.566  23.434  0.00  0.00     0.008 A 
ATOM     13  S   UNL d   1     -46.466  12.452  23.185  0.00  0.00    -0.048 SA
ENDBRANCH   1   4
BRANCH   1  14
ATOM     14  C   UNL d   1     -47.823  13.337  21.982  0.00  0.00     0.086 C 
BRANCH  14  15
ATOM     15  C   UNL d   1     -48.294  12.662  22.075  0.00  0.00     0.038 C 
BRANCH  15  16
ATOM     16  C   UNL d   1     -48.583  12.269  21.410  0.00  0.00     0.082 C 
BRANCH  16  17
ATOM     17  N   UNL d   1     -49.365  12.014  21.390  0.00  0.00    -0.300 N 
ATOM     18  C   UNL d   1     -49.917  12.415  20.929  0.00  0.00     0.100 C 
ATOM     19  C   UNL d   1     -49.593  11.359  21.829  0.00  0.00     0.100 C 
ENDBRANCH  16  17
ENDBRANCH  15  16
ENDBRANCH  14  15
ENDBRANCH   1  14
BRANCH   2  20
ATOM     20  C   UNL d   1     -48.066  14.635  22.961  0.00  0.00     0.057 A 
ATOM     21  C   UNL d   1     -48.733  14.485  23.421  0.00  0.00     0.013 A 
ATOM     22  C   UNL d   1     -49.411  14.951  23.315  0.00  0.00     0.049 A 
ATOM     23  S   UNL d   1     -50.147  14.927  23.692  0.00  0.00    -0.064 SA
ATOM     24  C   UNL d   1     -49.423  15.560  22.758  0.00  0.00     0.088 A 
ATOM     25  C   UNL d   1     -50.613  15.526  23.361  0.00  0.00     0.135 A 
ATOM     26  N   UNL d   1     -50.164  15.916  22.784  0.00  0.00    -0.236 NA
ATOM     27  C   UNL d   1     -48.756  15.710  22.298  0.00  0.00     0.020 A 
ATOM     28  C   UNL d   1     -48.077  15.252  22.395  0.00  0.00     0.006 A 
ENDBRANCH   2  20
TORSDOF 6
ENDMDL
MODEL 6
REMARK VINA RESULT:      -4.1      7.190      9.548
REMARK  6 active torsions:
REMARK  status: ('A' for Active; 'I' for Inactive)
REMARK    1  A    between atoms: N_3  and  C_1 
REMARK       I    between atoms: C_5  and  N_3 
REMARK    2  A    between atoms: C_19  and  N_3 
REMARK    3  A    between atoms: C_8  and  C_5 
REMARK    4  A    between atoms: C_20  and  C_19 
REMARK    5  A    between atoms: C_23  and  C_20 
REMARK    6  A    between atoms: N_21  and  C_23 
ROOT
ATOM      1  N   UNL d   1     -39.576  14.721  18.680  0.00  0.00    -0.253 N 
ATOM      2  C   UNL d   1     -40.399  14.792  18.713  0.00  0.00     0.266 C 
ATOM      3  O   UNL d   1     -40.830  14.934  18.035  0.00  0.00    -0.267 OA
ENDROOT
BRANCH   1   4
ATOM      4  C   UNL d   1     -39.191  14.795  17.945  0.00  0.00     0.182 A 
ATOM      5  N   UNL d   1     -38.968  14.171  17.454  0.00  0.00    -0.222 NA
ATOM      6  C   UNL d   1     -38.606  14.479  16.784  0.00  0.00     0.089 A 
ATOM      7  C   UNL d   1     -38.280  14.133  16.122  0.00  0.00     0.018 A 
ATOM      8  C   UNL d   1     -38.603  15.305  16.861  0.00  0.00     0.050 A 
ATOM      9  C   UNL d   1     -37.948  14.594  15.527  0.00  0.00     0.002 A 
ATOM     10  C   UNL d   1     -38.278  13.307  16.038  0.00  0.00     0.002 C 
ATOM     11  C   UNL d   1     -37.949  15.409  15.607  0.00  0.00     0.001 A 
ATOM     12  C   UNL d   1     -38.278  15.759  16.277  0.00  0.00     0.008 A 
ATOM     13  S   UNL d   1     -38.965  15.502  17.578  0.00  0.00    -0.048 SA
ENDBRANCH   1   4
BRANCH   1  14
ATOM     14  C   UNL d   1     -39.140  14.578  19.364  0.00  0.00     0.086 C 
BRANCH  14  15
ATOM     15  C   UNL d   1     -38.641  13.918  19.405  0.00  0.00     0.038 C 
BRANCH  15  16
ATOM     16  C   UNL d   1     -38.015  13.910  19.940  0.00  0.00     0.082 C 
BRANCH  16  17
ATOM     17  N   UNL d   1     -37.965  13.316  20.507  0.00  0.00    -0.300 N 
ATOM     18  C   UNL d   1     -37.940  12.527  20.276  0.00  0.00     0.100 C 
ATOM     19  C   UNL d   1     -37.941  13.513  21.305  0.00  0.00     0.100 C 
ENDBRANCH  16  17
ENDBRANCH  15  16
ENDBRANCH  14  15
ENDBRANCH   1  14
BRANCH   2  20
ATOM     20  C   UNL d   1     -40.777  14.718  19.443  0.00  0.00     0.057 A 
ATOM     21  C   UNL d   1     -41.220  14.046  19.619  0.00  0.00     0.013 A 
ATOM     22  C   UNL d   1     -41.592  13.990  20.358  0.00  0.00     0.049 A 
ATOM     23  S   UNL d   1     -42.064  13.391  20.681  0.00  0.00    -0.064 SA
ATOM     24  C   UNL d   1     -41.523  14.595  20.914  0.00  0.00     0.088 A 
ATOM     25  C   UNL d   1     -42.285  13.634  21.441  0.00  0.00     0.135 A 
ATOM     26  N   UNL d   1     -41.949  14.378  21.583  0.00  0.00    -0.236 NA
ATOM     27  C   UNL d   1     -41.079  15.267  20.738  0.00  0.00     0.020 A 
ATOM     28  C   UNL d   1     -40.705  15.333  20.006  0.00  0.00     0.006 A 
ENDBRANCH   2  20
TORSDOF 6
ENDMDL
MODEL 7
REMARK VINA RESULT:      -4.0      7.615     10.301
REMARK  6 active torsions:
REMARK  status: ('A' for Active; 'I' for Inactive)
REMARK    1  A    between atoms: N_3  and  C_1 
REMARK       I    between atoms: C_5  and  N_3 
REMARK    2  A    between atoms: C_19  and  N_3 
REMARK    3  A    between atoms: C_8  and  C_5 
REMARK    4  A    between atoms: C_20  and  C_19 
REMARK    5  A    between atoms: C_23  and  C_20 
REMARK    6  A    between atoms: N_21  and  C_23 
ROOT
ATOM      1  N   UNL d   1     -39.472  14.914  18.512  0.00  0.00    -0.253 N 
ATOM      2  C   UNL d   1     -39.763  15.257  17.818  0.00  0.00     0.266 C 
ATOM      3  O   UNL d   1     -40.502  15.601  17.806  0.00  0.00    -0.267 OA
ENDROOT
BRANCH   1   4
ATOM      4  C   UNL d   1     -39.943  14.922  19.198  0.00  0.00     0.182 A 
ATOM      5  N   UNL d   1     -40.436  14.310  19.450  0.00  0.00    -0.222 NA
ATOM      6  C   UNL d   1     -40.802  14.538  20.149  0.00  0.00     0.089 A 
ATOM      7  C   UNL d   1     -41.335  14.167  20.641  0.00  0.00     0.018 A 
ATOM      8  C   UNL d   1     -40.533  15.301  20.333  0.00  0.00     0.050 A 
ATOM      9  C   UNL d   1     -41.611  14.541  21.320  0.00  0.00     0.002 A 
ATOM     10  C   UNL d   1     -41.609  13.404  20.465  0.00  0.00     0.002 C 
ATOM     11  C   UNL d   1     -41.343  15.294  21.497  0.00  0.00     0.001 A 
ATOM     12  C   UNL d   1     -40.804  15.669  21.000  0.00  0.00     0.008 A 
ATOM     13  S   UNL d   1     -40.002  15.540  19.746  0.00  0.00    -0.048 SA
ENDBRANCH   1   4
BRANCH   1  14
ATOM     14  C   UNL d   1     -38.725  14.566  18.525  0.00  0.00     0.086 C 
BRANCH  14  15
ATOM     15  C   UNL d   1     -38.589  13.898  18.995  0.00  0.00     0.038 C 
BRANCH  15  16
ATOM     16  C   UNL d   1     -37.940  13.415  18.843  0.00  0.00     0.082 C 
BRANCH  16  17
ATOM     17  N   UNL d   1     -37.941  12.632  19.095  0.00  0.00    -0.300 N 
ATOM     18  C   UNL d   1     -37.941  12.021  18.544  0.00  0.00     0.100 C 
ATOM     19  C   UNL d   1     -37.941  12.461  19.899  0.00  0.00     0.100 C 
ENDBRANCH  16  17
ENDBRANCH  15  16
ENDBRANCH  14  15
ENDBRANCH   1  14
BRANCH   2  20
ATOM     20  C   UNL d   1     -39.293  15.247  17.140  0.00  0.00     0.057 A 
ATOM     21  C   UNL d   1     -39.309  14.601  16.629  0.00  0.00     0.013 A 
ATOM     22  C   UNL d   1     -38.830  14.609  15.952  0.00  0.00     0.049 A 
ATOM     23  S   UNL d   1     -38.734  14.047  15.351  0.00  0.00    -0.064 SA
ATOM     24  C   UNL d   1     -38.341  15.252  15.787  0.00  0.00     0.088 A 
ATOM     25  C   UNL d   1     -38.182  14.352  14.815  0.00  0.00     0.135 A 
ATOM     26  N   UNL d   1     -37.940  15.096  15.087  0.00  0.00    -0.236 NA
ATOM     27  C   UNL d   1     -38.324  15.898  16.298  0.00  0.00     0.020 A 
ATOM     28  C   UNL d   1     -38.798  15.901  16.974  0.00  0.00     0.006 A 
ENDBRANCH   2  20
TORSDOF 6
ENDMDL
MODEL 8
REMARK VINA RESULT:      -3.7      1.652      2.756
REMARK  6 active torsions:
REMARK  status: ('A' for Active; 'I' for Inactive)
REMARK    1  A    between atoms: N_3  and  C_1 
REMARK       I    between atoms: C_5  and  N_3 
REMARK    2  A    between atoms: C_19  and  N_3 
REMARK    3  A    between atoms: C_8  and  C_5 
REMARK    4  A    between atoms: C_20  and  C_19 
REMARK    5  A    between atoms: C_23  and  C_20 
REMARK    6  A    between atoms: N_21  and  C_23 
ROOT
ATOM      1  N   UNL d   1     -47.362  13.618  22.808  0.00  0.00    -0.253 N 
ATOM      2  C   UNL d   1     -47.608  14.325  22.457  0.00  0.00     0.266 C 
ATOM      3  O   UNL d   1     -47.113  14.731  21.953  0.00  0.00    -0.267 OA
ENDROOT
BRANCH   1   4
ATOM      4  C   UNL d   1     -46.600  13.325  22.641  0.00  0.00     0.182 A 
ATOM      5  N   UNL d   1     -46.262  12.650  22.972  0.00  0.00    -0.222 NA
ATOM      6  C   UNL d   1     -45.507  12.554  22.662  0.00  0.00     0.089 A 
ATOM      7  C   UNL d   1     -44.926  11.996  22.783  0.00  0.00     0.018 A 
ATOM      8  C   UNL d   1     -45.376  13.178  22.131  0.00  0.00     0.050 A 
ATOM      9  C   UNL d   1     -44.208  12.044  22.384  0.00  0.00     0.002 A 
ATOM     10  C   UNL d   1     -45.049  11.369  23.312  0.00  0.00     0.002 C 
ATOM     11  C   UNL d   1     -44.083  12.662  21.861  0.00  0.00     0.001 A 
ATOM     12  C   UNL d   1     -44.671  13.226  21.739  0.00  0.00     0.008 A 
ATOM     13  S   UNL d   1     -46.051  13.656  22.117  0.00  0.00    -0.048 SA
ENDBRANCH   1   4
BRANCH   1  14
ATOM     14  C   UNL d   1     -47.862  13.207  23.318  0.00  0.00     0.086 C 
BRANCH  14  15
ATOM     15  C   UNL d   1     -48.112  12.441  23.122  0.00  0.00     0.038 C 
BRANCH  15  16
ATOM     16  C   UNL d   1     -48.467  11.967  23.694  0.00  0.00     0.082 C 
BRANCH  16  17
ATOM     17  N   UNL d   1     -49.041  11.419  23.477  0.00  0.00    -0.300 N 
ATOM     18  C   UNL d   1     -49.827  11.537  23.693  0.00  0.00     0.100 C 
ATOM     19  C   UNL d   1     -48.829  10.754  23.043  0.00  0.00     0.100 C 
ENDBRANCH  16  17
ENDBRANCH  15  16
ENDBRANCH  14  15
ENDBRANCH   1  14
BRANCH   2  20
ATOM     20  C   UNL d   1     -48.363  14.612  22.626  0.00  0.00     0.057 A 
ATOM     21  C   UNL d   1     -48.986  14.488  22.100  0.00  0.00     0.013 A 
ATOM     22  C   UNL d   1     -49.737  14.784  22.286  0.00  0.00     0.049 A 
ATOM     23  S   UNL d   1     -50.452  14.744  21.871  0.00  0.00    -0.064 SA
ATOM     24  C   UNL d   1     -49.867  15.198  22.988  0.00  0.00     0.088 A 
ATOM     25  C   UNL d   1     -51.023  15.138  22.323  0.00  0.00     0.135 A 
ATOM     26  N   UNL d   1     -50.659  15.417  23.014  0.00  0.00    -0.236 NA
ATOM     27  C   UNL d   1     -49.245  15.322  23.514  0.00  0.00     0.020 A 
ATOM     28  C   UNL d   1     -48.493  15.032  23.338  0.00  0.00     0.006 A 
ENDBRANCH   2  20
TORSDOF 6
ENDMDL
