MODEL 1
REMARK VINA RESULT:     309.4      0.000      0.000
REMARK  4 active torsions:
REMARK  status: ('A' for Active; 'I' for Inactive)
REMARK    1  A    between atoms: N_10  and  C_3 
REMARK    2  A    between atoms: C_15  and  C_5 
REMARK    3  A    between atoms: C_14  and  C_9 
REMARK       I    between atoms: C_11  and  N_12 
REMARK    4  A    between atoms: C_13  and  C_11 
ROOT
ATOM      1  N   UNL d   1     -56.276-101.280 -41.283  0.00  0.00    -0.196 N 
ATOM      2  C   UNL d   1     -56.444-101.286 -42.102  0.00  0.00     0.167 A 
ATOM      3  C   UNL d   1     -56.795-101.653 -40.765  0.00  0.00     0.152 A 
ATOM      4  N   UNL d   1     -55.093-100.539 -41.543  0.00  0.00    -0.163 NA
ATOM      5  C   UNL d   1     -55.941-100.922 -42.630  0.00  0.00     0.055 A 
ATOM      6  N   UNL d   1     -57.126-101.663 -42.382  0.00  0.00    -0.231 NA
ATOM      7  C   UNL d   1     -57.482-102.033 -41.044  0.00  0.00     0.052 A 
ATOM      8  C   UNL d   1     -55.258-100.544 -42.349  0.00  0.00     0.104 A 
ATOM      9  C   UNL d   1     -57.647-102.038 -41.850  0.00  0.00     0.063 A 
ATOM     10  C   UNL d   1     -54.743-100.173 -42.870  0.00  0.00     0.023 C 
ENDROOT
BRANCH   3  11
ATOM     11  N   UNL d   1     -56.622-101.648 -39.920  0.00  0.00    -0.286 N 
ATOM     12  C   UNL d   1     -57.055-101.846 -39.256  0.00  0.00     0.101 A 
ATOM     13  C   UNL d   1     -56.716-101.774 -38.517  0.00  0.00     0.102 A 
ATOM     14  N   UNL d   1     -55.948-101.506 -38.445  0.00  0.00    -0.267 N 
ATOM     15  C   UNL d   1     -55.618-101.438 -37.713  0.00  0.00     0.288 C 
ATOM     16  C   UNL d   1     -55.531-101.314 -39.104  0.00  0.00     0.102 A 
ATOM     17  O   UNL d   1     -54.854-101.171 -37.635  0.00  0.00    -0.264 OA
ATOM     18  C   UNL d   1     -55.867-101.384 -39.850  0.00  0.00     0.101 A 
BRANCH  15  19
ATOM     19  C   UNL d   1     -56.039-101.631 -37.052  0.00  0.00     0.156 A 
ATOM     20  O   UNL d   1     -56.842-101.729 -37.097  0.00  0.00    -0.300 OA
ATOM     21  C   UNL d   1     -57.272-101.924 -36.438  0.00  0.00     0.123 A 
ATOM     22  C   UNL d   1     -56.898-102.021 -35.730  0.00  0.00     0.029 A 
ATOM     23  C   UNL d   1     -55.668-101.729 -36.343  0.00  0.00     0.032 A 
ENDBRANCH  15  19
ENDBRANCH   3  11
BRANCH   9  24
ATOM     24  C   UNL d   1     -58.355-102.430 -42.144  0.00  0.00     0.036 C 
ATOM     25  C   UNL d   1     -59.052-102.818 -42.438  0.00  0.00     0.006 C 
ATOM     26  C   UNL d   1     -59.088-102.383 -41.693  0.00  0.00     0.006 C 
ATOM     27  C   UNL d   1     -58.319-102.862 -42.883  0.00  0.00     0.006 C 
ENDBRANCH   9  24
BRANCH   5  28
ATOM     28  C   UNL d   1     -56.107-100.927 -43.441  0.00  0.00     0.004 A 
ATOM     29  C   UNL d   1     -56.776-101.323 -43.715  0.00  0.00     0.000 A 
ATOM     30  C   UNL d   1     -56.944-101.328 -44.534  0.00  0.00     0.000 A 
ATOM     31  C   UNL d   1     -56.437-100.937 -45.053  0.00  0.00     0.000 A 
ATOM     32  C   UNL d   1     -55.768-100.542 -44.766  0.00  0.00     0.000 A 
ATOM     33  C   UNL d   1     -55.603-100.537 -43.960  0.00  0.00     0.000 A 
ENDBRANCH   5  28
TORSDOF 4
ENDMDL
