MODEL 1
REMARK VINA RESULT:      10.2      0.000      0.000
REMARK  1 active torsions:
REMARK  status: ('A' for Active; 'I' for Inactive)
REMARK    1  A    between atoms: C_6  and  N_1 
ROOT
ATOM      1  N   UNL d   1      24.272  12.476  -2.368  0.00  0.00    -0.210 N 
ATOM      2  C   UNL d   1      24.128  12.908  -3.053  0.00  0.00     0.196 A 
ATOM      3  N   UNL d   1      24.671  11.779  -2.582  0.00  0.00    -0.161 NA
ATOM      4  C   UNL d   1      24.433  12.484  -3.689  0.00  0.00     0.127 A 
ATOM      5  C   UNL d   1      24.767  11.791  -3.406  0.00  0.00     0.134 A 
ATOM      6  C   UNL d   1      24.408  12.719  -4.485  0.00  0.00     0.106 C 
ATOM      7  N   UNL d   1      24.385  12.949  -5.283  0.00  0.00    -0.191 NA
ATOM      8  N   UNL d   1      23.735  13.655  -3.089  0.00  0.00    -0.126 N 
ENDROOT
BRANCH   1   9
ATOM      9  C   UNL d   1      24.076  12.660  -1.583  0.00  0.00     0.085 A 
ATOM     10  C   UNL d   1      24.431  13.312  -1.224  0.00  0.00     0.019 A 
ATOM     11  C   UNL d   1      24.236  13.499  -0.435  0.00  0.00     0.002 A 
ATOM     12  C   UNL d   1      24.590  14.159  -0.058  0.00  0.00     0.000 C 
ATOM     13  C   UNL d   1      23.695  13.036  -0.024  0.00  0.00     0.000 A 
ATOM     14  C   UNL d   1      23.342  12.386  -0.387  0.00  0.00     0.002 A 
ATOM     15  C   UNL d   1      23.534  12.197  -1.173  0.00  0.00     0.019 A 
ENDBRANCH   1   9
TORSDOF 1
ENDMDL
MODEL 2
REMARK VINA RESULT:      12.7     10.014     10.816
REMARK  1 active torsions:
REMARK  status: ('A' for Active; 'I' for Inactive)
REMARK    1  A    between atoms: C_6  and  N_1 
ROOT
ATOM      1  N   UNL d   1      13.811  12.372  -2.362  0.00  0.00    -0.210 N 
ATOM      2  C   UNL d   1      14.373  12.819  -1.961  0.00  0.00     0.196 A 
ATOM      3  N   UNL d   1      13.538  11.780  -1.847  0.00  0.00    -0.161 NA
ATOM      4  C   UNL d   1      14.450  12.509  -1.202  0.00  0.00     0.127 A 
ATOM      5  C   UNL d   1      13.939  11.871  -1.127  0.00  0.00     0.134 A 
ATOM      6  C   UNL d   1      14.958  12.793  -0.611  0.00  0.00     0.106 C 
ATOM      7  N   UNL d   1      15.465  13.075  -0.016  0.00  0.00    -0.191 NA
ATOM      8  N   UNL d   1      14.793  13.479  -2.278  0.00  0.00    -0.126 N 
ENDROOT
BRANCH   1   9
ATOM      9  C   UNL d   1      13.534  12.456  -3.139  0.00  0.00     0.085 A 
ATOM     10  C   UNL d   1      13.296  13.201  -3.401  0.00  0.00     0.019 A 
ATOM     11  C   UNL d   1      13.017  13.289  -4.182  0.00  0.00     0.002 A 
ATOM     12  C   UNL d   1      12.772  14.041  -4.460  0.00  0.00     0.000 C 
ATOM     13  C   UNL d   1      12.981  12.637  -4.681  0.00  0.00     0.000 A 
ATOM     14  C   UNL d   1      13.219  11.894  -4.416  0.00  0.00     0.002 A 
ATOM     15  C   UNL d   1      13.498  11.803  -3.639  0.00  0.00     0.019 A 
ENDBRANCH   1   9
TORSDOF 1
ENDMDL
