MODEL 1
REMARK VINA RESULT:      -5.5      0.000      0.000
REMARK  6 active torsions:
REMARK  status: ('A' for Active; 'I' for Inactive)
REMARK    1  A    between atoms: C_9  and  C_3 
REMARK    2  A    between atoms: C_4  and  C_18 
REMARK       I    between atoms: N_7  and  C_4 
REMARK    3  A    between atoms: S_11  and  C_5 
REMARK       I    between atoms: C_6  and  N_8 
REMARK    4  A    between atoms: C_12  and  N_7 
REMARK    5  A    between atoms: N_8  and  C_13 
REMARK    6  A    between atoms: C_18  and  S_11 
ROOT
ATOM      1  C   UNL d   1     -42.895  13.519  21.476  0.00  0.00     0.099 C 
ENDROOT
BRANCH   1   2
ATOM      2  C   UNL d   1     -42.179  13.588  21.078  0.00  0.00     0.286 C 
ATOM      3  N   UNL d   1     -41.778  14.310  21.069  0.00  0.00    -0.207 NA
ATOM      4  O   UNL d   1     -41.858  12.936  20.687  0.00  0.00    -0.265 OA
BRANCH   3   5
ATOM      5  C   UNL d   1     -41.058  14.379  20.669  0.00  0.00     0.086 A 
ATOM      6  C   UNL d   1     -41.047  14.673  19.902  0.00  0.00     0.038 A 
ATOM      7  C   UNL d   1     -40.328  14.743  19.503  0.00  0.00     0.086 A 
ATOM      8  C   UNL d   1     -39.627  14.516  19.878  0.00  0.00     0.019 A 
ATOM      9  C   UNL d   1     -39.654  14.222  20.649  0.00  0.00     0.003 A 
ATOM     10  C   UNL d   1     -40.363  14.153  21.043  0.00  0.00     0.019 A 
BRANCH   7  11
ATOM     11  N   UNL d   1     -40.309  15.038  18.732  0.00  0.00    -0.208 NA
ATOM     12  C   UNL d   1     -40.199  14.530  18.096  0.00  0.00     0.279 C 
ATOM     13  O   UNL d   1     -40.106  13.712  18.234  0.00  0.00    -0.265 OA
ATOM     14  C   UNL d   1     -40.179  14.816  17.327  0.00  0.00     0.068 C 
ENDBRANCH   7  11
ENDBRANCH   3   5
ENDBRANCH   1   2
BRANCH   1  15
ATOM     15  S   UNL d   1     -43.325  12.823  21.417  0.00  0.00    -0.061 SA
BRANCH  15  16
ATOM     16  C   UNL d   1     -44.053  12.748  21.798  0.00  0.00     0.133 A 
ATOM     17  N   UNL d   1     -44.178  12.152  22.345  0.00  0.00    -0.141 NA
ATOM     18  N   UNL d   1     -44.906  12.078  22.726  0.00  0.00    -0.148 NA
ATOM     19  C   UNL d   1     -45.520  12.609  22.557  0.00  0.00     0.104 A 
ATOM     20  C   UNL d   1     -45.396  13.212  22.005  0.00  0.00     0.023 A 
ATOM     21  C   UNL d   1     -44.669  13.284  21.627  0.00  0.00     0.029 A 
BRANCH  19  22
ATOM     22  C   UNL d   1     -46.247  12.535  22.939  0.00  0.00     0.039 A 
ATOM     23  C   UNL d   1     -46.769  13.159  22.936  0.00  0.00     0.101 A 
ATOM     24  N   UNL d   1     -47.493  13.090  23.313  0.00  0.00    -0.242 NA
ATOM     25  C   UNL d   1     -47.692  12.380  23.698  0.00  0.00     0.099 A 
ATOM     26  C   UNL d   1     -47.164  11.755  23.698  0.00  0.00     0.021 A 
ATOM     27  C   UNL d   1     -46.433  11.820  23.319  0.00  0.00     0.005 A 
ENDBRANCH  19  22
ENDBRANCH  15  16
ENDBRANCH   1  15
TORSDOF 6
ENDMDL
MODEL 2
REMARK VINA RESULT:      -4.9      1.623      6.554
REMARK  6 active torsions:
REMARK  status: ('A' for Active; 'I' for Inactive)
REMARK    1  A    between atoms: C_9  and  C_3 
REMARK    2  A    between atoms: C_4  and  C_18 
REMARK       I    between atoms: N_7  and  C_4 
REMARK    3  A    between atoms: S_11  and  C_5 
REMARK       I    between atoms: C_6  and  N_8 
REMARK    4  A    between atoms: C_12  and  N_7 
REMARK    5  A    between atoms: N_8  and  C_13 
REMARK    6  A    between atoms: C_18  and  S_11 
ROOT
ATOM      1  C   UNL d   1     -43.461  13.043  21.184  0.00  0.00     0.099 C 
ENDROOT
BRANCH   1   2
ATOM      2  C   UNL d   1     -44.065  12.854  21.708  0.00  0.00     0.286 C 
ATOM      3  N   UNL d   1     -44.762  13.297  21.714  0.00  0.00    -0.207 NA
ATOM      4  O   UNL d   1     -43.977  12.221  22.231  0.00  0.00    -0.265 OA
BRANCH   3   5
ATOM      5  C   UNL d   1     -45.370  13.106  22.242  0.00  0.00     0.086 A 
ATOM      6  C   UNL d   1     -45.936  13.671  22.428  0.00  0.00     0.038 A 
ATOM      7  C   UNL d   1     -46.543  13.481  22.955  0.00  0.00     0.086 A 
ATOM      8  C   UNL d   1     -46.573  12.725  23.288  0.00  0.00     0.019 A 
ATOM      9  C   UNL d   1     -45.997  12.168  23.091  0.00  0.00     0.003 A 
ATOM     10  C   UNL d   1     -45.399  12.356  22.572  0.00  0.00     0.019 A 
BRANCH   7  11
ATOM     11  N   UNL d   1     -47.115  14.043  23.147  0.00  0.00    -0.208 NA
ATOM     12  C   UNL d   1     -47.839  14.047  22.761  0.00  0.00     0.279 C 
ATOM     13  O   UNL d   1     -47.994  13.477  22.171  0.00  0.00    -0.265 OA
ATOM     14  C   UNL d   1     -48.414  14.603  22.947  0.00  0.00     0.068 C 
ENDBRANCH   7  11
ENDBRANCH   3   5
ENDBRANCH   1   2
BRANCH   1  15
ATOM     15  S   UNL d   1     -42.684  13.055  21.448  0.00  0.00    -0.061 SA
BRANCH  15  16
ATOM     16  C   UNL d   1     -42.103  13.454  21.020  0.00  0.00     0.133 A 
ATOM     17  N   UNL d   1     -41.990  13.297  20.224  0.00  0.00    -0.141 NA
ATOM     18  N   UNL d   1     -41.410  13.696  19.795  0.00  0.00    -0.148 NA
ATOM     19  C   UNL d   1     -40.933  14.263  20.168  0.00  0.00     0.104 A 
ATOM     20  C   UNL d   1     -41.045  14.424  20.972  0.00  0.00     0.023 A 
ATOM     21  C   UNL d   1     -41.625  14.024  21.397  0.00  0.00     0.029 A 
BRANCH  19  22
ATOM     22  C   UNL d   1     -40.352  14.662  19.739  0.00  0.00     0.039 A 
ATOM     23  C   UNL d   1     -39.576  14.422  19.793  0.00  0.00     0.101 A 
ATOM     24  N   UNL d   1     -38.997  14.815  19.369  0.00  0.00    -0.242 NA
ATOM     25  C   UNL d   1     -39.204  15.459  18.884  0.00  0.00     0.099 A 
ATOM     26  C   UNL d   1     -39.985  15.696  18.834  0.00  0.00     0.021 A 
ATOM     27  C   UNL d   1     -40.573  15.302  19.260  0.00  0.00     0.005 A 
ENDBRANCH  19  22
ENDBRANCH  15  16
ENDBRANCH   1  15
TORSDOF 6
ENDMDL
MODEL 3
REMARK VINA RESULT:      -4.7      1.894      6.641
REMARK  6 active torsions:
REMARK  status: ('A' for Active; 'I' for Inactive)
REMARK    1  A    between atoms: C_9  and  C_3 
REMARK    2  A    between atoms: C_4  and  C_18 
REMARK       I    between atoms: N_7  and  C_4 
REMARK    3  A    between atoms: S_11  and  C_5 
REMARK       I    between atoms: C_6  and  N_8 
REMARK    4  A    between atoms: C_12  and  N_7 
REMARK    5  A    between atoms: N_8  and  C_13 
REMARK    6  A    between atoms: C_18  and  S_11 
ROOT
ATOM      1  C   UNL d   1     -44.581  13.433  22.064  0.00  0.00     0.099 C 
ENDROOT
BRANCH   1   2
ATOM      2  C   UNL d   1     -45.348  13.170  22.200  0.00  0.00     0.286 C 
ATOM      3  N   UNL d   1     -45.746  13.395  22.887  0.00  0.00    -0.207 NA
ATOM      4  O   UNL d   1     -45.722  12.680  21.652  0.00  0.00    -0.265 OA
BRANCH   3   5
ATOM      5  C   UNL d   1     -46.518  13.131  23.025  0.00  0.00     0.086 A 
ATOM      6  C   UNL d   1     -47.151  13.629  22.866  0.00  0.00     0.038 A 
ATOM      7  C   UNL d   1     -47.921  13.365  23.004  0.00  0.00     0.086 A 
ATOM      8  C   UNL d   1     -48.046  12.604  23.299  0.00  0.00     0.019 A 
ATOM      9  C   UNL d   1     -47.400  12.114  23.454  0.00  0.00     0.003 A 
ATOM     10  C   UNL d   1     -46.640  12.374  23.318  0.00  0.00     0.019 A 
BRANCH   7  11
ATOM     11  N   UNL d   1     -48.562  13.861  22.847  0.00  0.00    -0.208 NA
ATOM     12  C   UNL d   1     -49.029  13.737  22.183  0.00  0.00     0.279 C 
ATOM     13  O   UNL d   1     -48.850  13.106  21.666  0.00  0.00    -0.265 OA
ATOM     14  C   UNL d   1     -49.668  14.225  22.020  0.00  0.00     0.068 C 
ENDBRANCH   7  11
ENDBRANCH   3   5
ENDBRANCH   1   2
BRANCH   1  15
ATOM     15  S   UNL d   1     -44.091  13.008  21.560  0.00  0.00    -0.061 SA
BRANCH  15  16
ATOM     16  C   UNL d   1     -43.329  13.277  21.394  0.00  0.00     0.133 A 
ATOM     17  N   UNL d   1     -43.168  14.079  21.362  0.00  0.00    -0.141 NA
ATOM     18  N   UNL d   1     -42.406  14.348  21.196  0.00  0.00    -0.148 NA
ATOM     19  C   UNL d   1     -41.795  13.806  21.058  0.00  0.00     0.104 A 
ATOM     20  C   UNL d   1     -41.955  12.995  21.089  0.00  0.00     0.023 A 
ATOM     21  C   UNL d   1     -42.715  12.730  21.256  0.00  0.00     0.029 A 
BRANCH  19  22
ATOM     22  C   UNL d   1     -41.033  14.075  20.892  0.00  0.00     0.039 A 
ATOM     23  C   UNL d   1     -40.854  14.340  20.143  0.00  0.00     0.101 A 
ATOM     24  N   UNL d   1     -40.099  14.608  19.973  0.00  0.00    -0.242 NA
ATOM     25  C   UNL d   1     -39.517  14.608  20.568  0.00  0.00     0.099 A 
ATOM     26  C   UNL d   1     -39.702  14.341  21.319  0.00  0.00     0.021 A 
ATOM     27  C   UNL d   1     -40.462  14.070  21.495  0.00  0.00     0.005 A 
ENDBRANCH  19  22
ENDBRANCH  15  16
ENDBRANCH   1  15
TORSDOF 6
ENDMDL
MODEL 4
REMARK VINA RESULT:      -4.6      2.280      3.688
REMARK  6 active torsions:
REMARK  status: ('A' for Active; 'I' for Inactive)
REMARK    1  A    between atoms: C_9  and  C_3 
REMARK    2  A    between atoms: C_4  and  C_18 
REMARK       I    between atoms: N_7  and  C_4 
REMARK    3  A    between atoms: S_11  and  C_5 
REMARK       I    between atoms: C_6  and  N_8 
REMARK    4  A    between atoms: C_12  and  N_7 
REMARK    5  A    between atoms: N_8  and  C_13 
REMARK    6  A    between atoms: C_18  and  S_11 
ROOT
ATOM      1  C   UNL d   1     -46.065  13.341  22.248  0.00  0.00     0.099 C 
ENDROOT
BRANCH   1   2
ATOM      2  C   UNL d   1     -45.268  13.141  22.251  0.00  0.00     0.286 C 
ATOM      3  N   UNL d   1     -44.805  13.277  21.582  0.00  0.00    -0.207 NA
ATOM      4  O   UNL d   1     -44.928  12.804  22.923  0.00  0.00    -0.265 OA
BRANCH   3   5
ATOM      5  C   UNL d   1     -44.003  13.076  21.585  0.00  0.00     0.086 A 
ATOM      6  C   UNL d   1     -43.438  13.659  21.459  0.00  0.00     0.038 A 
ATOM      7  C   UNL d   1     -42.637  13.458  21.462  0.00  0.00     0.086 A 
ATOM      8  C   UNL d   1     -42.413  12.673  21.591  0.00  0.00     0.019 A 
ATOM      9  C   UNL d   1     -42.992  12.098  21.715  0.00  0.00     0.003 A 
ATOM     10  C   UNL d   1     -43.781  12.296  21.712  0.00  0.00     0.019 A 
BRANCH   7  11
ATOM     11  N   UNL d   1     -42.064  14.039  21.337  0.00  0.00    -0.208 NA
ATOM     12  C   UNL d   1     -41.606  14.029  20.656  0.00  0.00     0.279 C 
ATOM     13  O   UNL d   1     -41.724  13.428  20.089  0.00  0.00    -0.265 OA
ATOM     14  C   UNL d   1     -41.035  14.603  20.525  0.00  0.00     0.068 C 
ENDBRANCH   7  11
ENDBRANCH   3   5
ENDBRANCH   1   2
BRANCH   1  15
ATOM     15  S   UNL d   1     -46.401  13.678  22.918  0.00  0.00    -0.061 SA
BRANCH  15  16
ATOM     16  C   UNL d   1     -47.179  13.951  22.902  0.00  0.00     0.133 A 
ATOM     17  N   UNL d   1     -47.802  13.448  23.075  0.00  0.00    -0.141 NA
ATOM     18  N   UNL d   1     -48.580  13.722  23.059  0.00  0.00    -0.148 NA
ATOM     19  C   UNL d   1     -48.738  14.513  22.867  0.00  0.00     0.104 A 
ATOM     20  C   UNL d   1     -48.111  15.023  22.693  0.00  0.00     0.023 A 
ATOM     21  C   UNL d   1     -47.336  14.747  22.709  0.00  0.00     0.029 A 
BRANCH  19  22
ATOM     22  C   UNL d   1     -49.516  14.786  22.852  0.00  0.00     0.039 A 
ATOM     23  C   UNL d   1     -50.011  14.561  22.246  0.00  0.00     0.101 A 
ATOM     24  N   UNL d   1     -50.783  14.830  22.226  0.00  0.00    -0.242 NA
ATOM     25  C   UNL d   1     -51.061  15.334  22.827  0.00  0.00     0.099 A 
ATOM     26  C   UNL d   1     -50.560  15.557  23.434  0.00  0.00     0.021 A 
ATOM     27  C   UNL d   1     -49.780  15.288  23.458  0.00  0.00     0.005 A 
ENDBRANCH  19  22
ENDBRANCH  15  16
ENDBRANCH   1  15
TORSDOF 6
ENDMDL
MODEL 5
REMARK VINA RESULT:      -4.6      1.085      1.808
REMARK  6 active torsions:
REMARK  status: ('A' for Active; 'I' for Inactive)
REMARK    1  A    between atoms: C_9  and  C_3 
REMARK    2  A    between atoms: C_4  and  C_18 
REMARK       I    between atoms: N_7  and  C_4 
REMARK    3  A    between atoms: S_11  and  C_5 
REMARK       I    between atoms: C_6  and  N_8 
REMARK    4  A    between atoms: C_12  and  N_7 
REMARK    5  A    between atoms: N_8  and  C_13 
REMARK    6  A    between atoms: C_18  and  S_11 
ROOT
ATOM      1  C   UNL d   1     -42.984  13.514  21.275  0.00  0.00     0.099 C 
ENDROOT
BRANCH   1   2
ATOM      2  C   UNL d   1     -42.202  13.588  21.030  0.00  0.00     0.286 C 
ATOM      3  N   UNL d   1     -41.820  14.317  21.083  0.00  0.00    -0.207 NA
ATOM      4  O   UNL d   1     -41.798  12.934  20.731  0.00  0.00    -0.265 OA
BRANCH   3   5
ATOM      5  C   UNL d   1     -41.034  14.392  20.837  0.00  0.00     0.086 A 
ATOM      6  C   UNL d   1     -40.435  14.426  21.398  0.00  0.00     0.038 A 
ATOM      7  C   UNL d   1     -39.650  14.501  21.152  0.00  0.00     0.086 A 
ATOM      8  C   UNL d   1     -39.476  14.541  20.345  0.00  0.00     0.019 A 
ATOM      9  C   UNL d   1     -40.089  14.505  19.793  0.00  0.00     0.003 A 
ATOM     10  C   UNL d   1     -40.863  14.432  20.035  0.00  0.00     0.019 A 
BRANCH   7  11
ATOM     11  N   UNL d   1     -39.043  14.535  21.710  0.00  0.00    -0.208 NA
ATOM     12  C   UNL d   1     -38.550  13.889  21.826  0.00  0.00     0.279 C 
ATOM     13  O   UNL d   1     -38.666  13.196  21.376  0.00  0.00    -0.265 OA
ATOM     14  C   UNL d   1     -37.944  13.916  22.379  0.00  0.00     0.068 C 
ENDBRANCH   7  11
ENDBRANCH   3   5
ENDBRANCH   1   2
BRANCH   1  15
ATOM     15  S   UNL d   1     -43.307  12.766  21.376  0.00  0.00    -0.061 SA
BRANCH  15  16
ATOM     16  C   UNL d   1     -44.029  12.672  21.764  0.00  0.00     0.133 A 
ATOM     17  N   UNL d   1     -44.113  12.118  22.361  0.00  0.00    -0.141 NA
ATOM     18  N   UNL d   1     -44.834  12.024  22.749  0.00  0.00    -0.148 NA
ATOM     19  C   UNL d   1     -45.484  12.493  22.536  0.00  0.00     0.104 A 
ATOM     20  C   UNL d   1     -45.403  13.054  21.934  0.00  0.00     0.023 A 
ATOM     21  C   UNL d   1     -44.681  13.145  21.549  0.00  0.00     0.029 A 
BRANCH  19  22
ATOM     22  C   UNL d   1     -46.206  12.400  22.924  0.00  0.00     0.039 A 
ATOM     23  C   UNL d   1     -46.408  11.673  23.230  0.00  0.00     0.101 A 
ATOM     24  N   UNL d   1     -47.123  11.575  23.616  0.00  0.00    -0.242 NA
ATOM     25  C   UNL d   1     -47.642  12.221  23.694  0.00  0.00     0.099 A 
ATOM     26  C   UNL d   1     -47.435  12.949  23.385  0.00  0.00     0.021 A 
ATOM     27  C   UNL d   1     -46.715  13.053  22.995  0.00  0.00     0.005 A 
ENDBRANCH  19  22
ENDBRANCH  15  16
ENDBRANCH   1  15
TORSDOF 6
ENDMDL
MODEL 6
REMARK VINA RESULT:      -3.3      1.338      2.093
REMARK  6 active torsions:
REMARK  status: ('A' for Active; 'I' for Inactive)
REMARK    1  A    between atoms: C_9  and  C_3 
REMARK    2  A    between atoms: C_4  and  C_18 
REMARK       I    between atoms: N_7  and  C_4 
REMARK    3  A    between atoms: S_11  and  C_5 
REMARK       I    between atoms: C_6  and  N_8 
REMARK    4  A    between atoms: C_12  and  N_7 
REMARK    5  A    between atoms: N_8  and  C_13 
REMARK    6  A    between atoms: C_18  and  S_11 
ROOT
ATOM      1  C   UNL d   1     -44.662  12.785  21.715  0.00  0.00     0.099 C 
ENDROOT
BRANCH   1   2
ATOM      2  C   UNL d   1     -43.847  12.860  21.640  0.00  0.00     0.286 C 
ATOM      3  N   UNL d   1     -43.523  13.531  21.285  0.00  0.00    -0.207 NA
ATOM      4  O   UNL d   1     -43.349  12.264  21.921  0.00  0.00    -0.265 OA
BRANCH   3   5
ATOM      5  C   UNL d   1     -42.702  13.605  21.211  0.00  0.00     0.086 A 
ATOM      6  C   UNL d   1     -42.380  14.328  20.994  0.00  0.00     0.038 A 
ATOM      7  C   UNL d   1     -41.561  14.403  20.919  0.00  0.00     0.086 A 
ATOM      8  C   UNL d   1     -41.076  13.750  21.063  0.00  0.00     0.019 A 
ATOM      9  C   UNL d   1     -41.414  13.029  21.281  0.00  0.00     0.003 A 
ATOM     10  C   UNL d   1     -42.222  12.956  21.354  0.00  0.00     0.019 A 
BRANCH   7  11
ATOM     11  N   UNL d   1     -41.229  15.127  20.701  0.00  0.00    -0.208 NA
ATOM     12  C   UNL d   1     -40.832  15.203  19.987  0.00  0.00     0.279 C 
ATOM     13  O   UNL d   1     -40.765  14.542  19.481  0.00  0.00    -0.265 OA
ATOM     14  C   UNL d   1     -40.500  15.919  19.764  0.00  0.00     0.068 C 
ENDBRANCH   7  11
ENDBRANCH   3   5
ENDBRANCH   1   2
BRANCH   1  15
ATOM     15  S   UNL d   1     -45.061  13.240  22.269  0.00  0.00    -0.061 SA
BRANCH  15  16
ATOM     16  C   UNL d   1     -45.847  13.074  22.458  0.00  0.00     0.133 A 
ATOM     17  N   UNL d   1     -46.052  12.834  23.213  0.00  0.00    -0.141 NA
ATOM     18  N   UNL d   1     -46.838  12.667  23.402  0.00  0.00    -0.148 NA
ATOM     19  C   UNL d   1     -47.429  12.742  22.825  0.00  0.00     0.104 A 
ATOM     20  C   UNL d   1     -47.224  12.984  22.061  0.00  0.00     0.023 A 
ATOM     21  C   UNL d   1     -46.439  13.149  21.876  0.00  0.00     0.029 A 
BRANCH  19  22
ATOM     22  C   UNL d   1     -48.214  12.575  23.013  0.00  0.00     0.039 A 
ATOM     23  C   UNL d   1     -48.510  11.828  22.884  0.00  0.00     0.101 A 
ATOM     24  N   UNL d   1     -49.289  11.659  23.069  0.00  0.00    -0.242 NA
ATOM     25  C   UNL d   1     -49.776  12.252  23.390  0.00  0.00     0.099 A 
ATOM     26  C   UNL d   1     -49.474  13.001  23.519  0.00  0.00     0.021 A 
ATOM     27  C   UNL d   1     -48.689  13.177  23.333  0.00  0.00     0.005 A 
ENDBRANCH  19  22
ENDBRANCH  15  16
ENDBRANCH   1  15
TORSDOF 6
ENDMDL
