MODEL 1
REMARK VINA RESULT:      94.5      0.000      0.000
REMARK  3 active torsions:
REMARK  status: ('A' for Active; 'I' for Inactive)
REMARK    1  A    between atoms: S_3  and  N_1 
REMARK    2  A    between atoms: C_5  and  C_4 
REMARK    3  A    between atoms: C_12  and  C_6 
ROOT
ATOM      1  N   UNL d   1     -58.674 -99.605 -43.930  0.00  0.00    -0.155 N 
ATOM      2  N   UNL d   1     -59.214 -99.424 -43.347  0.00  0.00    -0.153 NA
ATOM      3  C   UNL d   1     -57.945 -99.712 -43.586  0.00  0.00     0.098 A 
ATOM      4  C   UNL d   1     -58.810 -99.418 -42.626  0.00  0.00     0.126 A 
ATOM      5  C   UNL d   1     -58.026 -99.596 -42.774  0.00  0.00     0.043 A 
ENDROOT
BRANCH   3   6
ATOM      6  C   UNL d   1     -57.243 -99.903 -43.978  0.00  0.00     0.047 A 
ATOM      7  C   UNL d   1     -56.971 -99.426 -44.592  0.00  0.00     0.140 A 
ATOM      8  N   UNL d   1     -56.270 -99.617 -44.984  0.00  0.00    -0.234 NA
ATOM      9 CL   UNL d   1     -57.400 -98.757 -44.817  0.00  0.00    -0.061 Cl
ATOM     10  C   UNL d   1     -55.842-100.285 -44.759  0.00  0.00     0.082 A 
ATOM     11  C   UNL d   1     -56.114-100.762 -44.144  0.00  0.00     0.018 A 
ATOM     12  C   UNL d   1     -55.141-100.475 -45.150  0.00  0.00     0.018 A 
ATOM     13  C   UNL d   1     -56.814-100.572 -43.753  0.00  0.00     0.005 A 
ATOM     14  C   UNL d   1     -55.685-101.430 -43.919  0.00  0.00     0.002 A 
ATOM     15  C   UNL d   1     -55.005-101.605 -44.307  0.00  0.00     0.000 A 
ATOM     16  C   UNL d   1     -54.733-101.128 -44.922  0.00  0.00     0.002 A 
ATOM     17  C   UNL d   1     -54.869 -99.998 -45.765  0.00  0.00     0.002 C 
ENDBRANCH   3   6
BRANCH   1  18
ATOM     18  S   UNL d   1     -59.235 -99.563 -44.520  0.00  0.00     0.266 S 
ATOM     19  O   UNL d   1     -59.537-100.243 -44.873  0.00  0.00    -0.203 OA
ATOM     20  O   UNL d   1     -59.376 -98.758 -44.627  0.00  0.00    -0.203 OA
ATOM     21  C   UNL d   1     -59.782 -99.313 -45.084  0.00  0.00     0.165 C 
ENDBRANCH   1  18
BRANCH   4  22
ATOM     22  C   UNL d   1     -59.132 -99.264 -41.899  0.00  0.00     0.119 A 
ATOM     23  O   UNL d   1     -58.857 -98.758 -41.329  0.00  0.00    -0.304 OA
ATOM     24  C   UNL d   1     -59.356 -98.775 -40.681  0.00  0.00     0.123 A 
ATOM     25  C   UNL d   1     -59.960 -99.299 -40.840  0.00  0.00     0.029 A 
ATOM     26  C   UNL d   1     -59.835 -99.613 -41.597  0.00  0.00     0.028 A 
ENDBRANCH   4  22
TORSDOF 3
ENDMDL
