MODEL 1
REMARK VINA RESULT:      42.0      0.000      0.000
REMARK  3 active torsions:
REMARK  status: ('A' for Active; 'I' for Inactive)
REMARK    1  A    between atoms: C_13  and  C_4 
REMARK    2  A    between atoms: O_15  and  C_13 
REMARK    3  A    between atoms: C_16  and  O_15 
ROOT
ATOM      1  C   UNL d   1      59.739  49.612  50.365  0.00  0.00     0.144 C 
ENDROOT
BRANCH   1   2
ATOM      2  C   UNL d   1      58.937  49.612  50.225  0.00  0.00     0.142 A 
ATOM      3  N   UNL d   1      58.333  49.542  50.780  0.00  0.00    -0.057 NA
ATOM      4  C   UNL d   1      57.603  49.570  50.399  0.00  0.00     0.735 A 
ATOM      5  N   UNL d   1      57.739  49.660  49.579  0.00  0.00    -0.136 N 
ATOM      6  N   UNL d   1      56.833  49.526  50.677  0.00  0.00    -0.059 NA
ATOM      7  C   UNL d   1      58.565  49.684  49.491  0.00  0.00     0.120 A 
ATOM      8  C   UNL d   1      57.109  49.705  49.051  0.00  0.00     0.100 A 
ATOM      9  C   UNL d   1      56.349  49.664  49.306  0.00  0.00     0.041 A 
ATOM     10  C   UNL d   1      56.185  49.572  50.140  0.00  0.00     0.119 A 
ENDBRANCH   1   2
BRANCH   1  11
ATOM     11  O   UNL d   1      60.081  49.016  50.810  0.00  0.00    -0.303 OA
BRANCH  11  12
ATOM     12  C   UNL d   1      60.667  49.187  51.364  0.00  0.00     0.100 A 
ATOM     13  C   UNL d   1      60.534  49.016  52.151  0.00  0.00     0.025 A 
ATOM     14  C   UNL d   1      61.118  49.186  52.707  0.00  0.00     0.013 A 
ATOM     15  C   UNL d   1      60.978  49.007  53.523  0.00  0.00     0.001 C 
ATOM     16  C   UNL d   1      61.837  49.527  52.476  0.00  0.00     0.058 A 
ATOM     17  C   UNL d   1      61.969  49.698  51.690  0.00  0.00     0.013 A 
ATOM     18 CL   UNL d   1      62.438  49.705  53.026  0.00  0.00    -0.082 Cl
ATOM     19  C   UNL d   1      61.382  49.527  51.135  0.00  0.00     0.026 A 
ENDBRANCH  11  12
ENDBRANCH   1  11
TORSDOF 3
ENDMDL
