MODEL 1
REMARK VINA RESULT:      -0.0      0.000      0.000
REMARK  5 active torsions:
REMARK  status: ('A' for Active; 'I' for Inactive)
REMARK    1  A    between atoms: C_5  and  N_1 
REMARK    2  A    between atoms: C_7  and  C_3 
REMARK    3  A    between atoms: C_8  and  C_4 
REMARK    4  A    between atoms: N_10  and  C_5 
REMARK    5  A    between atoms: O_21  and  C_15 
ROOT
ATOM      1  N   UNL d   1     -41.871-121.891 -51.238  0.00  0.00    -0.203 N 
ATOM      2  N   UNL d   1     -42.010-121.948 -50.423  0.00  0.00    -0.163 NA
ATOM      3  C   UNL d   1     -42.053-122.723 -50.205  0.00  0.00     0.103 A 
ATOM      4  C   UNL d   1     -41.823-122.664 -51.548  0.00  0.00     0.087 A 
ATOM      5  C   UNL d   1     -41.935-123.185 -50.914  0.00  0.00     0.040 A 
ENDROOT
BRANCH   4   6
ATOM      6  C   UNL d   1     -41.692-122.901 -52.329  0.00  0.00     0.018 A 
ATOM      7  C   UNL d   1     -41.992-122.467 -52.958  0.00  0.00     0.004 A 
ATOM      8  C   UNL d   1     -41.860-122.704 -53.736  0.00  0.00     0.024 A 
ATOM      9  C   UNL d   1     -41.422-123.384 -53.883  0.00  0.00     0.094 A 
ATOM     10  C   UNL d   1     -41.123-123.817 -53.277  0.00  0.00     0.024 A 
ATOM     11  C   UNL d   1     -41.255-123.580 -52.496  0.00  0.00     0.004 A 
BRANCH   9  12
ATOM     12  O   UNL d   1     -41.300-123.608 -54.683  0.00  0.00    -0.328 OA
ATOM     13  C   UNL d   1     -41.739-123.244 -55.305  0.00  0.00     0.181 C 
ENDBRANCH   9  12
ENDBRANCH   4   6
BRANCH   1  14
ATOM     14  C   UNL d   1     -41.789-121.180 -51.683  0.00  0.00     0.222 C 
ATOM     15  S   UNL d   1     -42.391-120.976 -52.243  0.00  0.00    -0.037 SA
BRANCH  14  16
ATOM     16  N   UNL d   1     -41.123-120.669 -51.583  0.00  0.00    -0.214 NA
ATOM     17  C   UNL d   1     -41.189-119.859 -51.761  0.00  0.00     0.122 C 
ENDBRANCH  14  16
ENDBRANCH   1  14
BRANCH   3  18
ATOM     18  C   UNL d   1     -42.187-122.996 -49.429  0.00  0.00     0.019 A 
ATOM     19  C   UNL d   1     -42.835-122.732 -48.995  0.00  0.00     0.002 A 
ATOM     20  C   UNL d   1     -42.953-123.017 -48.218  0.00  0.00     0.000 A 
ATOM     21  C   UNL d   1     -42.429-123.553 -47.895  0.00  0.00     0.000 A 
ATOM     22  C   UNL d   1     -41.785-123.807 -48.344  0.00  0.00     0.000 A 
ATOM     23  C   UNL d   1     -42.710-123.817 -46.914  0.00  0.00     0.000 C 
ATOM     24  C   UNL d   1     -41.665-123.535 -49.097  0.00  0.00     0.002 A 
ENDBRANCH   3  18
TORSDOF 5
ENDMDL
MODEL 2
REMARK VINA RESULT:       1.7      1.900      4.649
REMARK  5 active torsions:
REMARK  status: ('A' for Active; 'I' for Inactive)
REMARK    1  A    between atoms: C_5  and  N_1 
REMARK    2  A    between atoms: C_7  and  C_3 
REMARK    3  A    between atoms: C_8  and  C_4 
REMARK    4  A    between atoms: N_10  and  C_5 
REMARK    5  A    between atoms: O_21  and  C_15 
ROOT
ATOM      1  N   UNL d   1     -42.758-122.362 -50.763  0.00  0.00    -0.203 N 
ATOM      2  N   UNL d   1     -42.725-122.299 -51.588  0.00  0.00    -0.163 NA
ATOM      3  C   UNL d   1     -42.036-122.615 -51.860  0.00  0.00     0.103 A 
ATOM      4  C   UNL d   1     -42.058-122.734 -50.502  0.00  0.00     0.087 A 
ATOM      5  C   UNL d   1     -41.606-122.894 -51.177  0.00  0.00     0.040 A 
ENDROOT
BRANCH   4   6
ATOM      6  C   UNL d   1     -41.828-122.922 -49.731  0.00  0.00     0.018 A 
ATOM      7  C   UNL d   1     -41.355-122.412 -49.295  0.00  0.00     0.004 A 
ATOM      8  C   UNL d   1     -41.127-122.601 -48.527  0.00  0.00     0.024 A 
ATOM      9  C   UNL d   1     -41.376-123.309 -48.193  0.00  0.00     0.094 A 
ATOM     10  C   UNL d   1     -41.838-123.816 -48.608  0.00  0.00     0.024 A 
ATOM     11  C   UNL d   1     -42.069-123.628 -49.379  0.00  0.00     0.004 A 
BRANCH   9  12
ATOM     12  O   UNL d   1     -41.131-123.482 -47.408  0.00  0.00    -0.328 OA
ATOM     13  C   UNL d   1     -41.443-123.049 -46.754  0.00  0.00     0.181 C 
ENDBRANCH   9  12
ENDBRANCH   4   6
BRANCH   1  14
ATOM     14  C   UNL d   1     -43.385-122.098 -50.265  0.00  0.00     0.222 C 
ATOM     15  S   UNL d   1     -43.274-121.398 -49.801  0.00  0.00    -0.037 SA
BRANCH  14  16
ATOM     16  N   UNL d   1     -44.119-122.517 -50.219  0.00  0.00    -0.214 NA
ATOM     17  C   UNL d   1     -44.835-122.117 -50.359  0.00  0.00     0.122 C 
ENDBRANCH  14  16
ENDBRANCH   1  14
BRANCH   3  18
ATOM     18  C   UNL d   1     -41.809-122.651 -52.662  0.00  0.00     0.019 A 
ATOM     19  C   UNL d   1     -42.007-122.045 -53.184  0.00  0.00     0.002 A 
ATOM     20  C   UNL d   1     -41.770-122.099 -53.984  0.00  0.00     0.000 A 
ATOM     21  C   UNL d   1     -41.347-122.748 -54.243  0.00  0.00     0.000 A 
ATOM     22  C   UNL d   1     -41.158-123.345 -53.706  0.00  0.00     0.000 A 
ATOM     23  C   UNL d   1     -41.123-122.671 -55.271  0.00  0.00     0.000 C 
ATOM     24  C   UNL d   1     -41.383-123.299 -52.930  0.00  0.00     0.002 A 
ENDBRANCH   3  18
TORSDOF 5
ENDMDL
