MODEL 1
REMARK VINA RESULT:      -2.8      0.000      0.000
REMARK  4 active torsions:
REMARK  status: ('A' for Active; 'I' for Inactive)
REMARK    1  A    between atoms: C_6  and  C_4 
REMARK    2  A    between atoms: C_9  and  C_6 
REMARK    3  A    between atoms: O_15  and  C_8 
REMARK    4  A    between atoms: O_16  and  C_12 
ROOT
ATOM      1  C   UNL d   1      29.996  16.989 -24.272  0.00  0.00     0.116 A 
ATOM      2  C   UNL d   1      31.422  17.036 -24.286  0.00  0.00     0.003 A 
ATOM      3  C   UNL d   1      30.693  17.339 -24.523  0.00  0.00     0.026 A 
ATOM      4  C   UNL d   1      30.016  16.323 -23.774  0.00  0.00     0.116 A 
ATOM      5  C   UNL d   1      30.753  16.021 -23.538  0.00  0.00     0.026 A 
ATOM      6  C   UNL d   1      31.450  16.370 -23.788  0.00  0.00     0.002 A 
ENDROOT
BRANCH   2   7
ATOM      7  C   UNL d   1      32.123  17.388 -24.539  0.00  0.00     0.009 C 
BRANCH   7   8
ATOM      8  C   UNL d   1      32.504  17.933 -24.061  0.00  0.00     0.062 A 
ATOM      9  C   UNL d   1      32.878  18.628 -24.317  0.00  0.00     0.145 A 
ATOM     10  N   UNL d   1      33.187  19.011 -23.655  0.00  0.00    -0.191 NA
ATOM     11  S   UNL d   1      32.927  18.883 -25.097  0.00  0.00    -0.057 SA
ATOM     12  C   UNL d   1      33.006  18.556 -22.988  0.00  0.00     0.311 A 
ATOM     13  S   UNL d   1      32.587  17.896 -23.241  0.00  0.00    -0.023 SA
ATOM     14  O   UNL d   1      33.214  18.740 -22.210  0.00  0.00    -0.258 OA
ENDBRANCH   7   8
ENDBRANCH   2   7
BRANCH   1  15
ATOM     15  O   UNL d   1      29.269  17.299 -24.514  0.00  0.00    -0.326 OA
ATOM     16  C   UNL d   1      29.247  17.994 -24.970  0.00  0.00     0.181 C 
ENDBRANCH   1  15
BRANCH   4  17
ATOM     17  O   UNL d   1      29.325  15.969 -23.520  0.00  0.00    -0.326 OA
ATOM     18  C   UNL d   1      29.333  15.453 -22.876  0.00  0.00     0.181 C 
ENDBRANCH   4  17
TORSDOF 4
ENDMDL
MODEL 2
REMARK VINA RESULT:      -2.5      1.075      2.003
REMARK  4 active torsions:
REMARK  status: ('A' for Active; 'I' for Inactive)
REMARK    1  A    between atoms: C_6  and  C_4 
REMARK    2  A    between atoms: C_9  and  C_6 
REMARK    3  A    between atoms: O_15  and  C_8 
REMARK    4  A    between atoms: O_16  and  C_12 
ROOT
ATOM      1  C   UNL d   1      29.539  16.734 -24.063  0.00  0.00     0.116 A 
ATOM      2  C   UNL d   1      30.924  16.644 -24.394  0.00  0.00     0.003 A 
ATOM      3  C   UNL d   1      30.275  16.394 -23.951  0.00  0.00     0.026 A 
ATOM      4  C   UNL d   1      29.436  17.337 -24.627  0.00  0.00     0.116 A 
ATOM      5  C   UNL d   1      30.092  17.587 -25.072  0.00  0.00     0.026 A 
ATOM      6  C   UNL d   1      30.828  17.247 -24.960  0.00  0.00     0.002 A 
ENDROOT
BRANCH   2   7
ATOM      7  C   UNL d   1      31.665  16.302 -24.281  0.00  0.00     0.009 C 
BRANCH   7   8
ATOM      8  C   UNL d   1      32.209  16.657 -23.782  0.00  0.00     0.062 A 
ATOM      9  C   UNL d   1      32.819  16.271 -23.374  0.00  0.00     0.145 A 
ATOM     10  N   UNL d   1      33.233  16.835 -22.937  0.00  0.00    -0.191 NA
ATOM     11  S   UNL d   1      32.978  15.465 -23.405  0.00  0.00    -0.057 SA
ATOM     12  C   UNL d   1      32.880  17.572 -23.073  0.00  0.00     0.311 A 
ATOM     13  S   UNL d   1      32.253  17.458 -23.591  0.00  0.00    -0.023 SA
ATOM     14  O   UNL d   1      33.122  18.289 -22.742  0.00  0.00    -0.258 OA
ENDBRANCH   7   8
ENDBRANCH   2   7
BRANCH   1  15
ATOM     15  O   UNL d   1      28.894  16.477 -23.614  0.00  0.00    -0.326 OA
ATOM     16  C   UNL d   1      28.893  15.710 -23.294  0.00  0.00     0.181 C 
ENDBRANCH   1  15
BRANCH   4  17
ATOM     17  O   UNL d   1      28.705  17.681 -24.744  0.00  0.00    -0.326 OA
ATOM     18  C   UNL d   1      28.644  18.425 -25.097  0.00  0.00     0.181 C 
ENDBRANCH   4  17
TORSDOF 4
ENDMDL
MODEL 3
REMARK VINA RESULT:      -1.4      1.962      4.413
REMARK  4 active torsions:
REMARK  status: ('A' for Active; 'I' for Inactive)
REMARK    1  A    between atoms: C_6  and  C_4 
REMARK    2  A    between atoms: C_9  and  C_6 
REMARK    3  A    between atoms: O_15  and  C_8 
REMARK    4  A    between atoms: O_16  and  C_12 
ROOT
ATOM      1  C   UNL d   1      33.055  20.467 -22.035  0.00  0.00     0.116 A 
ATOM      2  C   UNL d   1      33.143  19.304 -22.859  0.00  0.00     0.003 A 
ATOM      3  C   UNL d   1      33.052  19.652 -22.117  0.00  0.00     0.026 A 
ATOM      4  C   UNL d   1      33.149  20.954 -22.702  0.00  0.00     0.116 A 
ATOM      5  C   UNL d   1      33.241  20.601 -23.449  0.00  0.00     0.026 A 
ATOM      6  C   UNL d   1      33.238  19.786 -23.530  0.00  0.00     0.002 A 
ENDROOT
BRANCH   2   7
ATOM      7  C   UNL d   1      33.140  18.484 -22.940  0.00  0.00     0.009 C 
BRANCH   7   8
ATOM      8  C   UNL d   1      32.552  18.118 -23.378  0.00  0.00     0.062 A 
ATOM      9  C   UNL d   1      32.463  17.300 -23.483  0.00  0.00     0.145 A 
ATOM     10  N   UNL d   1      31.802  17.174 -23.961  0.00  0.00    -0.191 NA
ATOM     11  S   UNL d   1      32.951  16.721 -23.162  0.00  0.00    -0.057 SA
ATOM     12  C   UNL d   1      31.482  17.912 -24.153  0.00  0.00     0.311 A 
ATOM     13  S   UNL d   1      31.944  18.488 -23.794  0.00  0.00    -0.023 SA
ATOM     14  O   UNL d   1      30.815  18.038 -24.624  0.00  0.00    -0.258 OA
ENDBRANCH   7   8
ENDBRANCH   2   7
BRANCH   1  15
ATOM     15  O   UNL d   1      32.963  20.807 -21.287  0.00  0.00    -0.326 OA
ATOM     16  C   UNL d   1      32.862  20.319 -20.622  0.00  0.00     0.181 C 
ENDBRANCH   1  15
BRANCH   4  17
ATOM     17  O   UNL d   1      33.153  21.768 -22.629  0.00  0.00    -0.326 OA
ATOM     18  C   UNL d   1      33.148  22.248 -23.301  0.00  0.00     0.181 C 
ENDBRANCH   4  17
TORSDOF 4
ENDMDL
MODEL 4
REMARK VINA RESULT:      -1.1      2.109      4.227
REMARK  4 active torsions:
REMARK  status: ('A' for Active; 'I' for Inactive)
REMARK    1  A    between atoms: C_6  and  C_4 
REMARK    2  A    between atoms: C_9  and  C_6 
REMARK    3  A    between atoms: O_15  and  C_8 
REMARK    4  A    between atoms: O_16  and  C_12 
ROOT
ATOM      1  C   UNL d   1      32.908  20.967 -22.142  0.00  0.00     0.116 A 
ATOM      2  C   UNL d   1      33.156  19.730 -22.809  0.00  0.00     0.003 A 
ATOM      3  C   UNL d   1      32.992  20.537 -22.834  0.00  0.00     0.026 A 
ATOM      4  C   UNL d   1      32.988  20.593 -21.404  0.00  0.00     0.116 A 
ATOM      5  C   UNL d   1      33.154  19.779 -21.381  0.00  0.00     0.026 A 
ATOM      6  C   UNL d   1      33.237  19.349 -22.073  0.00  0.00     0.002 A 
ENDROOT
BRANCH   2   7
ATOM      7  C   UNL d   1      33.240  19.298 -23.505  0.00  0.00     0.009 C 
BRANCH   7   8
ATOM      8  C   UNL d   1      32.733  18.675 -23.665  0.00  0.00     0.062 A 
ATOM      9  C   UNL d   1      32.398  18.499 -24.403  0.00  0.00     0.145 A 
ATOM     10  N   UNL d   1      31.924  17.829 -24.316  0.00  0.00    -0.191 NA
ATOM     11  S   UNL d   1      32.521  18.922 -25.097  0.00  0.00    -0.057 SA
ATOM     12  C   UNL d   1      31.964  17.589 -23.524  0.00  0.00     0.311 A 
ATOM     13  S   UNL d   1      32.461  18.111 -23.130  0.00  0.00    -0.023 SA
ATOM     14  O   UNL d   1      31.571  16.940 -23.198  0.00  0.00    -0.258 OA
ENDBRANCH   7   8
ENDBRANCH   2   7
BRANCH   1  15
ATOM     15  O   UNL d   1      32.744  21.777 -22.177  0.00  0.00    -0.326 OA
ATOM     16  C   UNL d   1      32.830  22.185 -22.896  0.00  0.00     0.181 C 
ENDBRANCH   1  15
BRANCH   4  17
ATOM     17  O   UNL d   1      32.906  21.015 -20.709  0.00  0.00    -0.326 OA
ATOM     18  C   UNL d   1      33.238  20.733 -20.007  0.00  0.00     0.181 C 
ENDBRANCH   4  17
TORSDOF 4
ENDMDL
MODEL 5
REMARK VINA RESULT:      -1.1      3.023      3.853
REMARK  4 active torsions:
REMARK  status: ('A' for Active; 'I' for Inactive)
REMARK    1  A    between atoms: C_6  and  C_4 
REMARK    2  A    between atoms: C_9  and  C_6 
REMARK    3  A    between atoms: O_15  and  C_8 
REMARK    4  A    between atoms: O_16  and  C_12 
ROOT
ATOM      1  C   UNL d   1      32.869  18.940 -23.642  0.00  0.00     0.116 A 
ATOM      2  C   UNL d   1      33.147  20.033 -22.767  0.00  0.00     0.003 A 
ATOM      3  C   UNL d   1      32.962  19.744 -23.517  0.00  0.00     0.026 A 
ATOM      4  C   UNL d   1      32.961  18.404 -23.013  0.00  0.00     0.116 A 
ATOM      5  C   UNL d   1      33.148  18.698 -22.259  0.00  0.00     0.026 A 
ATOM      6  C   UNL d   1      33.241  19.502 -22.133  0.00  0.00     0.002 A 
ENDROOT
BRANCH   2   7
ATOM      7  C   UNL d   1      33.241  20.842 -22.641  0.00  0.00     0.009 C 
BRANCH   7   8
ATOM      8  C   UNL d   1      32.809  21.218 -22.056  0.00  0.00     0.062 A 
ATOM      9  C   UNL d   1      32.665  22.033 -22.005  0.00  0.00     0.145 A 
ATOM     10  N   UNL d   1      32.209  22.172 -21.332  0.00  0.00    -0.191 NA
ATOM     11  S   UNL d   1      32.934  22.599 -22.538  0.00  0.00    -0.057 SA
ATOM     12  C   UNL d   1      32.069  21.444 -20.964  0.00  0.00     0.311 A 
ATOM     13  S   UNL d   1      32.439  20.862 -21.411  0.00  0.00    -0.023 SA
ATOM     14  O   UNL d   1      31.635  21.332 -20.271  0.00  0.00    -0.258 OA
ENDBRANCH   7   8
ENDBRANCH   2   7
BRANCH   1  15
ATOM     15  O   UNL d   1      32.683  18.660 -24.397  0.00  0.00    -0.326 OA
ATOM     16  C   UNL d   1      33.047  18.998 -25.064  0.00  0.00     0.181 C 
ENDBRANCH   1  15
BRANCH   4  17
ATOM     17  O   UNL d   1      32.870  17.601 -23.130  0.00  0.00    -0.326 OA
ATOM     18  C   UNL d   1      33.047  17.068 -22.525  0.00  0.00     0.181 C 
ENDBRANCH   4  17
TORSDOF 4
ENDMDL
