MODEL 1
REMARK VINA RESULT:      82.0      0.000      0.000
REMARK  3 active torsions:
REMARK  status: ('A' for Active; 'I' for Inactive)
REMARK    1  A    between atoms: C_6  and  C_2 
REMARK    2  A    between atoms: O_7  and  C_6 
REMARK    3  A    between atoms: C_8  and  O_7 
ROOT
ATOM      1  N   UNL d   1      60.988  46.027  50.612  0.00  0.00    -0.224 NA
ATOM      2  C   UNL d   1      61.424  45.874  49.929  0.00  0.00     0.188 A 
ATOM      3  N   UNL d   1      61.757  46.608  49.670  0.00  0.00    -0.224 NA
ATOM      4  C   UNL d   1      61.051  46.851  50.775  0.00  0.00     0.101 A 
ATOM      5  C   UNL d   1      61.523  47.207  50.198  0.00  0.00     0.101 A 
ATOM      6  C   UNL d   1      60.730  47.306  51.384  0.00  0.00     0.021 A 
ATOM      7  C   UNL d   1      61.673  48.018  50.232  0.00  0.00     0.021 A 
ATOM      8  C   UNL d   1      60.887  48.066  51.392  0.00  0.00     0.002 A 
ATOM      9  C   UNL d   1      61.359  48.423  50.815  0.00  0.00     0.002 A 
ENDROOT
BRANCH   2  10
ATOM     10  C   UNL d   1      61.272  45.087  49.905  0.00  0.00     0.161 C 
BRANCH  10  11
ATOM     11  O   UNL d   1      61.835  44.557  50.188  0.00  0.00    -0.302 OA
BRANCH  11  12
ATOM     12  C   UNL d   1      62.125  43.788  50.251  0.00  0.00     0.100 A 
ATOM     13  C   UNL d   1      62.684  43.511  49.710  0.00  0.00     0.026 A 
ATOM     14  C   UNL d   1      62.973  42.746  49.772  0.00  0.00     0.013 A 
ATOM     15  C   UNL d   1      62.707  42.248  50.376  0.00  0.00     0.058 A 
ATOM     16  C   UNL d   1      62.145  42.528  50.919  0.00  0.00     0.013 A 
ATOM     17 CL   UNL d   1      62.995  41.483  50.439  0.00  0.00    -0.082 Cl
ATOM     18  C   UNL d   1      61.856  43.293  50.857  0.00  0.00     0.026 A 
ENDBRANCH  11  12
ENDBRANCH  10  11
ENDBRANCH   2  10
TORSDOF 3
ENDMDL
MODEL 2
REMARK VINA RESULT:      82.7      7.612      8.034
REMARK  3 active torsions:
REMARK  status: ('A' for Active; 'I' for Inactive)
REMARK    1  A    between atoms: C_6  and  C_2 
REMARK    2  A    between atoms: O_7  and  C_6 
REMARK    3  A    between atoms: C_8  and  O_7 
ROOT
ATOM      1  N   UNL d   1      59.483  38.683  54.977  0.00  0.00    -0.224 NA
ATOM      2  C   UNL d   1      59.241  38.523  54.205  0.00  0.00     0.188 A 
ATOM      3  N   UNL d   1      58.608  39.055  54.021  0.00  0.00    -0.224 NA
ATOM      4  C   UNL d   1      59.004  39.310  55.269  0.00  0.00     0.101 A 
ATOM      5  C   UNL d   1      58.468  39.538  54.684  0.00  0.00     0.101 A 
ATOM      6  C   UNL d   1      59.002  39.692  56.001  0.00  0.00     0.021 A 
ATOM      7  C   UNL d   1      57.931  40.147  54.831  0.00  0.00     0.021 A 
ATOM      8  C   UNL d   1      58.487  40.261  56.113  0.00  0.00     0.002 A 
ATOM      9  C   UNL d   1      57.951  40.489  55.528  0.00  0.00     0.002 A 
ENDROOT
BRANCH   2  10
ATOM     10  C   UNL d   1      59.766  37.932  54.071  0.00  0.00     0.161 C 
BRANCH  10  11
ATOM     11  O   UNL d   1      60.297  37.995  53.446  0.00  0.00    -0.302 OA
BRANCH  11  12
ATOM     12  C   UNL d   1      60.807  37.643  52.900  0.00  0.00     0.100 A 
ATOM     13  C   UNL d   1      61.121  36.896  53.051  0.00  0.00     0.026 A 
ATOM     14  C   UNL d   1      61.627  36.546  52.509  0.00  0.00     0.013 A 
ATOM     15  C   UNL d   1      61.825  36.940  51.810  0.00  0.00     0.058 A 
ATOM     16  C   UNL d   1      61.508  37.691  51.660  0.00  0.00     0.013 A 
ATOM     17 CL   UNL d   1      62.331  36.590  51.268  0.00  0.00    -0.082 Cl
ATOM     18  C   UNL d   1      61.002  38.041  52.202  0.00  0.00     0.026 A 
ENDBRANCH  11  12
ENDBRANCH  10  11
ENDBRANCH   2  10
TORSDOF 3
ENDMDL
MODEL 3
REMARK VINA RESULT:      83.2      4.936      6.870
REMARK  3 active torsions:
REMARK  status: ('A' for Active; 'I' for Inactive)
REMARK    1  A    between atoms: C_6  and  C_2 
REMARK    2  A    between atoms: O_7  and  C_6 
REMARK    3  A    between atoms: C_8  and  O_7 
ROOT
ATOM      1  N   UNL d   1      59.083  40.180  54.110  0.00  0.00    -0.224 NA
ATOM      2  C   UNL d   1      59.839  40.487  54.232  0.00  0.00     0.188 A 
ATOM      3  N   UNL d   1      60.058  40.314  55.032  0.00  0.00    -0.224 NA
ATOM      4  C   UNL d   1      58.836  39.819  54.829  0.00  0.00     0.101 A 
ATOM      5  C   UNL d   1      59.433  39.901  55.394  0.00  0.00     0.101 A 
ATOM      6  C   UNL d   1      58.135  39.429  55.023  0.00  0.00     0.021 A 
ATOM      7  C   UNL d   1      59.328  39.593  56.152  0.00  0.00     0.021 A 
ATOM      8  C   UNL d   1      58.062  39.148  55.744  0.00  0.00     0.002 A 
ATOM      9  C   UNL d   1      58.659  39.230  56.308  0.00  0.00     0.002 A 
ENDROOT
BRANCH   2  10
ATOM     10  C   UNL d   1      59.932  40.783  53.492  0.00  0.00     0.161 C 
BRANCH  10  11
ATOM     11  O   UNL d   1      60.572  41.275  53.330  0.00  0.00    -0.302 OA
BRANCH  11  12
ATOM     12  C   UNL d   1      61.072  41.642  52.787  0.00  0.00     0.100 A 
ATOM     13  C   UNL d   1      60.962  42.437  52.595  0.00  0.00     0.026 A 
ATOM     14  C   UNL d   1      61.460  42.802  52.056  0.00  0.00     0.013 A 
ATOM     15  C   UNL d   1      62.074  42.377  51.701  0.00  0.00     0.058 A 
ATOM     16  C   UNL d   1      62.183  41.578  51.895  0.00  0.00     0.013 A 
ATOM     17 CL   UNL d   1      62.572  42.742  51.161  0.00  0.00    -0.082 Cl
ATOM     18  C   UNL d   1      61.686  41.213  52.435  0.00  0.00     0.026 A 
ENDBRANCH  11  12
ENDBRANCH  10  11
ENDBRANCH   2  10
TORSDOF 3
ENDMDL
