MODEL 1
REMARK VINA RESULT:      10.5      0.000      0.000
REMARK  3 active torsions:
REMARK  status: ('A' for Active; 'I' for Inactive)
REMARK    1  A    between atoms: C_9  and  C_3 
REMARK    2  A    between atoms: N_10  and  C_9 
REMARK    3  A    between atoms: C_11  and  C_9 
ROOT
ATOM      1  C   UNL d   1     -41.709-122.088 -51.815  0.00  0.00     0.075 C 
ENDROOT
BRANCH   1   2
ATOM      2  C   UNL d   1     -41.697-122.429 -52.565  0.00  0.00     0.106 A 
ATOM      3  C   UNL d   1     -42.246-122.290 -53.175  0.00  0.00     0.289 A 
ATOM      4  N   UNL d   1     -42.025-122.742 -53.825  0.00  0.00    -0.169 N 
ATOM      5  O   UNL d   1     -42.897-121.784 -53.131  0.00  0.00    -0.265 OA
ATOM      6  C   UNL d   1     -41.344-123.161 -53.623  0.00  0.00     0.200 A 
ATOM      7  N   UNL d   1     -42.221-122.938 -54.597  0.00  0.00    -0.141 NA
ATOM      8  S   UNL d   1     -41.141-122.970 -52.850  0.00  0.00    -0.042 SA
ATOM      9  N   UNL d   1     -41.123-123.614 -54.274  0.00  0.00    -0.200 NA
ATOM     10  C   UNL d   1     -41.665-123.476 -54.876  0.00  0.00     0.184 A 
ATOM     11  C   UNL d   1     -41.660-123.814 -55.629  0.00  0.00     0.044 C 
ENDBRANCH   1   2
BRANCH   1  12
ATOM     12  N   UNL d   1     -41.867-122.560 -51.160  0.00  0.00    -0.300 N 
ATOM     13  C   UNL d   1     -42.635-122.662 -50.904  0.00  0.00     0.107 A 
ATOM     14  C   UNL d   1     -42.787-123.141 -50.241  0.00  0.00     0.142 A 
ATOM     15  O   UNL d   1     -42.167-123.511 -49.843  0.00  0.00    -0.300 OA
ATOM     16  C   UNL d   1     -41.397-123.396 -50.116  0.00  0.00     0.142 A 
ATOM     17  C   UNL d   1     -41.242-122.923 -50.772  0.00  0.00     0.107 A 
ENDBRANCH   1  12
BRANCH   1  18
ATOM     18  C   UNL d   1     -41.564-121.287 -51.726  0.00  0.00     0.017 A 
ATOM     19  C   UNL d   1     -41.312-120.994 -50.997  0.00  0.00     0.002 A 
ATOM     20  C   UNL d   1     -41.165-120.181 -50.904  0.00  0.00     0.000 A 
ATOM     21  C   UNL d   1     -41.272-119.683 -51.536  0.00  0.00     0.000 A 
ATOM     22  C   UNL d   1     -41.525-119.986 -52.265  0.00  0.00     0.000 A 
ATOM     23  C   UNL d   1     -41.126-118.859 -51.457  0.00  0.00     0.000 C 
ATOM     24  C   UNL d   1     -41.668-120.777 -52.353  0.00  0.00     0.002 A 
ENDBRANCH   1  18
TORSDOF 3
ENDMDL
