MODEL 1
REMARK VINA RESULT:      -4.8      0.000      0.000
REMARK  2 active torsions:
REMARK  status: ('A' for Active; 'I' for Inactive)
REMARK    1  A    between atoms: C_5  and  C_1 
REMARK    2  A    between atoms: O_15  and  C_12 
ROOT
ATOM      1  C   UNL d   1     -41.991-123.166 -49.544  0.00  0.00     0.042 A 
ATOM      2  C   UNL d   1     -41.457-123.096 -48.916  0.00  0.00     0.045 A 
ATOM      3  C   UNL d   1     -42.742-123.481 -49.414  0.00  0.00     0.196 A 
ATOM      4  C   UNL d   1     -42.961-123.725 -48.657  0.00  0.00     0.045 A 
ATOM      5  C   UNL d   1     -41.676-123.341 -48.159  0.00  0.00     0.196 A 
ATOM      6  C   UNL d   1     -42.427-123.655 -48.029  0.00  0.00     0.045 A 
ATOM      7  O   UNL d   1     -43.276-123.551 -50.042  0.00  0.00    -0.287 OA
ATOM      8  O   UNL d   1     -41.142-123.270 -47.531  0.00  0.00    -0.287 OA
ENDROOT
BRANCH   1   9
ATOM      9  C   UNL d   1     -41.772-122.922 -50.301  0.00  0.00     0.003 A 
ATOM     10  C   UNL d   1     -41.972-122.159 -50.556  0.00  0.00     0.002 A 
ATOM     11  C   UNL d   1     -41.756-121.912 -51.311  0.00  0.00     0.024 A 
ATOM     12  C   UNL d   1     -41.341-122.421 -51.814  0.00  0.00     0.094 A 
ATOM     13  C   UNL d   1     -41.143-123.187 -51.550  0.00  0.00     0.024 A 
ATOM     14  C   UNL d   1     -41.362-123.431 -50.793  0.00  0.00     0.002 A 
BRANCH  12  15
ATOM     15  O   UNL d   1     -41.123-122.174 -52.574  0.00  0.00    -0.328 OA
ATOM     16  C   UNL d   1     -41.222-122.684 -53.217  0.00  0.00     0.181 C 
ENDBRANCH  12  15
ENDBRANCH   1   9
TORSDOF 2
ENDMDL
MODEL 2
REMARK VINA RESULT:      -4.5      0.976      3.562
REMARK  2 active torsions:
REMARK  status: ('A' for Active; 'I' for Inactive)
REMARK    1  A    between atoms: C_5  and  C_1 
REMARK    2  A    between atoms: O_15  and  C_12 
ROOT
ATOM      1  C   UNL d   1     -41.531-122.811 -50.987  0.00  0.00     0.042 A 
ATOM      2  C   UNL d   1     -41.496-123.407 -51.559  0.00  0.00     0.045 A 
ATOM      3  C   UNL d   1     -41.363-122.030 -51.193  0.00  0.00     0.196 A 
ATOM      4  C   UNL d   1     -41.160-121.845 -51.971  0.00  0.00     0.045 A 
ATOM      5  C   UNL d   1     -41.293-123.221 -52.337  0.00  0.00     0.196 A 
ATOM      6  C   UNL d   1     -41.125-122.441 -52.543  0.00  0.00     0.045 A 
ATOM      7  O   UNL d   1     -41.397-121.434 -50.621  0.00  0.00    -0.287 OA
ATOM      8  O   UNL d   1     -41.259-123.818 -52.909  0.00  0.00    -0.287 OA
ENDROOT
BRANCH   1   9
ATOM      9  C   UNL d   1     -41.734-122.996 -50.209  0.00  0.00     0.003 A 
ATOM     10  C   UNL d   1     -42.517-122.893 -49.957  0.00  0.00     0.002 A 
ATOM     11  C   UNL d   1     -42.723-123.077 -49.182  0.00  0.00     0.024 A 
ATOM     12  C   UNL d   1     -42.153-123.364 -48.655  0.00  0.00     0.094 A 
ATOM     13  C   UNL d   1     -41.368-123.465 -48.915  0.00  0.00     0.024 A 
ATOM     14  C   UNL d   1     -41.165-123.280 -49.693  0.00  0.00     0.002 A 
BRANCH  12  15
ATOM     15  O   UNL d   1     -42.359-123.550 -47.874  0.00  0.00    -0.328 OA
ATOM     16  C   UNL d   1     -42.143-123.041 -47.259  0.00  0.00     0.181 C 
ENDBRANCH  12  15
ENDBRANCH   1   9
TORSDOF 2
ENDMDL
MODEL 3
REMARK VINA RESULT:      -4.3      1.669      2.979
REMARK  2 active torsions:
REMARK  status: ('A' for Active; 'I' for Inactive)
REMARK    1  A    between atoms: C_5  and  C_1 
REMARK    2  A    between atoms: O_15  and  C_12 
ROOT
ATOM      1  C   UNL d   1     -41.460-122.398 -52.034  0.00  0.00     0.042 A 
ATOM      2  C   UNL d   1     -41.582-123.097 -51.608  0.00  0.00     0.045 A 
ATOM      3  C   UNL d   1     -41.245-121.707 -51.639  0.00  0.00     0.196 A 
ATOM      4  C   UNL d   1     -41.152-121.713 -50.820  0.00  0.00     0.045 A 
ATOM      5  C   UNL d   1     -41.488-123.103 -50.789  0.00  0.00     0.196 A 
ATOM      6  C   UNL d   1     -41.273-122.411 -50.394  0.00  0.00     0.045 A 
ATOM      7  O   UNL d   1     -41.124-121.008 -52.065  0.00  0.00    -0.287 OA
ATOM      8  O   UNL d   1     -41.610-123.802 -50.363  0.00  0.00    -0.287 OA
ENDROOT
BRANCH   1   9
ATOM      9  C   UNL d   1     -41.554-122.392 -52.853  0.00  0.00     0.003 A 
ATOM     10  C   UNL d   1     -41.124-122.929 -53.316  0.00  0.00     0.002 A 
ATOM     11  C   UNL d   1     -41.215-122.925 -54.134  0.00  0.00     0.024 A 
ATOM     12  C   UNL d   1     -41.732-122.390 -54.495  0.00  0.00     0.094 A 
ATOM     13  C   UNL d   1     -42.162-121.853 -54.023  0.00  0.00     0.024 A 
ATOM     14  C   UNL d   1     -42.068-121.859 -53.203  0.00  0.00     0.002 A 
BRANCH  12  15
ATOM     15  O   UNL d   1     -41.825-122.385 -55.318  0.00  0.00    -0.328 OA
ATOM     16  C   UNL d   1     -42.389-121.891 -55.666  0.00  0.00     0.181 C 
ENDBRANCH  12  15
ENDBRANCH   1   9
TORSDOF 2
ENDMDL
MODEL 4
REMARK VINA RESULT:      -4.1      1.429      4.444
REMARK  2 active torsions:
REMARK  status: ('A' for Active; 'I' for Inactive)
REMARK    1  A    between atoms: C_5  and  C_1 
REMARK    2  A    between atoms: O_15  and  C_12 
ROOT
ATOM      1  C   UNL d   1     -41.616-122.474 -53.458  0.00  0.00     0.042 A 
ATOM      2  C   UNL d   1     -41.906-121.780 -53.801  0.00  0.00     0.045 A 
ATOM      3  C   UNL d   1     -41.413-123.117 -53.933  0.00  0.00     0.196 A 
ATOM      4  C   UNL d   1     -41.501-123.066 -54.752  0.00  0.00     0.045 A 
ATOM      5  C   UNL d   1     -41.993-121.730 -54.620  0.00  0.00     0.196 A 
ATOM      6  C   UNL d   1     -41.791-122.373 -55.095  0.00  0.00     0.045 A 
ATOM      7  O   UNL d   1     -41.123-123.811 -53.590  0.00  0.00    -0.287 OA
ATOM      8  O   UNL d   1     -42.284-121.036 -54.964  0.00  0.00    -0.287 OA
ENDROOT
BRANCH   1   9
ATOM      9  C   UNL d   1     -41.528-122.524 -52.639  0.00  0.00     0.003 A 
ATOM     10  C   UNL d   1     -41.764-123.214 -52.246  0.00  0.00     0.002 A 
ATOM     11  C   UNL d   1     -41.678-123.268 -51.429  0.00  0.00     0.024 A 
ATOM     12  C   UNL d   1     -41.358-122.637 -51.001  0.00  0.00     0.094 A 
ATOM     13  C   UNL d   1     -41.123-121.945 -51.403  0.00  0.00     0.024 A 
ATOM     14  C   UNL d   1     -41.210-121.895 -52.221  0.00  0.00     0.002 A 
BRANCH  12  15
ATOM     15  O   UNL d   1     -41.270-122.689 -50.179  0.00  0.00    -0.328 OA
ATOM     16  C   UNL d   1     -41.820-123.117 -49.732  0.00  0.00     0.181 C 
ENDBRANCH  12  15
ENDBRANCH   1   9
TORSDOF 2
ENDMDL
