MODEL 1
REMARK VINA RESULT:      79.5      0.000      0.000
REMARK  3 active torsions:
REMARK  status: ('A' for Active; 'I' for Inactive)
REMARK    1  A    between atoms: N_10  and  C_3 
REMARK    2  A    between atoms: C_11  and  C_5 
REMARK    3  A    between atoms: C_12  and  C_9 
ROOT
ATOM      1  N   UNL d   1     -57.795 -99.161 -44.932  0.00  0.00    -0.196 N 
ATOM      2  C   UNL d   1     -57.326 -99.065 -44.247  0.00  0.00     0.167 A 
ATOM      3  C   UNL d   1     -58.614 -99.177 -44.858  0.00  0.00     0.152 A 
ATOM      4  N   UNL d   1     -56.610 -99.224 -45.735  0.00  0.00    -0.163 NA
ATOM      5  C   UNL d   1     -56.515 -99.048 -44.311  0.00  0.00     0.055 A 
ATOM      6  N   UNL d   1     -57.693 -98.987 -43.513  0.00  0.00    -0.227 NA
ATOM      7  C   UNL d   1     -58.983 -99.096 -44.096  0.00  0.00     0.057 A 
ATOM      8  C   UNL d   1     -56.141 -99.127 -45.050  0.00  0.00     0.104 A 
ATOM      9  C   UNL d   1     -58.507 -99.003 -43.447  0.00  0.00     0.086 A 
ATOM     10  C   UNL d   1     -55.333 -99.110 -45.112  0.00  0.00     0.023 C 
ENDROOT
BRANCH   5  11
ATOM     11  C   UNL d   1     -56.041 -98.950 -43.618  0.00  0.00     0.004 A 
ATOM     12  C   UNL d   1     -56.401 -98.877 -42.882  0.00  0.00     0.000 A 
ATOM     13  C   UNL d   1     -55.934 -98.781 -42.200  0.00  0.00     0.000 A 
ATOM     14  C   UNL d   1     -55.116 -98.759 -42.269  0.00  0.00     0.000 A 
ATOM     15  C   UNL d   1     -54.756 -98.834 -43.015  0.00  0.00     0.000 A 
ATOM     16  C   UNL d   1     -55.223 -98.928 -43.681  0.00  0.00     0.000 A 
ENDBRANCH   5  11
BRANCH   3  17
ATOM     17  N   UNL d   1     -59.100 -99.276 -45.559  0.00  0.00    -0.289 N 
ATOM     18  C   UNL d   1     -59.517 -99.897 -45.630  0.00  0.00     0.082 A 
ATOM     19  C   UNL d   1     -59.944 -99.977 -46.252  0.00  0.00     0.021 A 
ATOM     20  C   UNL d   1     -59.526 -98.835 -46.696  0.00  0.00     0.021 A 
ATOM     21  C   UNL d   1     -59.100 -98.755 -46.074  0.00  0.00     0.082 A 
ENDBRANCH   3  17
BRANCH   9  22
ATOM     22  C   UNL d   1     -58.888 -98.920 -42.670  0.00  0.00     0.018 C 
ATOM     23  C   UNL d   1     -59.758 -98.930 -42.620  0.00  0.00     0.002 C 
ATOM     24  C   UNL d   1     -58.408 -98.829 -41.957  0.00  0.00     0.002 C 
ENDBRANCH   9  22
TORSDOF 3
ENDMDL
