MODEL 1
REMARK VINA RESULT:      51.4      0.000      0.000
REMARK  4 active torsions:
REMARK  status: ('A' for Active; 'I' for Inactive)
REMARK    1  A    between atoms: C_2  and  S_1 
REMARK    2  A    between atoms: N_3  and  S_1 
REMARK    3  A    between atoms: C_7  and  N_4 
REMARK    4  A    between atoms: O_16  and  C_13 
ROOT
ATOM      1  N   UNL d   1      14.899  13.298  -0.931  0.00  0.00    -0.226 N 
ATOM      2  N   UNL d   1      14.883  14.818  -1.587  0.00  0.00    -0.300 N 
ATOM      3  C   UNL d   1      14.651  13.945  -0.462  0.00  0.00     0.111 A 
ATOM      4  C   UNL d   1      15.132  13.412  -1.708  0.00  0.00     0.111 A 
ATOM      5  C   UNL d   1      15.124  14.174  -2.037  0.00  0.00     0.100 A 
ATOM      6  C   UNL d   1      14.652  14.697  -0.814  0.00  0.00     0.100 A 
ENDROOT
BRANCH   1   7
ATOM      7  S   UNL d   1      14.907  12.541  -0.604  0.00  0.00     0.274 S 
ATOM      8  O   UNL d   1      15.461  12.802  -0.014  0.00  0.00    -0.200 OA
ATOM      9  O   UNL d   1      14.915  11.779  -0.275  0.00  0.00    -0.200 OA
BRANCH   7  10
ATOM     10  C   UNL d   1      14.366  12.287  -1.180  0.00  0.00     0.131 A 
ATOM     11  C   UNL d   1      13.594  12.118  -0.970  0.00  0.00     0.152 A 
ATOM     12  F   UNL d   1      13.341  12.199  -0.177  0.00  0.00    -0.203 F 
ATOM     13  C   UNL d   1      13.056  11.865  -1.542  0.00  0.00     0.030 A 
ATOM     14  C   UNL d   1      13.287  11.779  -2.327  0.00  0.00     0.002 A 
ATOM     15  C   UNL d   1      14.063  11.951  -2.527  0.00  0.00     0.001 A 
ATOM     16  C   UNL d   1      14.601  12.204  -1.955  0.00  0.00     0.015 A 
ENDBRANCH   7  10
ENDBRANCH   1   7
BRANCH   2  17
ATOM     17  C   UNL d   1      14.883  15.561  -1.934  0.00  0.00     0.086 A 
ATOM     18  C   UNL d   1      14.656  15.623  -2.741  0.00  0.00     0.110 A 
ATOM     19  C   UNL d   1      14.658  16.373  -3.086  0.00  0.00     0.026 A 
ATOM     20  C   UNL d   1      14.868  17.040  -2.677  0.00  0.00     0.002 A 
ATOM     21  C   UNL d   1      15.087  16.976  -1.895  0.00  0.00     0.002 A 
ATOM     22  C   UNL d   1      15.095  16.239  -1.525  0.00  0.00     0.019 A 
BRANCH  18  23
ATOM     23  O   UNL d   1      14.437  14.935  -3.172  0.00  0.00    -0.327 OA
ATOM     24  C   UNL d   1      13.806  14.974  -3.687  0.00  0.00     0.181 C 
ENDBRANCH  18  23
ENDBRANCH   2  17
TORSDOF 4
ENDMDL
MODEL 2
REMARK VINA RESULT:      51.5      1.875      3.945
REMARK  4 active torsions:
REMARK  status: ('A' for Active; 'I' for Inactive)
REMARK    1  A    between atoms: C_2  and  S_1 
REMARK    2  A    between atoms: N_3  and  S_1 
REMARK    3  A    between atoms: C_7  and  N_4 
REMARK    4  A    between atoms: O_16  and  C_13 
ROOT
ATOM      1  N   UNL d   1      15.200  15.637  -0.825  0.00  0.00    -0.226 N 
ATOM      2  N   UNL d   1      14.607  14.107  -0.613  0.00  0.00    -0.300 N 
ATOM      3  C   UNL d   1      15.340  15.239  -0.102  0.00  0.00     0.111 A 
ATOM      4  C   UNL d   1      14.774  15.276  -1.424  0.00  0.00     0.111 A 
ATOM      5  C   UNL d   1      14.477  14.509  -1.318  0.00  0.00     0.100 A 
ATOM      6  C   UNL d   1      15.033  14.472  -0.020  0.00  0.00     0.100 A 
ENDROOT
BRANCH   1   7
ATOM      7  S   UNL d   1      15.496  16.400  -0.930  0.00  0.00     0.274 S 
ATOM      8  O   UNL d   1      15.722  16.425  -0.111  0.00  0.00    -0.200 OA
ATOM      9  O   UNL d   1      15.793  17.168  -1.036  0.00  0.00    -0.200 OA
BRANCH   7  10
ATOM     10  C   UNL d   1      15.275  16.375  -1.729  0.00  0.00     0.131 A 
ATOM     11  C   UNL d   1      14.675  16.859  -2.004  0.00  0.00     0.152 A 
ATOM     12  F   UNL d   1      14.279  17.382  -1.485  0.00  0.00    -0.203 F 
ATOM     13  C   UNL d   1      14.455  16.835  -2.799  0.00  0.00     0.030 A 
ATOM     14  C   UNL d   1      14.834  16.326  -3.324  0.00  0.00     0.002 A 
ATOM     15  C   UNL d   1      15.434  15.845  -3.039  0.00  0.00     0.001 A 
ATOM     16  C   UNL d   1      15.653  15.870  -2.244  0.00  0.00     0.015 A 
ENDBRANCH   7  10
ENDBRANCH   1   7
BRANCH   2  17
ATOM     17  C   UNL d   1      14.303  13.349  -0.532  0.00  0.00     0.086 A 
ATOM     18  C   UNL d   1      14.701  12.717  -0.918  0.00  0.00     0.110 A 
ATOM     19  C   UNL d   1      14.392  11.956  -0.833  0.00  0.00     0.026 A 
ATOM     20  C   UNL d   1      13.728  11.803  -0.396  0.00  0.00     0.002 A 
ATOM     21  C   UNL d   1      13.345  12.417  -0.023  0.00  0.00     0.002 A 
ATOM     22  C   UNL d   1      13.631  13.188  -0.091  0.00  0.00     0.019 A 
BRANCH  18  23
ATOM     23  O   UNL d   1      15.392  12.870  -1.373  0.00  0.00    -0.327 OA
ATOM     24  C   UNL d   1      15.909  12.258  -1.526  0.00  0.00     0.181 C 
ENDBRANCH  18  23
ENDBRANCH   2  17
TORSDOF 4
ENDMDL
MODEL 3
REMARK VINA RESULT:      51.8      1.202      2.386
REMARK  4 active torsions:
REMARK  status: ('A' for Active; 'I' for Inactive)
REMARK    1  A    between atoms: C_2  and  S_1 
REMARK    2  A    between atoms: N_3  and  S_1 
REMARK    3  A    between atoms: C_7  and  N_4 
REMARK    4  A    between atoms: O_16  and  C_13 
ROOT
ATOM      1  N   UNL d   1      14.295  12.971  -2.284  0.00  0.00    -0.226 N 
ATOM      2  N   UNL d   1      13.813  14.077  -3.418  0.00  0.00    -0.300 N 
ATOM      3  C   UNL d   1      14.846  13.532  -2.570  0.00  0.00     0.111 A 
ATOM      4  C   UNL d   1      13.524  12.966  -2.560  0.00  0.00     0.111 A 
ATOM      5  C   UNL d   1      13.282  13.520  -3.128  0.00  0.00     0.100 A 
ATOM      6  C   UNL d   1      14.580  14.076  -3.138  0.00  0.00     0.100 A 
ENDROOT
BRANCH   1   7
ATOM      7  S   UNL d   1      14.536  12.420  -1.719  0.00  0.00     0.274 S 
ATOM      8  O   UNL d   1      14.342  11.788  -2.253  0.00  0.00    -0.200 OA
ATOM      9  O   UNL d   1      14.778  11.866  -1.151  0.00  0.00    -0.200 OA
BRANCH   7  10
ATOM     10  C   UNL d   1      14.725  13.038  -1.198  0.00  0.00     0.131 A 
ATOM     11  C   UNL d   1      14.262  13.172  -0.536  0.00  0.00     0.152 A 
ATOM     12  F   UNL d   1      13.596  12.692  -0.378  0.00  0.00    -0.203 F 
ATOM     13  C   UNL d   1      14.451  13.786  -0.018  0.00  0.00     0.030 A 
ATOM     14  C   UNL d   1      15.102  14.269  -0.158  0.00  0.00     0.002 A 
ATOM     15  C   UNL d   1      15.559  14.126  -0.823  0.00  0.00     0.001 A 
ATOM     16  C   UNL d   1      15.371  13.512  -1.342  0.00  0.00     0.015 A 
ENDBRANCH   7  10
ENDBRANCH   1   7
BRANCH   2  17
ATOM     17  C   UNL d   1      13.551  14.614  -3.979  0.00  0.00     0.086 A 
ATOM     18  C   UNL d   1      13.837  15.404  -3.938  0.00  0.00     0.110 A 
ATOM     19  C   UNL d   1      13.570  15.941  -4.505  0.00  0.00     0.026 A 
ATOM     20  C   UNL d   1      13.050  15.735  -5.090  0.00  0.00     0.002 A 
ATOM     21  C   UNL d   1      12.775  14.969  -5.127  0.00  0.00     0.002 A 
ATOM     22  C   UNL d   1      13.024  14.411  -4.574  0.00  0.00     0.019 A 
BRANCH  18  23
ATOM     23  O   UNL d   1      14.377  15.625  -3.332  0.00  0.00    -0.327 OA
ATOM     24  C   UNL d   1      14.763  16.341  -3.388  0.00  0.00     0.181 C 
ENDBRANCH  18  23
ENDBRANCH   2  17
TORSDOF 4
ENDMDL
