MODEL 1
REMARK VINA RESULT:      -4.2      0.000      0.000
REMARK  4 active torsions:
REMARK  status: ('A' for Active; 'I' for Inactive)
REMARK    1  A    between atoms: C_11  and  N_2 
REMARK    2  A    between atoms: C_12  and  C_6 
REMARK    3  A    between atoms: C_15  and  C_11 
REMARK    4  A    between atoms: O_29  and  C_24 
ROOT
ATOM      1  C   UNL d   1      57.984  -0.710  30.449  0.00  0.00     0.137 A 
ATOM      2  N   UNL d   1      58.927  -1.198  29.497  0.00  0.00    -0.256 N 
ATOM      3  C   UNL d   1      57.866  -1.480  30.731  0.00  0.00     0.192 A 
ATOM      4  C   UNL d   1      58.514  -0.569  29.832  0.00  0.00     0.272 A 
ATOM      5  N   UNL d   1      58.277  -2.106  30.399  0.00  0.00    -0.204 NA
ATOM      6  C   UNL d   1      58.813  -1.968  29.777  0.00  0.00     0.152 A 
ATOM      7  C   UNL d   1      57.568  -0.082  30.787  0.00  0.00     0.205 A 
ATOM      8  C   UNL d   1      57.044  -0.217  31.395  0.00  0.00     0.062 A 
ATOM      9  O   UNL d   1      57.337  -1.613  31.345  0.00  0.00    -0.289 OA
ATOM     10  C   UNL d   1      56.925  -0.982  31.679  0.00  0.00     0.107 A 
ATOM     11  C   UNL d   1      56.389  -1.119  32.301  0.00  0.00     0.049 A 
ATOM     12  C   UNL d   1      56.628   0.415  31.732  0.00  0.00     0.007 A 
ATOM     13  O   UNL d   1      58.627   0.197  29.555  0.00  0.00    -0.266 OA
ATOM     14  O   UNL d   1      57.687   0.682  30.504  0.00  0.00    -0.286 OA
ATOM     15  C   UNL d   1      55.979  -0.489  32.632  0.00  0.00     0.096 A 
ATOM     16  C   UNL d   1      56.098   0.274  32.349  0.00  0.00     0.024 A 
ENDROOT
BRANCH   6  17
ATOM     17  C   UNL d   1      59.226  -2.600  29.443  0.00  0.00     0.035 A 
ATOM     18  C   UNL d   1      58.926  -2.981  28.779  0.00  0.00     0.003 A 
ATOM     19  C   UNL d   1      59.346  -3.610  28.456  0.00  0.00     0.000 A 
ATOM     20  C   UNL d   1      60.056  -3.858  28.788  0.00  0.00     0.000 A 
ATOM     21  C   UNL d   1      60.351  -3.469  29.456  0.00  0.00     0.000 A 
ATOM     22  C   UNL d   1      60.470  -4.488  28.458  0.00  0.00     0.000 C 
ATOM     23  C   UNL d   1      59.937  -2.839  29.785  0.00  0.00     0.003 A 
ENDBRANCH   6  17
BRANCH   2  24
ATOM     24  C   UNL d   1      59.457  -1.056  28.881  0.00  0.00     0.109 C 
BRANCH  24  25
ATOM     25  C   UNL d   1      60.065  -0.488  28.969  0.00  0.00     0.118 A 
ATOM     26  O   UNL d   1      60.624  -0.469  29.573  0.00  0.00    -0.304 OA
ATOM     27  C   UNL d   1      61.118   0.188  29.441  0.00  0.00     0.123 A 
ATOM     28  C   UNL d   1      60.857   0.574  28.748  0.00  0.00     0.029 A 
ATOM     29  C   UNL d   1      60.198   0.149  28.455  0.00  0.00     0.028 A 
ENDBRANCH  24  25
ENDBRANCH   2  24
BRANCH  15  30
ATOM     30  O   UNL d   1      55.451  -0.615  33.243  0.00  0.00    -0.328 OA
ATOM     31  C   UNL d   1      55.405  -0.070  33.858  0.00  0.00     0.181 C 
ENDBRANCH  15  30
TORSDOF 4
ENDMDL
MODEL 2
REMARK VINA RESULT:      -1.9      1.188      2.676
REMARK  4 active torsions:
REMARK  status: ('A' for Active; 'I' for Inactive)
REMARK    1  A    between atoms: C_11  and  N_2 
REMARK    2  A    between atoms: C_12  and  C_6 
REMARK    3  A    between atoms: C_15  and  C_11 
REMARK    4  A    between atoms: O_29  and  C_24 
ROOT
ATOM      1  C   UNL d   1      57.331  -0.746  31.282  0.00  0.00     0.137 A 
ATOM      2  N   UNL d   1      58.139  -0.930  30.122  0.00  0.00    -0.256 N 
ATOM      3  C   UNL d   1      57.785  -0.088  31.497  0.00  0.00     0.192 A 
ATOM      4  C   UNL d   1      57.508  -1.167  30.594  0.00  0.00     0.272 A 
ATOM      5  N   UNL d   1      58.413   0.149  31.028  0.00  0.00    -0.204 NA
ATOM      6  C   UNL d   1      58.594  -0.273  30.334  0.00  0.00     0.152 A 
ATOM      7  C   UNL d   1      56.698  -0.982  31.758  0.00  0.00     0.205 A 
ATOM      8  C   UNL d   1      56.521  -0.569  32.437  0.00  0.00     0.062 A 
ATOM      9  O   UNL d   1      57.602   0.326  32.183  0.00  0.00    -0.289 OA
ATOM     10  C   UNL d   1      56.970   0.087  32.655  0.00  0.00     0.107 A 
ATOM     11  C   UNL d   1      56.787   0.508  33.349  0.00  0.00     0.049 A 
ATOM     12  C   UNL d   1      55.886  -0.808  32.912  0.00  0.00     0.007 A 
ATOM     13  O   UNL d   1      57.055  -1.821  30.385  0.00  0.00    -0.266 OA
ATOM     14  O   UNL d   1      56.250  -1.637  31.541  0.00  0.00    -0.286 OA
ATOM     15  C   UNL d   1      56.157   0.268  33.817  0.00  0.00     0.096 A 
ATOM     16  C   UNL d   1      55.709  -0.387  33.600  0.00  0.00     0.024 A 
ENDROOT
BRANCH   6  17
ATOM     17  C   UNL d   1      59.228  -0.032  29.862  0.00  0.00     0.035 A 
ATOM     18  C   UNL d   1      59.086   0.353  29.149  0.00  0.00     0.003 A 
ATOM     19  C   UNL d   1      59.725   0.588  28.688  0.00  0.00     0.000 A 
ATOM     20  C   UNL d   1      60.496   0.442  28.931  0.00  0.00     0.000 A 
ATOM     21  C   UNL d   1      60.631   0.054  29.649  0.00  0.00     0.000 A 
ATOM     22  C   UNL d   1      61.130   0.680  28.463  0.00  0.00     0.000 C 
ATOM     23  C   UNL d   1      59.997  -0.184  30.116  0.00  0.00     0.003 A 
ENDBRANCH   6  17
BRANCH   2  24
ATOM     24  C   UNL d   1      58.316  -1.351  29.435  0.00  0.00     0.109 C 
BRANCH  24  25
ATOM     25  C   UNL d   1      58.569  -2.146  29.481  0.00  0.00     0.118 A 
ATOM     26  O   UNL d   1      59.004  -2.480  30.096  0.00  0.00    -0.304 OA
ATOM     27  C   UNL d   1      59.132  -3.281  29.911  0.00  0.00     0.123 A 
ATOM     28  C   UNL d   1      58.772  -3.439  29.175  0.00  0.00     0.029 A 
ATOM     29  C   UNL d   1      58.421  -2.727  28.908  0.00  0.00     0.028 A 
ENDBRANCH  24  25
ENDBRANCH   2  24
BRANCH  15  30
ATOM     30  O   UNL d   1      55.970   0.676  34.501  0.00  0.00    -0.328 OA
ATOM     31  C   UNL d   1      55.284   0.485  34.912  0.00  0.00     0.181 C 
ENDBRANCH  15  30
TORSDOF 4
ENDMDL
