MODEL 1
REMARK VINA RESULT:      -6.4      0.000      0.000
REMARK  4 active torsions:
REMARK  status: ('A' for Active; 'I' for Inactive)
REMARK       I    between atoms: N_2  and  C_1 
REMARK    1  A    between atoms: O_3  and  C_1 
REMARK    2  A    between atoms: C_5  and  O_3 
REMARK    3  A    between atoms: O_8  and  C_7 
REMARK    4  A    between atoms: C_10  and  O_8 
ROOT
ATOM      1  C   UNL d   1     -41.172-122.833 -51.655  0.00  0.00     0.107 A 
ATOM      2  C   UNL d   1     -41.170-122.236 -52.225  0.00  0.00     0.050 A 
ATOM      3  C   UNL d   1     -41.146-122.430 -53.028  0.00  0.00     0.102 A 
ATOM      4  C   UNL d   1     -41.124-123.818 -52.693  0.00  0.00     0.004 A 
ATOM      5  C   UNL d   1     -41.149-123.624 -51.889  0.00  0.00     0.025 A 
ATOM      6  C   UNL d   1     -41.123-123.220 -53.262  0.00  0.00     0.025 A 
ENDROOT
BRANCH   1   7
ATOM      7  O   UNL d   1     -41.196-122.639 -50.852  0.00  0.00    -0.259 OA
BRANCH   7   8
ATOM      8  C   UNL d   1     -41.902-122.652 -50.432  0.00  0.00     0.378 C 
ATOM      9  N   UNL d   1     -41.920-122.854 -49.622  0.00  0.00    -0.247 N 
ATOM     10  C   UNL d   1     -41.208-123.045 -49.236  0.00  0.00     0.112 A 
ATOM     11  C   UNL d   1     -42.637-122.864 -49.210  0.00  0.00     0.112 A 
ATOM     12  C   UNL d   1     -41.218-123.247 -48.434  0.00  0.00     0.142 A 
ATOM     13  O   UNL d   1     -41.930-123.259 -48.014  0.00  0.00    -0.300 OA
ATOM     14  C   UNL d   1     -42.646-123.065 -48.408  0.00  0.00     0.142 A 
ATOM     15  O   UNL d   1     -42.625-122.454 -50.838  0.00  0.00    -0.237 OA
ENDBRANCH   7   8
ENDBRANCH   1   7
BRANCH   3  16
ATOM     16  O   UNL d   1     -41.144-121.833 -53.597  0.00  0.00    -0.307 OA
BRANCH  16  17
ATOM     17  C   UNL d   1     -41.635-121.891 -54.260  0.00  0.00     0.100 A 
ATOM     18  C   UNL d   1     -42.447-121.764 -54.186  0.00  0.00     0.025 A 
ATOM     19  C   UNL d   1     -42.937-121.823 -54.849  0.00  0.00     0.002 A 
ATOM     20  C   UNL d   1     -42.616-122.009 -55.586  0.00  0.00     0.000 A 
ATOM     21  C   UNL d   1     -41.799-122.136 -55.653  0.00  0.00     0.002 A 
ATOM     22  C   UNL d   1     -41.314-122.077 -54.997  0.00  0.00     0.025 A 
ENDBRANCH  16  17
ENDBRANCH   3  16
TORSDOF 4
ENDMDL
MODEL 2
REMARK VINA RESULT:      -5.6      1.397      4.913
REMARK  4 active torsions:
REMARK  status: ('A' for Active; 'I' for Inactive)
REMARK       I    between atoms: N_2  and  C_1 
REMARK    1  A    between atoms: O_3  and  C_1 
REMARK    2  A    between atoms: C_5  and  O_3 
REMARK    3  A    between atoms: O_8  and  C_7 
REMARK    4  A    between atoms: C_10  and  O_8 
ROOT
ATOM      1  C   UNL d   1     -41.189-122.372 -52.009  0.00  0.00     0.107 A 
ATOM      2  C   UNL d   1     -41.251-123.047 -51.538  0.00  0.00     0.050 A 
ATOM      3  C   UNL d   1     -41.248-122.979 -50.714  0.00  0.00     0.102 A 
ATOM      4  C   UNL d   1     -41.123-121.561 -50.831  0.00  0.00     0.004 A 
ATOM      5  C   UNL d   1     -41.125-121.629 -51.655  0.00  0.00     0.025 A 
ATOM      6  C   UNL d   1     -41.184-122.236 -50.361  0.00  0.00     0.025 A 
ENDROOT
BRANCH   1   7
ATOM      7  O   UNL d   1     -41.192-122.440 -52.833  0.00  0.00    -0.259 OA
BRANCH   7   8
ATOM      8  C   UNL d   1     -41.783-122.095 -53.287  0.00  0.00     0.378 C 
ATOM      9  N   UNL d   1     -41.812-122.204 -54.114  0.00  0.00    -0.247 N 
ATOM     10  C   UNL d   1     -41.231-122.671 -54.482  0.00  0.00     0.112 A 
ATOM     11  C   UNL d   1     -42.413-121.851 -54.561  0.00  0.00     0.112 A 
ATOM     12  C   UNL d   1     -41.253-122.783 -55.301  0.00  0.00     0.142 A 
ATOM     13  O   UNL d   1     -41.850-122.434 -55.756  0.00  0.00    -0.300 OA
ATOM     14  C   UNL d   1     -42.435-121.963 -55.379  0.00  0.00     0.142 A 
ATOM     15  O   UNL d   1     -42.374-121.618 -52.898  0.00  0.00    -0.237 OA
ENDBRANCH   7   8
ENDBRANCH   1   7
BRANCH   3  16
ATOM     16  O   UNL d   1     -41.310-123.654 -50.244  0.00  0.00    -0.307 OA
BRANCH  16  17
ATOM     17  C   UNL d   1     -41.885-123.695 -49.651  0.00  0.00     0.100 A 
ATOM     18  C   UNL d   1     -42.681-123.777 -49.853  0.00  0.00     0.025 A 
ATOM     19  C   UNL d   1     -43.256-123.817 -49.261  0.00  0.00     0.002 A 
ATOM     20  C   UNL d   1     -43.036-123.776 -48.467  0.00  0.00     0.000 A 
ATOM     21  C   UNL d   1     -42.234-123.694 -48.272  0.00  0.00     0.002 A 
ATOM     22  C   UNL d   1     -41.665-123.654 -48.858  0.00  0.00     0.025 A 
ENDBRANCH  16  17
ENDBRANCH   3  16
TORSDOF 4
ENDMDL
