MODEL 1
REMARK VINA RESULT:      27.8      0.000      0.000
REMARK  4 active torsions:
REMARK  status: ('A' for Active; 'I' for Inactive)
REMARK    1  A    between atoms: N_2  and  C_1 
REMARK    2  A    between atoms: C_3  and  C_1 
REMARK       I    between atoms: C_6  and  N_2 
REMARK       I    between atoms: N_8  and  C_6 
REMARK    3  A    between atoms: N_11  and  C_7 
REMARK    4  A    between atoms: C_9  and  N_8 
ROOT
ATOM      1  N   UNL d   1      46.279 -17.212  43.640  0.00  0.00    -0.159 NA
ATOM      2  C   UNL d   1      46.165 -16.402  43.531  0.00  0.00     0.370 C 
ATOM      3  N   UNL d   1      46.270 -15.891  44.162  0.00  0.00    -0.172 NA
ATOM      4  O   UNL d   1      45.946 -16.108  42.792  0.00  0.00    -0.243 OA
ENDROOT
BRANCH   1   5
ATOM      5  C   UNL d   1      46.284 -17.972  43.342  0.00  0.00     0.386 A 
ATOM      6  O   UNL d   1      46.413 -17.561  42.637  0.00  0.00    -0.283 OA
ATOM      7  C   UNL d   1      46.479 -18.105  42.021  0.00  0.00     0.121 A 
ATOM      8  C   UNL d   1      46.608 -18.012  41.212  0.00  0.00     0.026 A 
ATOM      9  C   UNL d   1      46.389 -18.861  42.346  0.00  0.00     0.121 A 
ATOM     10  C   UNL d   1      46.647 -18.673  40.727  0.00  0.00     0.002 A 
ATOM     11  C   UNL d   1      46.557 -19.435  41.048  0.00  0.00     0.002 A 
ATOM     12  C   UNL d   1      46.429 -19.520  41.857  0.00  0.00     0.026 A 
ATOM     13  O   UNL d   1      46.270 -18.778  43.152  0.00  0.00    -0.283 OA
BRANCH   5  14
ATOM     14  C   UNL d   1      46.153 -18.275  44.097  0.00  0.00     0.470 C 
ATOM     15  F   UNL d   1      45.516 -18.112  44.647  0.00  0.00    -0.164 F 
ATOM     16  F   UNL d   1      46.628 -18.846  44.543  0.00  0.00    -0.164 F 
ATOM     17  F   UNL d   1      46.039 -18.555  44.785  0.00  0.00    -0.164 F 
ENDBRANCH   5  14
ENDBRANCH   1   5
BRANCH   3  18
ATOM     18  C   UNL d   1      46.207 -15.068  44.260  0.00  0.00     0.172 A 
ATOM     19  C   UNL d   1      45.719 -14.636  43.765  0.00  0.00     0.076 A 
ATOM     20  C   UNL d   1      45.652 -13.818  43.857  0.00  0.00     0.153 A 
ATOM     21  N   UNL d   1      46.087 -13.436  44.460  0.00  0.00    -0.206 NA
ATOM     22  C   UNL d   1      46.577 -13.877  44.955  0.00  0.00     0.202 A 
ATOM     23  N   UNL d   1      46.642 -14.693  44.860  0.00  0.00    -0.205 NA
BRANCH  20  24
ATOM     24  N   UNL d   1      45.162 -13.377  43.362  0.00  0.00    -0.285 N 
ATOM     25  C   UNL d   1      45.490 -12.919  42.764  0.00  0.00     0.108 A 
ATOM     26  C   UNL d   1      44.989 -12.481  42.274  0.00  0.00     0.142 A 
ATOM     27  O   UNL d   1      44.175 -12.500  42.379  0.00  0.00    -0.300 OA
ATOM     28  C   UNL d   1      43.854 -12.961  42.981  0.00  0.00     0.142 A 
ATOM     29  C   UNL d   1      44.343 -13.403  43.477  0.00  0.00     0.108 A 
ENDBRANCH  20  24
ENDBRANCH   3  18
TORSDOF 4
ENDMDL
MODEL 2
REMARK VINA RESULT:      28.3      1.827      5.206
REMARK  4 active torsions:
REMARK  status: ('A' for Active; 'I' for Inactive)
REMARK    1  A    between atoms: N_2  and  C_1 
REMARK    2  A    between atoms: C_3  and  C_1 
REMARK       I    between atoms: C_6  and  N_2 
REMARK       I    between atoms: N_8  and  C_6 
REMARK    3  A    between atoms: N_11  and  C_7 
REMARK    4  A    between atoms: C_9  and  N_8 
ROOT
ATOM      1  N   UNL d   1      45.754 -14.754  43.828  0.00  0.00    -0.159 NA
ATOM      2  C   UNL d   1      45.704 -15.507  44.162  0.00  0.00     0.370 C 
ATOM      3  N   UNL d   1      46.094 -16.133  43.806  0.00  0.00    -0.172 NA
ATOM      4  O   UNL d   1      45.265 -15.629  44.849  0.00  0.00    -0.243 OA
ENDROOT
BRANCH   1   5
ATOM      5  C   UNL d   1      45.559 -13.961  43.839  0.00  0.00     0.386 A 
ATOM      6  O   UNL d   1      45.024 -14.212  43.262  0.00  0.00    -0.283 OA
ATOM      7  C   UNL d   1      44.587 -13.562  43.004  0.00  0.00     0.121 A 
ATOM      8  C   UNL d   1      43.987 -13.486  42.445  0.00  0.00     0.026 A 
ATOM      9  C   UNL d   1      44.853 -12.901  43.425  0.00  0.00     0.121 A 
ATOM     10  C   UNL d   1      43.651 -12.750  42.306  0.00  0.00     0.002 A 
ATOM     11  C   UNL d   1      43.913 -12.083  42.726  0.00  0.00     0.002 A 
ATOM     12  C   UNL d   1      44.514 -12.166  43.283  0.00  0.00     0.026 A 
ATOM     13  O   UNL d   1      45.446 -13.146  43.935  0.00  0.00    -0.283 OA
BRANCH   5  14
ATOM     14  C   UNL d   1      46.127 -13.824  44.421  0.00  0.00     0.470 C 
ATOM     15  F   UNL d   1      46.422 -13.082  44.731  0.00  0.00    -0.164 F 
ATOM     16  F   UNL d   1      46.585 -14.401  44.879  0.00  0.00    -0.164 F 
ATOM     17  F   UNL d   1      46.646 -13.706  44.952  0.00  0.00    -0.164 F 
ENDBRANCH   5  14
ENDBRANCH   1   5
BRANCH   3  18
ATOM     18  C   UNL d   1      46.170 -16.943  43.976  0.00  0.00     0.172 A 
ATOM     19  C   UNL d   1      46.215 -17.484  43.364  0.00  0.00     0.076 A 
ATOM     20  C   UNL d   1      46.290 -18.291  43.526  0.00  0.00     0.153 A 
ATOM     21  N   UNL d   1      46.319 -18.548  44.320  0.00  0.00    -0.206 NA
ATOM     22  C   UNL d   1      46.274 -17.997  44.932  0.00  0.00     0.202 A 
ATOM     23  N   UNL d   1      46.199 -17.194  44.767  0.00  0.00    -0.205 NA
BRANCH  20  24
ATOM     24  N   UNL d   1      46.336 -18.841  42.914  0.00  0.00    -0.285 N 
ATOM     25  C   UNL d   1      46.563 -18.600  42.163  0.00  0.00     0.108 A 
ATOM     26  C   UNL d   1      46.605 -19.160  41.558  0.00  0.00     0.142 A 
ATOM     27  O   UNL d   1      46.424 -19.949  41.699  0.00  0.00    -0.300 OA
ATOM     28  C   UNL d   1      46.197 -20.183  42.455  0.00  0.00     0.142 A 
ATOM     29  C   UNL d   1      46.151 -19.633  43.068  0.00  0.00     0.108 A 
ENDBRANCH  20  24
ENDBRANCH   3  18
TORSDOF 4
ENDMDL
