MODEL 1
REMARK VINA RESULT:      86.0      0.000      0.000
REMARK  7 active torsions:
REMARK  status: ('A' for Active; 'I' for Inactive)
REMARK    1  A    between atoms: C_5  and  C_1 
REMARK    2  A    between atoms: N_6  and  C_2 
REMARK       I    between atoms: N_10  and  C_5 
REMARK    3  A    between atoms: C_20  and  N_6 
REMARK    4  A    between atoms: C_9  and  C_12 
REMARK    5  A    between atoms: C_22  and  N_10 
REMARK    6  A    between atoms: C_11  and  C_22 
REMARK    7  A    between atoms: O_30  and  C_25 
ROOT
ATOM      1  C   UNL d   1     -50.123  27.127  34.540  0.00  0.00     0.099 A 
ATOM      2  C   UNL d   1     -50.334  27.066  35.334  0.00  0.00     0.187 A 
ATOM      3  C   UNL d   1     -49.468  27.602  34.329  0.00  0.00     0.010 A 
ATOM      4  O   UNL d   1     -49.910  27.463  35.915  0.00  0.00    -0.289 OA
ATOM      5  C   UNL d   1     -49.037  28.005  34.910  0.00  0.00     0.025 A 
ATOM      6  C   UNL d   1     -49.252  27.939  35.695  0.00  0.00     0.102 A 
ATOM      7  C   UNL d   1     -48.391  28.474  34.705  0.00  0.00     0.026 A 
ATOM      8  C   UNL d   1     -48.825  28.340  36.289  0.00  0.00     0.027 A 
ATOM      9  C   UNL d   1     -47.965  28.872  35.281  0.00  0.00     0.094 A 
ATOM     10  C   UNL d   1     -48.176  28.810  36.075  0.00  0.00     0.026 A 
ENDROOT
BRANCH   2  11
ATOM     11  N   UNL d   1     -50.991  26.589  35.541  0.00  0.00    -0.222 NA
BRANCH  11  12
ATOM     12  C   UNL d   1     -51.195  26.505  36.335  0.00  0.00     0.084 A 
ATOM     13  C   UNL d   1     -50.621  26.621  36.916  0.00  0.00     0.019 A 
ATOM     14  C   UNL d   1     -50.826  26.537  37.701  0.00  0.00     0.008 A 
ATOM     15  C   UNL d   1     -51.601  26.338  37.924  0.00  0.00     0.065 A 
ATOM     16  C   UNL d   1     -52.175  26.222  37.339  0.00  0.00     0.008 A 
ATOM     17  C   UNL d   1     -51.963  26.308  36.547  0.00  0.00     0.019 A 
BRANCH  15  18
ATOM     18  C   UNL d   1     -51.804  26.254  38.718  0.00  0.00     0.211 C 
ATOM     19  O   UNL d   1     -52.310  25.641  38.959  0.00  0.00    -0.644 OA
ATOM     20  O   UNL d   1     -51.510  26.777  39.290  0.00  0.00    -0.644 OA
ENDBRANCH  15  18
ENDBRANCH  11  12
ENDBRANCH   2  11
BRANCH   1  21
ATOM     21  C   UNL d   1     -50.546  26.730  33.956  0.00  0.00     0.283 C 
ATOM     22  N   UNL d   1     -50.494  25.894  33.895  0.00  0.00    -0.204 NA
ATOM     23  O   UNL d   1     -51.034  27.143  33.416  0.00  0.00    -0.265 OA
BRANCH  22  24
ATOM     24  C   UNL d   1     -50.919  25.491  33.307  0.00  0.00     0.127 C 
BRANCH  24  25
ATOM     25  C   UNL d   1     -50.953  24.668  33.306  0.00  0.00     0.119 A 
ATOM     26  O   UNL d   1     -50.373  24.080  33.306  0.00  0.00    -0.304 OA
ATOM     27  C   UNL d   1     -50.737  23.348  33.306  0.00  0.00     0.123 A 
ATOM     28  C   UNL d   1     -51.540  23.463  33.306  0.00  0.00     0.029 A 
ATOM     29  C   UNL d   1     -51.680  24.277  33.306  0.00  0.00     0.028 A 
ENDBRANCH  24  25
ENDBRANCH  22  24
ENDBRANCH   1  21
BRANCH   9  30
ATOM     30  O   UNL d   1     -47.315  29.342  35.063  0.00  0.00    -0.328 OA
ATOM     31  C   UNL d   1     -47.369  30.175  35.103  0.00  0.00     0.181 C 
ENDBRANCH   9  30
TORSDOF 7
ENDMDL
MODEL 2
REMARK VINA RESULT:      87.8      1.201      4.087
REMARK  7 active torsions:
REMARK  status: ('A' for Active; 'I' for Inactive)
REMARK    1  A    between atoms: C_5  and  C_1 
REMARK    2  A    between atoms: N_6  and  C_2 
REMARK       I    between atoms: N_10  and  C_5 
REMARK    3  A    between atoms: C_20  and  N_6 
REMARK    4  A    between atoms: C_9  and  C_12 
REMARK    5  A    between atoms: C_22  and  N_10 
REMARK    6  A    between atoms: C_11  and  C_22 
REMARK    7  A    between atoms: O_30  and  C_25 
ROOT
ATOM      1  C   UNL d   1     -49.607  27.309  35.487  0.00  0.00     0.099 A 
ATOM      2  C   UNL d   1     -49.096  27.914  35.716  0.00  0.00     0.187 A 
ATOM      3  C   UNL d   1     -50.171  27.024  36.035  0.00  0.00     0.010 A 
ATOM      4  O   UNL d   1     -49.137  28.236  36.471  0.00  0.00    -0.289 OA
ATOM      5  C   UNL d   1     -50.216  27.345  36.796  0.00  0.00     0.025 A 
ATOM      6  C   UNL d   1     -49.707  27.944  37.016  0.00  0.00     0.102 A 
ATOM      7  C   UNL d   1     -50.771  27.066  37.338  0.00  0.00     0.026 A 
ATOM      8  C   UNL d   1     -49.743  28.275  37.781  0.00  0.00     0.027 A 
ATOM      9  C   UNL d   1     -50.815  27.384  38.092  0.00  0.00     0.094 A 
ATOM     10  C   UNL d   1     -50.304  27.989  38.320  0.00  0.00     0.026 A 
ENDROOT
BRANCH   2  11
ATOM     11  N   UNL d   1     -48.532  28.197  35.164  0.00  0.00    -0.222 NA
BRANCH  11  12
ATOM     12  C   UNL d   1     -48.212  28.950  35.264  0.00  0.00     0.084 A 
ATOM     13  C   UNL d   1     -48.451  29.561  34.765  0.00  0.00     0.019 A 
ATOM     14  C   UNL d   1     -48.132  30.305  34.866  0.00  0.00     0.008 A 
ATOM     15  C   UNL d   1     -47.573  30.456  35.463  0.00  0.00     0.065 A 
ATOM     16  C   UNL d   1     -47.336  29.839  35.962  0.00  0.00     0.008 A 
ATOM     17  C   UNL d   1     -47.661  29.089  35.856  0.00  0.00     0.019 A 
BRANCH  15  18
ATOM     18  C   UNL d   1     -47.253  31.209  35.562  0.00  0.00     0.211 C 
ATOM     19  O   UNL d   1     -47.598  31.863  35.183  0.00  0.00    -0.644 OA
ATOM     20  O   UNL d   1     -46.586  31.329  36.038  0.00  0.00    -0.644 OA
ENDBRANCH  15  18
ENDBRANCH  11  12
ENDBRANCH   2  11
BRANCH   1  21
ATOM     21  C   UNL d   1     -49.569  26.985  34.732  0.00  0.00     0.283 C 
ATOM     22  N   UNL d   1     -50.226  26.562  34.422  0.00  0.00    -0.204 NA
ATOM     23  O   UNL d   1     -48.883  27.065  34.257  0.00  0.00    -0.265 OA
BRANCH  22  24
ATOM     24  C   UNL d   1     -50.190  26.234  33.660  0.00  0.00     0.127 C 
BRANCH  24  25
ATOM     25  C   UNL d   1     -50.452  25.466  33.524  0.00  0.00     0.119 A 
ATOM     26  O   UNL d   1     -50.062  24.741  33.448  0.00  0.00    -0.304 OA
ATOM     27  C   UNL d   1     -50.615  24.154  33.316  0.00  0.00     0.123 A 
ATOM     28  C   UNL d   1     -51.351  24.495  33.306  0.00  0.00     0.029 A 
ATOM     29  C   UNL d   1     -51.257  25.306  33.434  0.00  0.00     0.028 A 
ENDBRANCH  24  25
ENDBRANCH  22  24
ENDBRANCH   1  21
BRANCH   9  30
ATOM     30  O   UNL d   1     -51.378  27.095  38.630  0.00  0.00    -0.328 OA
ATOM     31  C   UNL d   1     -51.719  26.341  38.514  0.00  0.00     0.181 C 
ENDBRANCH   9  30
TORSDOF 7
ENDMDL
