MODEL 1
REMARK VINA RESULT:      -9.9      0.000      0.000
REMARK  3 active torsions:
REMARK  status: ('A' for Active; 'I' for Inactive)
REMARK       I    between atoms: N_2  and  C_1 
REMARK       I    between atoms: N_5  and  C_1 
REMARK       I    between atoms: C_4  and  N_3 
REMARK    1  A    between atoms: O_14  and  C_4 
REMARK    2  A    between atoms: C_12  and  N_5 
REMARK    3  A    between atoms: C_20  and  O_14 
ROOT
ATOM      1  C   UNL d   1      53.329  34.221  54.414  0.00  0.00     0.354 C 
ATOM      2  N   UNL d   1      53.254  33.437  54.149  0.00  0.00    -0.253 N 
ATOM      3  N   UNL d   1      53.127  31.892  53.652  0.00  0.00    -0.249 N 
ATOM      4  C   UNL d   1      53.066  31.085  53.399  0.00  0.00     0.378 C 
ATOM      5  N   UNL d   1      52.890  34.833  54.030  0.00  0.00    -0.192 NA
ATOM      6  O   UNL d   1      53.824  34.432  55.049  0.00  0.00    -0.244 OA
ATOM      7  C   UNL d   1      52.756  33.235  53.514  0.00  0.00     0.104 A 
ATOM      8  C   UNL d   1      53.682  32.858  54.527  0.00  0.00     0.104 A 
ATOM      9  C   UNL d   1      53.614  32.069  54.271  0.00  0.00     0.104 A 
ATOM     10  C   UNL d   1      52.704  32.455  53.277  0.00  0.00     0.104 A 
ATOM     11  O   UNL d   1      52.586  30.865  52.780  0.00  0.00    -0.237 OA
ENDROOT
BRANCH   5  12
ATOM     12  C   UNL d   1      52.410  34.651  53.419  0.00  0.00     0.087 A 
ATOM     13  C   UNL d   1      51.606  34.512  53.520  0.00  0.00     0.031 A 
ATOM     14  C   UNL d   1      51.138  34.331  52.896  0.00  0.00     0.059 A 
ATOM     15 CL   UNL d   1      50.321  34.196  53.036  0.00  0.00    -0.082 Cl
ATOM     16  C   UNL d   1      51.451  34.277  52.135  0.00  0.00     0.011 A 
ATOM     17  C   UNL d   1      52.261  34.416  52.026  0.00  0.00     0.002 A 
ATOM     18  C   UNL d   1      52.729  34.597  52.650  0.00  0.00     0.019 A 
ENDBRANCH   5  12
BRANCH   4  19
ATOM     19  O   UNL d   1      53.506  30.506  53.792  0.00  0.00    -0.257 OA
BRANCH  19  20
ATOM     20  C   UNL d   1      53.317  29.717  53.696  0.00  0.00     0.128 C 
ATOM     21  C   UNL d   1      53.518  29.165  54.274  0.00  0.00     0.029 C 
ENDBRANCH  19  20
ENDBRANCH   4  19
TORSDOF 3
ENDMDL
MODEL 2
REMARK VINA RESULT:      -9.3      1.797      3.819
REMARK  3 active torsions:
REMARK  status: ('A' for Active; 'I' for Inactive)
REMARK       I    between atoms: N_2  and  C_1 
REMARK       I    between atoms: N_5  and  C_1 
REMARK       I    between atoms: C_4  and  N_3 
REMARK    1  A    between atoms: O_14  and  C_4 
REMARK    2  A    between atoms: C_12  and  N_5 
REMARK    3  A    between atoms: C_20  and  O_14 
ROOT
ATOM      1  C   UNL d   1      53.092  31.412  53.249  0.00  0.00     0.354 C 
ATOM      2  N   UNL d   1      52.655  32.118  53.211  0.00  0.00    -0.253 N 
ATOM      3  N   UNL d   1      51.777  33.485  53.124  0.00  0.00    -0.249 N 
ATOM      4  C   UNL d   1      51.313  34.194  53.075  0.00  0.00     0.378 C 
ATOM      5  N   UNL d   1      53.859  31.417  53.603  0.00  0.00    -0.192 NA
ATOM      6  O   UNL d   1      52.803  30.692  52.949  0.00  0.00    -0.244 OA
ATOM      7  C   UNL d   1      52.953  32.833  53.514  0.00  0.00     0.104 A 
ATOM      8  C   UNL d   1      51.918  32.100  52.868  0.00  0.00     0.104 A 
ATOM      9  C   UNL d   1      51.471  32.801  52.825  0.00  0.00     0.104 A 
ATOM     10  C   UNL d   1      52.499  33.510  53.462  0.00  0.00     0.104 A 
ATOM     11  O   UNL d   1      51.584  34.904  53.365  0.00  0.00    -0.237 OA
ENDROOT
BRANCH   5  12
ATOM     12  C   UNL d   1      54.154  32.097  53.897  0.00  0.00     0.087 A 
ATOM     13  C   UNL d   1      54.076  32.303  54.689  0.00  0.00     0.031 A 
ATOM     14  C   UNL d   1      54.379  32.990  54.968  0.00  0.00     0.059 A 
ATOM     15 CL   UNL d   1      54.280  33.168  55.783  0.00  0.00    -0.082 Cl
ATOM     16  C   UNL d   1      54.777  33.511  54.467  0.00  0.00     0.011 A 
ATOM     17  C   UNL d   1      54.859  33.309  53.667  0.00  0.00     0.002 A 
ATOM     18  C   UNL d   1      54.557  32.622  53.388  0.00  0.00     0.019 A 
ENDBRANCH   5  12
BRANCH   4  19
ATOM     19  O   UNL d   1      50.566  34.162  52.723  0.00  0.00    -0.257 OA
BRANCH  19  20
ATOM     20  C   UNL d   1      50.053  34.793  52.801  0.00  0.00     0.128 C 
ATOM     21  C   UNL d   1      49.321  34.787  52.420  0.00  0.00     0.029 C 
ENDBRANCH  19  20
ENDBRANCH   4  19
TORSDOF 3
ENDMDL
MODEL 3
REMARK VINA RESULT:      -8.4      1.915      3.489
REMARK  3 active torsions:
REMARK  status: ('A' for Active; 'I' for Inactive)
REMARK       I    between atoms: N_2  and  C_1 
REMARK       I    between atoms: N_5  and  C_1 
REMARK       I    between atoms: C_4  and  N_3 
REMARK    1  A    between atoms: O_14  and  C_4 
REMARK    2  A    between atoms: C_12  and  N_5 
REMARK    3  A    between atoms: C_20  and  O_14 
ROOT
ATOM      1  C   UNL d   1      53.585  34.463  54.945  0.00  0.00     0.354 C 
ATOM      2  N   UNL d   1      52.996  34.336  54.371  0.00  0.00    -0.253 N 
ATOM      3  N   UNL d   1      51.830  34.115  53.258  0.00  0.00    -0.249 N 
ATOM      4  C   UNL d   1      51.219  34.006  52.680  0.00  0.00     0.378 C 
ATOM      5  N   UNL d   1      54.208  33.898  55.031  0.00  0.00    -0.192 NA
ATOM      6  O   UNL d   1      53.587  35.130  55.442  0.00  0.00    -0.244 OA
ATOM      7  C   UNL d   1      53.003  33.666  53.879  0.00  0.00     0.104 A 
ATOM      8  C   UNL d   1      52.402  34.887  54.298  0.00  0.00     0.104 A 
ATOM      9  C   UNL d   1      51.808  34.771  53.728  0.00  0.00     0.104 A 
ATOM     10  C   UNL d   1      52.410  33.571  53.325  0.00  0.00     0.104 A 
ATOM     11  O   UNL d   1      51.205  33.358  52.188  0.00  0.00    -0.237 OA
ENDROOT
BRANCH   5  12
ATOM     12  C   UNL d   1      54.224  33.252  54.564  0.00  0.00     0.087 A 
ATOM     13  C   UNL d   1      53.885  32.539  54.791  0.00  0.00     0.031 A 
ATOM     14  C   UNL d   1      53.909  31.899  54.309  0.00  0.00     0.059 A 
ATOM     15 CL   UNL d   1      53.553  31.186  54.574  0.00  0.00    -0.082 Cl
ATOM     16  C   UNL d   1      54.276  31.940  53.572  0.00  0.00     0.011 A 
ATOM     17  C   UNL d   1      54.620  32.657  53.336  0.00  0.00     0.002 A 
ATOM     18  C   UNL d   1      54.595  33.296  53.818  0.00  0.00     0.019 A 
ENDBRANCH   5  12
BRANCH   4  19
ATOM     19  O   UNL d   1      50.621  34.573  52.616  0.00  0.00    -0.257 OA
BRANCH  19  20
ATOM     20  C   UNL d   1      49.975  34.430  52.138  0.00  0.00     0.128 C 
ATOM     21  C   UNL d   1      49.285  34.874  52.221  0.00  0.00     0.029 C 
ENDBRANCH  19  20
ENDBRANCH   4  19
TORSDOF 3
ENDMDL
MODEL 4
REMARK VINA RESULT:      -7.5      1.428      1.965
REMARK  3 active torsions:
REMARK  status: ('A' for Active; 'I' for Inactive)
REMARK       I    between atoms: N_2  and  C_1 
REMARK       I    between atoms: N_5  and  C_1 
REMARK       I    between atoms: C_4  and  N_3 
REMARK    1  A    between atoms: O_14  and  C_4 
REMARK    2  A    between atoms: C_12  and  N_5 
REMARK    3  A    between atoms: C_20  and  O_14 
ROOT
ATOM      1  C   UNL d   1      51.119  33.803  53.016  0.00  0.00     0.354 C 
ATOM      2  N   UNL d   1      51.683  33.205  53.142  0.00  0.00    -0.253 N 
ATOM      3  N   UNL d   1      52.766  32.014  53.380  0.00  0.00    -0.249 N 
ATOM      4  C   UNL d   1      53.326  31.389  53.502  0.00  0.00     0.378 C 
ATOM      5  N   UNL d   1      51.331  34.609  53.155  0.00  0.00    -0.192 NA
ATOM      6  O   UNL d   1      50.346  33.639  52.756  0.00  0.00    -0.244 OA
ATOM      7  C   UNL d   1      52.454  33.379  53.403  0.00  0.00     0.104 A 
ATOM      8  C   UNL d   1      51.467  32.434  53.004  0.00  0.00     0.104 A 
ATOM      9  C   UNL d   1      52.024  31.827  53.127  0.00  0.00     0.104 A 
ATOM     10  C   UNL d   1      52.985  32.769  53.517  0.00  0.00     0.104 A 
ATOM     11  O   UNL d   1      54.085  31.535  53.756  0.00  0.00    -0.237 OA
ENDROOT
BRANCH   5  12
ATOM     12  C   UNL d   1      52.067  34.787  53.406  0.00  0.00     0.087 A 
ATOM     13  C   UNL d   1      52.246  34.892  54.201  0.00  0.00     0.031 A 
ATOM     14  C   UNL d   1      52.991  35.070  54.435  0.00  0.00     0.059 A 
ATOM     15 CL   UNL d   1      53.137  35.171  55.256  0.00  0.00    -0.082 Cl
ATOM     16  C   UNL d   1      53.599  35.153  53.884  0.00  0.00     0.011 A 
ATOM     17  C   UNL d   1      53.425  35.049  53.080  0.00  0.00     0.002 A 
ATOM     18  C   UNL d   1      52.680  34.870  52.846  0.00  0.00     0.019 A 
ENDBRANCH   5  12
BRANCH   4  19
ATOM     19  O   UNL d   1      53.093  30.608  53.358  0.00  0.00    -0.257 OA
BRANCH  19  20
ATOM     20  C   UNL d   1      53.559  29.991  53.621  0.00  0.00     0.128 C 
ATOM     21  C   UNL d   1      53.227  29.251  53.772  0.00  0.00     0.029 C 
ENDBRANCH  19  20
ENDBRANCH   4  19
TORSDOF 3
ENDMDL
