MODEL 1
REMARK VINA RESULT:      65.8      0.000      0.000
REMARK  5 active torsions:
REMARK  status: ('A' for Active; 'I' for Inactive)
REMARK    1  A    between atoms: N_2  and  C_1 
REMARK    2  A    between atoms: C_4  and  C_8 
REMARK    3  A    between atoms: N_15  and  C_5 
REMARK    4  A    between atoms: C_19  and  N_15 
REMARK    5  A    between atoms: C_20  and  N_15 
ROOT
ATOM      1  C   UNL d   1     -56.208 -99.467 -45.060  0.00  0.00     0.143 A 
ATOM      2  C   UNL d   1     -56.347 -99.258 -44.277  0.00  0.00     0.086 A 
ATOM      3  C   UNL d   1     -56.809 -99.385 -45.626  0.00  0.00     0.027 A 
ATOM      4  C   UNL d   1     -57.555 -99.092 -45.398  0.00  0.00     0.021 A 
ATOM      5  C   UNL d   1     -57.084 -98.968 -44.051  0.00  0.00     0.019 A 
ATOM      6  C   UNL d   1     -57.691 -98.883 -44.607  0.00  0.00     0.003 A 
ENDROOT
BRANCH   4   7
ATOM      7  C   UNL d   1     -58.153 -99.010 -45.955  0.00  0.00     0.103 A 
ATOM      8  N   UNL d   1     -57.966 -98.956 -46.758  0.00  0.00    -0.145 NA
ATOM      9  N   UNL d   1     -58.564 -98.874 -47.316  0.00  0.00    -0.106 NA
ATOM     10  C   UNL d   1     -59.352 -98.845 -47.075  0.00  0.00     0.297 A 
ATOM     11  C   UNL d   1     -59.540 -98.898 -46.272  0.00  0.00     0.066 A 
ATOM     12  O   UNL d   1     -59.950 -98.762 -47.632  0.00  0.00    -0.264 OA
ATOM     13  C   UNL d   1     -58.938 -98.981 -45.707  0.00  0.00     0.024 A 
ATOM     14  C   UNL d   1     -59.127 -99.033 -44.908  0.00  0.00     0.002 C 
ENDBRANCH   4   7
BRANCH   1  15
ATOM     15  N   UNL d   1     -55.470 -99.759 -45.295  0.00  0.00    -0.112 N 
ATOM     16  O   UNL d   1     -55.240-100.519 -45.054  0.00  0.00    -0.532 OA
ATOM     17  O   UNL d   1     -54.967 -99.304 -45.760  0.00  0.00    -0.532 OA
ENDBRANCH   1  15
BRANCH   2  18
ATOM     18  N   UNL d   1     -55.748 -99.340 -43.719  0.00  0.00    -0.302 N 
BRANCH  18  19
ATOM     19  C   UNL d   1     -55.239 -99.984 -43.757  0.00  0.00     0.080 C 
ATOM     20  C   UNL d   1     -55.114-100.452 -43.087  0.00  0.00     0.021 C 
ENDBRANCH  18  19
BRANCH  18  21
ATOM     21  C   UNL d   1     -55.659 -98.778 -43.123  0.00  0.00     0.080 C 
ATOM     22  C   UNL d   1     -55.342 -98.994 -42.396  0.00  0.00     0.021 C 
ENDBRANCH  18  21
ENDBRANCH   2  18
TORSDOF 5
ENDMDL
MODEL 2
REMARK VINA RESULT:      68.3      2.305      5.064
REMARK  5 active torsions:
REMARK  status: ('A' for Active; 'I' for Inactive)
REMARK    1  A    between atoms: N_2  and  C_1 
REMARK    2  A    between atoms: C_4  and  C_8 
REMARK    3  A    between atoms: N_15  and  C_5 
REMARK    4  A    between atoms: C_19  and  N_15 
REMARK    5  A    between atoms: C_20  and  N_15 
ROOT
ATOM      1  C   UNL d   1     -56.044-100.192 -43.400  0.00  0.00     0.143 A 
ATOM      2  C   UNL d   1     -55.515-100.242 -44.028  0.00  0.00     0.086 A 
ATOM      3  C   UNL d   1     -55.914-100.631 -42.709  0.00  0.00     0.027 A 
ATOM      4  C   UNL d   1     -55.244-101.123 -42.651  0.00  0.00     0.021 A 
ATOM      5  C   UNL d   1     -54.852-100.729 -43.971  0.00  0.00     0.019 A 
ATOM      6  C   UNL d   1     -54.712-101.171 -43.286  0.00  0.00     0.003 A 
ENDROOT
BRANCH   4   7
ATOM      7  C   UNL d   1     -55.111-101.560 -41.968  0.00  0.00     0.103 A 
ATOM      8  N   UNL d   1     -55.225-102.378 -41.972  0.00  0.00    -0.145 NA
ATOM      9  N   UNL d   1     -55.092-102.815 -41.288  0.00  0.00    -0.106 NA
ATOM     10  C   UNL d   1     -54.845-102.438 -40.598  0.00  0.00     0.297 A 
ATOM     11  C   UNL d   1     -54.731-101.620 -40.594  0.00  0.00     0.066 A 
ATOM     12  O   UNL d   1     -54.712-102.875 -39.915  0.00  0.00    -0.264 OA
ATOM     13  C   UNL d   1     -54.864-101.175 -41.282  0.00  0.00     0.024 A 
ATOM     14  C   UNL d   1     -54.751-100.361 -41.276  0.00  0.00     0.002 C 
ENDBRANCH   4   7
BRANCH   1  15
ATOM     15  N   UNL d   1     -56.712 -99.704 -43.450  0.00  0.00    -0.112 N 
ATOM     16  O   UNL d   1     -56.725 -98.991 -43.027  0.00  0.00    -0.532 OA
ATOM     17  O   UNL d   1     -57.356 -99.923 -43.913  0.00  0.00    -0.532 OA
ENDBRANCH   1  15
BRANCH   2  18
ATOM     18  N   UNL d   1     -55.647 -99.805 -44.712  0.00  0.00    -0.302 N 
BRANCH  18  19
ATOM     19  C   UNL d   1     -56.388 -99.477 -44.851  0.00  0.00     0.080 C 
ATOM     20  C   UNL d   1     -56.453 -98.759 -45.255  0.00  0.00     0.021 C 
ENDBRANCH  18  19
BRANCH  18  21
ATOM     21  C   UNL d   1     -55.039 -99.697 -45.257  0.00  0.00     0.080 C 
ATOM     22  C   UNL d   1     -54.915 -98.958 -45.595  0.00  0.00     0.021 C 
ENDBRANCH  18  21
ENDBRANCH   2  18
TORSDOF 5
ENDMDL
