MODEL 1
REMARK VINA RESULT:      56.1      0.000      0.000
REMARK  5 active torsions:
REMARK  status: ('A' for Active; 'I' for Inactive)
REMARK    1  A    between atoms: C_2  and  C_1 
REMARK    2  A    between atoms: C_4  and  C_1 
REMARK       I    between atoms: N_3  and  C_2 
REMARK    3  A    between atoms: C_5  and  N_3 
REMARK    4  A    between atoms: C_11  and  C_5 
REMARK    5  A    between atoms: C_12  and  C_5 
ROOT
ATOM      1  C   UNL d   1      15.208  13.740  -1.966  0.00  0.00     0.315 C 
ATOM      2  N   UNL d   1      14.672  13.764  -2.596  0.00  0.00    -0.367 NA
ATOM      3  O   UNL d   1      16.018  13.701  -2.113  0.00  0.00    -0.255 OA
ENDROOT
BRANCH   2   4
ATOM      4  C   UNL d   1      13.985  13.795  -3.415  0.00  0.00     0.135 C 
BRANCH   4   5
ATOM      5  C   UNL d   1      13.655  13.169  -3.645  0.00  0.00     0.030 A 
ATOM      6  C   UNL d   1      13.146  12.778  -3.164  0.00  0.00     0.003 A 
ATOM      7  C   UNL d   1      12.769  12.079  -3.402  0.00  0.00     0.000 A 
ATOM      8  C   UNL d   1      12.939  11.780  -4.187  0.00  0.00     0.000 A 
ATOM      9  C   UNL d   1      13.448  12.172  -4.668  0.00  0.00     0.000 A 
ATOM     10  C   UNL d   1      13.828  12.894  -4.403  0.00  0.00     0.003 A 
ENDBRANCH   4   5
BRANCH   4  11
ATOM     11  C   UNL d   1      13.830  14.426  -3.758  0.00  0.00     0.030 A 
ATOM     12  C   UNL d   1      14.418  14.886  -4.032  0.00  0.00     0.003 A 
ATOM     13  C   UNL d   1      14.259  15.600  -4.421  0.00  0.00     0.000 A 
ATOM     14  C   UNL d   1      13.468  15.801  -4.505  0.00  0.00     0.000 A 
ATOM     15  C   UNL d   1      12.881  15.336  -4.228  0.00  0.00     0.000 A 
ATOM     16  C   UNL d   1      13.042  14.626  -3.841  0.00  0.00     0.003 A 
ENDBRANCH   4  11
ENDBRANCH   2   4
BRANCH   1  17
ATOM     17  C   UNL d   1      14.936  13.753  -1.182  0.00  0.00     0.150 A 
ATOM     18  C   UNL d   1      14.667  13.766  -0.410  0.00  0.00     0.019 A 
ATOM     19  C   UNL d   1      14.564  14.494  -0.015  0.00  0.00     0.119 A 
ATOM     20  O   UNL d   1      14.729  15.197  -0.396  0.00  0.00    -0.304 OA
ATOM     21  C   UNL d   1      15.001  15.187  -1.178  0.00  0.00     0.119 A 
ATOM     22  C   UNL d   1      15.105  14.464  -1.573  0.00  0.00     0.019 A 
BRANCH  17  23
ATOM     23  C   UNL d   1      14.767  13.038  -0.794  0.00  0.00     0.024 A 
ATOM     24  S   UNL d   1      15.266  12.374  -0.735  0.00  0.00    -0.090 SA
ATOM     25  C   UNL d   1      14.880  11.784  -0.301  0.00  0.00     0.035 A 
ATOM     26  C   UNL d   1      14.138  12.066  -0.082  0.00  0.00     0.007 A 
ATOM     27  C   UNL d   1      14.066  12.844  -0.386  0.00  0.00     0.004 A 
ENDBRANCH  17  23
ENDBRANCH   1  17
TORSDOF 5
ENDMDL
MODEL 2
REMARK VINA RESULT:      57.6      1.285      3.019
REMARK  5 active torsions:
REMARK  status: ('A' for Active; 'I' for Inactive)
REMARK    1  A    between atoms: C_2  and  C_1 
REMARK    2  A    between atoms: C_4  and  C_1 
REMARK       I    between atoms: N_3  and  C_2 
REMARK    3  A    between atoms: C_5  and  N_3 
REMARK    4  A    between atoms: C_11  and  C_5 
REMARK    5  A    between atoms: C_12  and  C_5 
ROOT
ATOM      1  C   UNL d   1      14.901  12.894  -1.646  0.00  0.00     0.315 C 
ATOM      2  N   UNL d   1      14.848  13.712  -1.753  0.00  0.00    -0.367 NA
ATOM      3  O   UNL d   1      15.638  12.523  -1.643  0.00  0.00    -0.255 OA
ENDROOT
BRANCH   2   4
ATOM      4  C   UNL d   1      14.786  14.771  -1.892  0.00  0.00     0.135 C 
BRANCH   4   5
ATOM      5  C   UNL d   1      14.564  15.046  -2.547  0.00  0.00     0.030 A 
ATOM      6  C   UNL d   1      13.819  14.914  -2.811  0.00  0.00     0.003 A 
ATOM      7  C   UNL d   1      13.553  15.211  -3.538  0.00  0.00     0.000 A 
ATOM      8  C   UNL d   1      14.103  15.670  -4.008  0.00  0.00     0.000 A 
ATOM      9  C   UNL d   1      14.849  15.802  -3.744  0.00  0.00     0.000 A 
ATOM     10  C   UNL d   1      15.105  15.485  -2.988  0.00  0.00     0.003 A 
ENDBRANCH   4   5
BRANCH   4  11
ATOM     11  C   UNL d   1      14.960  15.237  -1.351  0.00  0.00     0.030 A 
ATOM     12  C   UNL d   1      14.921  16.022  -1.472  0.00  0.00     0.003 A 
ATOM     13  C   UNL d   1      15.114  16.559  -0.872  0.00  0.00     0.000 A 
ATOM     14  C   UNL d   1      15.344  16.236  -0.153  0.00  0.00     0.000 A 
ATOM     15  C   UNL d   1      15.381  15.447  -0.036  0.00  0.00     0.000 A 
ATOM     16  C   UNL d   1      15.188  14.915  -0.636  0.00  0.00     0.003 A 
ENDBRANCH   4  11
ENDBRANCH   2   4
BRANCH   1  17
ATOM     17  C   UNL d   1      14.215  12.439  -1.540  0.00  0.00     0.150 A 
ATOM     18  C   UNL d   1      13.539  11.990  -1.437  0.00  0.00     0.019 A 
ATOM     19  C   UNL d   1      13.282  11.793  -0.667  0.00  0.00     0.119 A 
ATOM     20  O   UNL d   1      13.702  12.047  -0.014  0.00  0.00    -0.304 OA
ATOM     21  C   UNL d   1      14.386  12.501  -0.116  0.00  0.00     0.119 A 
ATOM     22  C   UNL d   1      14.645  12.698  -0.880  0.00  0.00     0.019 A 
BRANCH  17  23
ATOM     23  C   UNL d   1      13.788  12.181  -2.204  0.00  0.00     0.024 A 
ATOM     24  S   UNL d   1      12.971  12.023  -2.240  0.00  0.00    -0.090 SA
ATOM     25  C   UNL d   1      12.776  11.779  -3.006  0.00  0.00     0.035 A 
ATOM     26  C   UNL d   1      13.463  11.779  -3.461  0.00  0.00     0.007 A 
ATOM     27  C   UNL d   1      14.092  12.028  -2.966  0.00  0.00     0.004 A 
ENDBRANCH  17  23
ENDBRANCH   1  17
TORSDOF 5
ENDMDL
MODEL 3
REMARK VINA RESULT:      58.8      1.241      3.008
REMARK  5 active torsions:
REMARK  status: ('A' for Active; 'I' for Inactive)
REMARK    1  A    between atoms: C_2  and  C_1 
REMARK    2  A    between atoms: C_4  and  C_1 
REMARK       I    between atoms: N_3  and  C_2 
REMARK    3  A    between atoms: C_5  and  N_3 
REMARK    4  A    between atoms: C_11  and  C_5 
REMARK    5  A    between atoms: C_12  and  C_5 
ROOT
ATOM      1  C   UNL d   1      15.064  13.012  -1.770  0.00  0.00     0.315 C 
ATOM      2  N   UNL d   1      14.931  13.819  -1.891  0.00  0.00    -0.367 NA
ATOM      3  O   UNL d   1      15.827  12.705  -1.830  0.00  0.00    -0.255 OA
ENDROOT
BRANCH   2   4
ATOM      4  C   UNL d   1      14.765  14.865  -2.048  0.00  0.00     0.135 C 
BRANCH   4   5
ATOM      5  C   UNL d   1      14.918  15.349  -1.504  0.00  0.00     0.030 A 
ATOM      6  C   UNL d   1      14.665  15.213  -0.756  0.00  0.00     0.003 A 
ATOM      7  C   UNL d   1      14.824  15.740  -0.137  0.00  0.00     0.000 A 
ATOM      8  C   UNL d   1      15.274  16.447  -0.319  0.00  0.00     0.000 A 
ATOM      9  C   UNL d   1      15.527  16.583  -1.068  0.00  0.00     0.000 A 
ATOM     10  C   UNL d   1      15.351  16.024  -1.695  0.00  0.00     0.003 A 
ENDBRANCH   4   5
BRANCH   4  11
ATOM     11  C   UNL d   1      14.502  15.117  -2.687  0.00  0.00     0.030 A 
ATOM     12  C   UNL d   1      13.717  15.177  -2.798  0.00  0.00     0.003 A 
ATOM     13  C   UNL d   1      13.405  15.459  -3.512  0.00  0.00     0.000 A 
ATOM     14  C   UNL d   1      13.950  15.670  -4.090  0.00  0.00     0.000 A 
ATOM     15  C   UNL d   1      14.737  15.608  -3.972  0.00  0.00     0.000 A 
ATOM     16  C   UNL d   1      15.044  15.326  -3.260  0.00  0.00     0.003 A 
ENDBRANCH   4  11
ENDBRANCH   2   4
BRANCH   1  17
ATOM     17  C   UNL d   1      14.433  12.505  -1.588  0.00  0.00     0.150 A 
ATOM     18  C   UNL d   1      13.811  12.005  -1.411  0.00  0.00     0.019 A 
ATOM     19  C   UNL d   1      13.668  11.779  -0.619  0.00  0.00     0.119 A 
ATOM     20  O   UNL d   1      14.148  12.057  -0.019  0.00  0.00    -0.304 OA
ATOM     21  C   UNL d   1      14.779  12.563  -0.197  0.00  0.00     0.119 A 
ATOM     22  C   UNL d   1      14.923  12.789  -0.983  0.00  0.00     0.019 A 
BRANCH  17  23
ATOM     23  C   UNL d   1      13.945  12.223  -2.199  0.00  0.00     0.024 A 
ATOM     24  S   UNL d   1      14.175  12.045  -2.979  0.00  0.00    -0.090 SA
ATOM     25  C   UNL d   1      13.515  11.780  -3.402  0.00  0.00     0.035 A 
ATOM     26  C   UNL d   1      12.864  11.787  -2.898  0.00  0.00     0.007 A 
ATOM     27  C   UNL d   1      13.128  12.061  -2.151  0.00  0.00     0.004 A 
ENDBRANCH  17  23
ENDBRANCH   1  17
TORSDOF 5
ENDMDL
