MODEL 1
REMARK VINA RESULT:      -3.4      0.000      0.000
REMARK  3 active torsions:
REMARK  status: ('A' for Active; 'I' for Inactive)
REMARK       I    between atoms: N_2  and  C_1 
REMARK    1  A    between atoms: C_4  and  C_1 
REMARK    2  A    between atoms: C_3  and  N_2 
REMARK    3  A    between atoms: S_11  and  C_7 
ROOT
ATOM      1  C   UNL d   1      56.622  -0.180  33.122  0.00  0.00     0.064 A 
ATOM      2  C   UNL d   1      55.839  -0.044  33.336  0.00  0.00     0.030 A 
ATOM      3  C   UNL d   1      56.833  -0.887  32.740  0.00  0.00     0.005 A 
ATOM      4  C   UNL d   1      55.261  -0.609  33.171  0.00  0.00     0.006 A 
ATOM      5  C   UNL d   1      56.254  -1.452  32.575  0.00  0.00     0.000 A 
ATOM      6  C   UNL d   1      55.466  -1.310  32.793  0.00  0.00     0.001 A 
ENDROOT
BRANCH   1   7
ATOM      7  C   UNL d   1      57.200   0.385  33.286  0.00  0.00     0.281 C 
ATOM      8  N   UNL d   1      57.675   0.680  32.672  0.00  0.00    -0.183 NA
ATOM      9  O   UNL d   1      57.306   0.654  34.056  0.00  0.00    -0.265 OA
BRANCH   8  10
ATOM     10  C   UNL d   1      57.573   0.416  31.911  0.00  0.00     0.197 A 
ATOM     11  N   UNL d   1      56.992   0.677  31.378  0.00  0.00    -0.219 NA
ATOM     12  C   UNL d   1      57.088   0.262  30.665  0.00  0.00     0.108 A 
ATOM     13  C   UNL d   1      57.729  -0.260  30.752  0.00  0.00     0.059 A 
ATOM     14  S   UNL d   1      58.024  -0.162  31.520  0.00  0.00    -0.046 SA
ENDBRANCH   8  10
ENDBRANCH   1   7
BRANCH   2  15
ATOM     15  S   UNL d   1      55.634   0.659  33.714  0.00  0.00    -0.113 SA
ATOM     16  C   UNL d   1      54.973   0.682  34.203  0.00  0.00     0.074 C 
ENDBRANCH   2  15
TORSDOF 3
ENDMDL
MODEL 2
REMARK VINA RESULT:      -2.8      1.110      2.599
REMARK  3 active torsions:
REMARK  status: ('A' for Active; 'I' for Inactive)
REMARK       I    between atoms: N_2  and  C_1 
REMARK    1  A    between atoms: C_4  and  C_1 
REMARK    2  A    between atoms: C_3  and  N_2 
REMARK    3  A    between atoms: S_11  and  C_7 
ROOT
ATOM      1  C   UNL d   1      56.725  -0.325  33.127  0.00  0.00     0.064 A 
ATOM      2  C   UNL d   1      56.886  -0.287  32.321  0.00  0.00     0.030 A 
ATOM      3  C   UNL d   1      56.292  -0.963  33.436  0.00  0.00     0.005 A 
ATOM      4  C   UNL d   1      56.617  -0.882  31.817  0.00  0.00     0.006 A 
ATOM      5  C   UNL d   1      56.024  -1.558  32.932  0.00  0.00     0.000 A 
ATOM      6  C   UNL d   1      56.188  -1.516  32.119  0.00  0.00     0.001 A 
ENDROOT
BRANCH   1   7
ATOM      7  C   UNL d   1      56.994   0.271  33.631  0.00  0.00     0.281 C 
ATOM      8  N   UNL d   1      56.453   0.681  34.109  0.00  0.00    -0.183 NA
ATOM      9  O   UNL d   1      57.795   0.457  33.659  0.00  0.00    -0.265 OA
BRANCH   8  10
ATOM     10  C   UNL d   1      55.662   0.500  34.083  0.00  0.00     0.197 A 
ATOM     11  N   UNL d   1      55.141   0.679  33.463  0.00  0.00    -0.219 NA
ATOM     12  C   UNL d   1      54.388   0.394  33.665  0.00  0.00     0.108 A 
ATOM     13  C   UNL d   1      54.437   0.036  34.413  0.00  0.00     0.059 A 
ATOM     14  S   UNL d   1      55.223   0.104  34.666  0.00  0.00    -0.046 SA
ENDBRANCH   8  10
ENDBRANCH   1   7
BRANCH   2  15
ATOM     15  S   UNL d   1      57.316   0.348  32.018  0.00  0.00    -0.113 SA
ATOM     16  C   UNL d   1      57.532   0.354  31.224  0.00  0.00     0.074 C 
ENDBRANCH   2  15
TORSDOF 3
ENDMDL
MODEL 3
REMARK VINA RESULT:      -2.6      9.046      9.732
REMARK  3 active torsions:
REMARK  status: ('A' for Active; 'I' for Inactive)
REMARK       I    between atoms: N_2  and  C_1 
REMARK    1  A    between atoms: C_4  and  C_1 
REMARK    2  A    between atoms: C_3  and  N_2 
REMARK    3  A    between atoms: S_11  and  C_7 
ROOT
ATOM      1  C   UNL d   1      59.760  -8.487  35.925  0.00  0.00     0.064 A 
ATOM      2  C   UNL d   1      59.576  -7.684  35.931  0.00  0.00     0.030 A 
ATOM      3  C   UNL d   1      60.542  -8.736  36.055  0.00  0.00     0.005 A 
ATOM      4  C   UNL d   1      60.168  -7.125  36.065  0.00  0.00     0.006 A 
ATOM      5  C   UNL d   1      61.133  -8.177  36.189  0.00  0.00     0.000 A 
ATOM      6  C   UNL d   1      60.943  -7.368  36.194  0.00  0.00     0.001 A 
ENDROOT
BRANCH   1   7
ATOM      7  C   UNL d   1      59.168  -9.046  35.790  0.00  0.00     0.281 C 
ATOM      8  N   UNL d   1      59.237  -9.573  35.152  0.00  0.00    -0.183 NA
ATOM      9  O   UNL d   1      58.514  -9.081  36.287  0.00  0.00    -0.265 OA
BRANCH   8  10
ATOM     10  C   UNL d   1      59.882  -9.540  34.660  0.00  0.00     0.197 A 
ATOM     11  N   UNL d   1      60.644  -9.816  34.838  0.00  0.00    -0.219 NA
ATOM     12  C   UNL d   1      61.132  -9.674  34.181  0.00  0.00     0.108 A 
ATOM     13  C   UNL d   1      60.674  -9.308  33.591  0.00  0.00     0.059 A 
ATOM     14  S   UNL d   1      59.906  -9.229  33.891  0.00  0.00    -0.046 SA
ENDBRANCH   8  10
ENDBRANCH   1   7
BRANCH   2  15
ATOM     15  S   UNL d   1      58.800  -7.441  35.802  0.00  0.00    -0.113 SA
ATOM     16  C   UNL d   1      58.637  -6.645  35.668  0.00  0.00     0.074 C 
ENDBRANCH   2  15
TORSDOF 3
ENDMDL
MODEL 4
REMARK VINA RESULT:      -2.4      1.386      3.007
REMARK  3 active torsions:
REMARK  status: ('A' for Active; 'I' for Inactive)
REMARK       I    between atoms: N_2  and  C_1 
REMARK    1  A    between atoms: C_4  and  C_1 
REMARK    2  A    between atoms: C_3  and  N_2 
REMARK    3  A    between atoms: S_11  and  C_7 
ROOT
ATOM      1  C   UNL d   1      56.784  -0.497  32.648  0.00  0.00     0.064 A 
ATOM      2  C   UNL d   1      57.227  -0.132  32.058  0.00  0.00     0.030 A 
ATOM      3  C   UNL d   1      56.882  -0.273  33.442  0.00  0.00     0.005 A 
ATOM      4  C   UNL d   1      57.770   0.457  32.253  0.00  0.00     0.006 A 
ATOM      5  C   UNL d   1      57.426   0.316  33.637  0.00  0.00     0.000 A 
ATOM      6  C   UNL d   1      57.870   0.681  33.038  0.00  0.00     0.001 A 
ENDROOT
BRANCH   1   7
ATOM      7  C   UNL d   1      56.240  -1.086  32.452  0.00  0.00     0.281 C 
ATOM      8  N   UNL d   1      55.471  -1.058  32.765  0.00  0.00    -0.183 NA
ATOM      9  O   UNL d   1      56.460  -1.699  31.950  0.00  0.00    -0.265 OA
BRANCH   8  10
ATOM     10  C   UNL d   1      55.252  -0.454  33.261  0.00  0.00     0.197 A 
ATOM     11  N   UNL d   1      54.791   0.204  33.053  0.00  0.00    -0.219 NA
ATOM     12  C   UNL d   1      54.701   0.681  33.727  0.00  0.00     0.108 A 
ATOM     13  C   UNL d   1      55.106   0.322  34.358  0.00  0.00     0.059 A 
ATOM     14  S   UNL d   1      55.443  -0.376  34.066  0.00  0.00    -0.046 SA
ENDBRANCH   8  10
ENDBRANCH   1   7
BRANCH   2  15
ATOM     15  S   UNL d   1      57.126  -0.357  31.272  0.00  0.00    -0.113 SA
ATOM     16  C   UNL d   1      57.652  -0.088  30.698  0.00  0.00     0.074 C 
ENDBRANCH   2  15
TORSDOF 3
ENDMDL
MODEL 5
REMARK VINA RESULT:      -2.3      2.951      4.302
REMARK  3 active torsions:
REMARK  status: ('A' for Active; 'I' for Inactive)
REMARK       I    between atoms: N_2  and  C_1 
REMARK    1  A    between atoms: C_4  and  C_1 
REMARK    2  A    between atoms: C_3  and  N_2 
REMARK    3  A    between atoms: S_11  and  C_7 
ROOT
ATOM      1  C   UNL d   1      58.581  -0.510  29.166  0.00  0.00     0.064 A 
ATOM      2  C   UNL d   1      58.202  -0.730  29.862  0.00  0.00     0.030 A 
ATOM      3  C   UNL d   1      58.949  -1.085  28.692  0.00  0.00     0.005 A 
ATOM      4  C   UNL d   1      58.187  -1.522  30.093  0.00  0.00     0.006 A 
ATOM      5  C   UNL d   1      58.933  -1.877  28.922  0.00  0.00     0.000 A 
ATOM      6  C   UNL d   1      58.550  -2.094  29.626  0.00  0.00     0.001 A 
ENDROOT
BRANCH   1   7
ATOM      7  C   UNL d   1      58.596   0.282  28.935  0.00  0.00     0.281 C 
ATOM      8  N   UNL d   1      59.324   0.674  28.854  0.00  0.00    -0.183 NA
ATOM      9  O   UNL d   1      57.892   0.682  28.787  0.00  0.00    -0.265 OA
BRANCH   8  10
ATOM     10  C   UNL d   1      60.019   0.282  28.999  0.00  0.00     0.197 A 
ATOM     11  N   UNL d   1      60.418   0.251  29.726  0.00  0.00    -0.219 NA
ATOM     12  C   UNL d   1      61.104  -0.208  29.627  0.00  0.00     0.108 A 
ATOM     13  C   UNL d   1      61.133  -0.465  28.837  0.00  0.00     0.059 A 
ATOM     14  S   UNL d   1      60.464  -0.161  28.455  0.00  0.00    -0.046 SA
ENDBRANCH   8  10
ENDBRANCH   1   7
BRANCH   2  15
ATOM     15  S   UNL d   1      57.838  -0.157  30.330  0.00  0.00    -0.113 SA
ATOM     16  C   UNL d   1      57.428  -0.381  31.007  0.00  0.00     0.074 C 
ENDBRANCH   2  15
TORSDOF 3
ENDMDL
MODEL 6
REMARK VINA RESULT:      -1.9      3.751      5.216
REMARK  3 active torsions:
REMARK  status: ('A' for Active; 'I' for Inactive)
REMARK       I    between atoms: N_2  and  C_1 
REMARK    1  A    between atoms: C_4  and  C_1 
REMARK    2  A    between atoms: C_3  and  N_2 
REMARK    3  A    between atoms: S_11  and  C_7 
ROOT
ATOM      1  C   UNL d   1      59.863  -1.356  28.794  0.00  0.00     0.064 A 
ATOM      2  C   UNL d   1      60.084  -2.081  29.115  0.00  0.00     0.030 A 
ATOM      3  C   UNL d   1      59.107  -1.260  28.462  0.00  0.00     0.005 A 
ATOM      4  C   UNL d   1      59.556  -2.715  29.108  0.00  0.00     0.006 A 
ATOM      5  C   UNL d   1      58.579  -1.894  28.455  0.00  0.00     0.000 A 
ATOM      6  C   UNL d   1      58.807  -2.623  28.780  0.00  0.00     0.001 A 
ENDROOT
BRANCH   1   7
ATOM      7  C   UNL d   1      60.391  -0.722  28.801  0.00  0.00     0.281 C 
ATOM      8  N   UNL d   1      60.170  -0.006  29.159  0.00  0.00    -0.183 NA
ATOM      9  O   UNL d   1      61.133  -0.800  28.456  0.00  0.00    -0.265 OA
BRANCH   8  10
ATOM     10  C   UNL d   1      59.438   0.074  29.501  0.00  0.00     0.197 A 
ATOM     11  N   UNL d   1      59.235  -0.148  30.274  0.00  0.00    -0.219 NA
ATOM     12  C   UNL d   1      58.433   0.031  30.394  0.00  0.00     0.108 A 
ATOM     13  C   UNL d   1      58.133   0.367  29.694  0.00  0.00     0.059 A 
ATOM     14  S   UNL d   1      58.756   0.391  29.148  0.00  0.00    -0.046 SA
ENDBRANCH   8  10
ENDBRANCH   1   7
BRANCH   2  15
ATOM     15  S   UNL d   1      60.834  -2.172  29.443  0.00  0.00    -0.113 SA
ATOM     16  C   UNL d   1      61.117  -2.926  29.615  0.00  0.00     0.074 C 
ENDBRANCH   2  15
TORSDOF 3
ENDMDL
MODEL 7
REMARK VINA RESULT:      -1.9      3.472      4.908
REMARK  3 active torsions:
REMARK  status: ('A' for Active; 'I' for Inactive)
REMARK       I    between atoms: N_2  and  C_1 
REMARK    1  A    between atoms: C_4  and  C_1 
REMARK    2  A    between atoms: C_3  and  N_2 
REMARK    3  A    between atoms: S_11  and  C_7 
ROOT
ATOM      1  C   UNL d   1      59.405  -0.268  29.205  0.00  0.00     0.064 A 
ATOM      2  C   UNL d   1      59.207   0.022  29.950  0.00  0.00     0.030 A 
ATOM      3  C   UNL d   1      60.180  -0.185  28.918  0.00  0.00     0.005 A 
ATOM      4  C   UNL d   1      59.778   0.396  30.413  0.00  0.00     0.006 A 
ATOM      5  C   UNL d   1      60.751   0.189  29.381  0.00  0.00     0.000 A 
ATOM      6  C   UNL d   1      60.547   0.480  30.132  0.00  0.00     0.001 A 
ENDROOT
BRANCH   1   7
ATOM      7  C   UNL d   1      58.834  -0.642  28.742  0.00  0.00     0.281 C 
ATOM      8  N   UNL d   1      58.915  -1.448  28.559  0.00  0.00    -0.183 NA
ATOM      9  O   UNL d   1      58.187  -0.218  28.463  0.00  0.00    -0.265 OA
BRANCH   8  10
ATOM     10  C   UNL d   1      59.552  -1.869  28.833  0.00  0.00     0.197 A 
ATOM     11  N   UNL d   1      59.588  -2.287  29.549  0.00  0.00    -0.219 NA
ATOM     12  C   UNL d   1      60.340  -2.636  29.609  0.00  0.00     0.108 A 
ATOM     13  C   UNL d   1      60.775  -2.436  28.929  0.00  0.00     0.059 A 
ATOM     14  S   UNL d   1      60.286  -1.964  28.455  0.00  0.00    -0.046 SA
ENDBRANCH   8  10
ENDBRANCH   1   7
BRANCH   2  15
ATOM     15  S   UNL d   1      58.438  -0.063  30.232  0.00  0.00    -0.113 SA
ATOM     16  C   UNL d   1      58.153   0.453  30.806  0.00  0.00     0.074 C 
ENDBRANCH   2  15
TORSDOF 3
ENDMDL
MODEL 8
REMARK VINA RESULT:      -1.6      3.137      4.468
REMARK  3 active torsions:
REMARK  status: ('A' for Active; 'I' for Inactive)
REMARK       I    between atoms: N_2  and  C_1 
REMARK    1  A    between atoms: C_4  and  C_1 
REMARK    2  A    between atoms: C_3  and  N_2 
REMARK    3  A    between atoms: S_11  and  C_7 
ROOT
ATOM      1  C   UNL d   1      58.643  -0.798  29.251  0.00  0.00     0.064 A 
ATOM      2  C   UNL d   1      58.197  -0.583  29.909  0.00  0.00     0.030 A 
ATOM      3  C   UNL d   1      58.728  -0.270  28.615  0.00  0.00     0.005 A 
ATOM      4  C   UNL d   1      57.833   0.157  29.938  0.00  0.00     0.006 A 
ATOM      5  C   UNL d   1      58.364   0.470  28.644  0.00  0.00     0.000 A 
ATOM      6  C   UNL d   1      57.915   0.682  29.310  0.00  0.00     0.001 A 
ENDROOT
BRANCH   1   7
ATOM      7  C   UNL d   1      59.006  -1.538  29.222  0.00  0.00     0.281 C 
ATOM      8  N   UNL d   1      59.833  -1.588  29.164  0.00  0.00    -0.183 NA
ATOM      9  O   UNL d   1      58.551  -2.222  29.249  0.00  0.00    -0.265 OA
BRANCH   8  10
ATOM     10  C   UNL d   1      60.285  -0.915  29.137  0.00  0.00     0.197 A 
ATOM     11  N   UNL d   1      60.534  -0.469  29.791  0.00  0.00    -0.219 NA
ATOM     12  C   UNL d   1      60.983   0.173  29.513  0.00  0.00     0.108 A 
ATOM     13  C   UNL d   1      61.015   0.128  28.683  0.00  0.00     0.059 A 
ATOM     14  S   UNL d   1      60.584  -0.543  28.457  0.00  0.00    -0.046 SA
ENDBRANCH   8  10
ENDBRANCH   1   7
BRANCH   2  15
ATOM     15  S   UNL d   1      58.115  -1.109  30.537  0.00  0.00    -0.113 SA
ATOM     16  C   UNL d   1      57.490  -1.019  31.066  0.00  0.00     0.074 C 
ENDBRANCH   2  15
TORSDOF 3
ENDMDL
MODEL 9
REMARK VINA RESULT:      -1.6      3.693      5.373
REMARK  3 active torsions:
REMARK  status: ('A' for Active; 'I' for Inactive)
REMARK       I    between atoms: N_2  and  C_1 
REMARK    1  A    between atoms: C_4  and  C_1 
REMARK    2  A    between atoms: C_3  and  N_2 
REMARK    3  A    between atoms: S_11  and  C_7 
ROOT
ATOM      1  C   UNL d   1      59.675  -1.362  28.795  0.00  0.00     0.064 A 
ATOM      2  C   UNL d   1      60.339  -1.728  29.115  0.00  0.00     0.030 A 
ATOM      3  C   UNL d   1      59.737  -0.603  28.463  0.00  0.00     0.005 A 
ATOM      4  C   UNL d   1      61.068  -1.342  29.108  0.00  0.00     0.006 A 
ATOM      5  C   UNL d   1      60.466  -0.217  28.456  0.00  0.00     0.000 A 
ATOM      6  C   UNL d   1      61.133  -0.590  28.781  0.00  0.00     0.001 A 
ENDROOT
BRANCH   1   7
ATOM      7  C   UNL d   1      58.946  -1.748  28.801  0.00  0.00     0.281 C 
ATOM      8  N   UNL d   1      58.290  -1.385  29.159  0.00  0.00    -0.183 NA
ATOM      9  O   UNL d   1      58.869  -2.490  28.455  0.00  0.00    -0.265 OA
BRANCH   8  10
ATOM     10  C   UNL d   1      58.363  -0.652  29.502  0.00  0.00     0.197 A 
ATOM     11  N   UNL d   1      58.313   0.076  29.108  0.00  0.00    -0.219 NA
ATOM     12  C   UNL d   1      58.419   0.682  29.667  0.00  0.00     0.108 A 
ATOM     13  C   UNL d   1      58.536   0.331  30.412  0.00  0.00     0.059 A 
ATOM     14  S   UNL d   1      58.500  -0.490  30.305  0.00  0.00    -0.046 SA
ENDBRANCH   8  10
ENDBRANCH   1   7
BRANCH   2  15
ATOM     15  S   UNL d   1      60.273  -2.481  29.444  0.00  0.00    -0.113 SA
ATOM     16  C   UNL d   1      60.949  -2.934  29.567  0.00  0.00     0.074 C 
ENDBRANCH   2  15
TORSDOF 3
ENDMDL
