MODEL 1
REMARK VINA RESULT:      -4.4      0.000      0.000
REMARK  6 active torsions:
REMARK  status: ('A' for Active; 'I' for Inactive)
REMARK    1  A    between atoms: C_2  and  S_1 
REMARK    2  A    between atoms: C_13  and  S_1 
REMARK    3  A    between atoms: C_5  and  C_3 
REMARK    4  A    between atoms: C_19  and  C_5 
REMARK    5  A    between atoms: O_25  and  C_22 
REMARK    6  A    between atoms: C_30  and  O_25 
ROOT
ATOM      1  C   UNL d   1     -40.074  14.682  20.408  0.00  0.00     0.094 A 
ATOM      2  C   UNL d   1     -39.926  14.759  19.595  0.00  0.00     0.069 A 
ATOM      3  C   UNL d   1     -39.544  14.991  20.956  0.00  0.00     0.031 A 
ATOM      4  C   UNL d   1     -38.862  15.380  20.698  0.00  0.00     0.084 A 
ATOM      5  C   UNL d   1     -39.693  14.914  21.762  0.00  0.00     0.029 A 
ATOM      6  N   UNL d   1     -38.712  15.458  19.893  0.00  0.00    -0.244 NA
ATOM      7  C   UNL d   1     -39.244  15.147  19.337  0.00  0.00     0.103 A 
ATOM      8  C   UNL d   1     -38.331  15.689  21.246  0.00  0.00     0.046 A 
ATOM      9  C   UNL d   1     -39.163  15.223  22.309  0.00  0.00     0.123 A 
ATOM     10  C   UNL d   1     -38.481  15.611  22.051  0.00  0.00     0.124 A 
ATOM     11  O   UNL d   1     -39.312  15.145  23.115  0.00  0.00    -0.301 OA
ATOM     12  O   UNL d   1     -37.950  15.921  22.600  0.00  0.00    -0.301 OA
ATOM     13  C   UNL d   1     -38.099  15.844  23.410  0.00  0.00     0.149 A 
ATOM     14  C   UNL d   1     -38.781  15.455  23.668  0.00  0.00     0.149 A 
ENDROOT
BRANCH   1  15
ATOM     15  S   UNL d   1     -40.752  14.296  20.678  0.00  0.00     0.210 S 
ATOM     16  O   UNL d   1     -40.370  13.566  20.630  0.00  0.00    -0.217 OA
ATOM     17  O   UNL d   1     -41.133  15.026  20.726  0.00  0.00    -0.217 OA
BRANCH  15  18
ATOM     18  C   UNL d   1     -41.435  13.921  20.948  0.00  0.00     0.088 A 
ATOM     19  C   UNL d   1     -41.410  13.117  21.140  0.00  0.00     0.013 A 
ATOM     20  C   UNL d   1     -42.098  12.739  21.411  0.00  0.00     0.025 A 
ATOM     21  C   UNL d   1     -42.798  13.164  21.488  0.00  0.00     0.100 A 
ATOM     22  C   UNL d   1     -42.827  13.968  21.297  0.00  0.00     0.025 A 
ATOM     23  C   UNL d   1     -42.136  14.347  21.025  0.00  0.00     0.013 A 
BRANCH  21  24
ATOM     24  O   UNL d   1     -43.492  12.792  21.760  0.00  0.00    -0.305 OA
BRANCH  24  25
ATOM     25  C   UNL d   1     -44.232  13.121  21.608  0.00  0.00     0.123 C 
ATOM     26  C   UNL d   1     -44.902  12.802  21.963  0.00  0.00     0.029 C 
ENDBRANCH  24  25
ENDBRANCH  21  24
ENDBRANCH  15  18
ENDBRANCH   1  15
BRANCH   2  27
ATOM     27  C   UNL d   1     -40.458  14.448  19.042  0.00  0.00     0.198 C 
ATOM     28  O   UNL d   1     -40.914  13.786  19.228  0.00  0.00    -0.286 OA
BRANCH  27  29
ATOM     29  C   UNL d   1     -40.533  14.804  18.302  0.00  0.00     0.039 A 
ATOM     30  C   UNL d   1     -40.990  15.490  18.207  0.00  0.00     0.003 A 
ATOM     31  C   UNL d   1     -41.065  15.846  17.467  0.00  0.00     0.000 A 
ATOM     32  C   UNL d   1     -40.686  15.523  16.809  0.00  0.00     0.000 A 
ATOM     33  C   UNL d   1     -40.225  14.833  16.902  0.00  0.00     0.000 A 
ATOM     34  C   UNL d   1     -40.148  14.475  17.640  0.00  0.00     0.003 A 
ENDBRANCH  27  29
ENDBRANCH   2  27
TORSDOF 6
ENDMDL
MODEL 2
REMARK VINA RESULT:      -4.1      0.944      3.691
REMARK  6 active torsions:
REMARK  status: ('A' for Active; 'I' for Inactive)
REMARK    1  A    between atoms: C_2  and  S_1 
REMARK    2  A    between atoms: C_13  and  S_1 
REMARK    3  A    between atoms: C_5  and  C_3 
REMARK    4  A    between atoms: C_19  and  C_5 
REMARK    5  A    between atoms: O_25  and  C_22 
REMARK    6  A    between atoms: C_30  and  O_25 
ROOT
ATOM      1  C   UNL d   1     -39.765  15.081  20.479  0.00  0.00     0.094 A 
ATOM      2  C   UNL d   1     -39.335  15.438  21.092  0.00  0.00     0.069 A 
ATOM      3  C   UNL d   1     -39.508  15.145  19.700  0.00  0.00     0.031 A 
ATOM      4  C   UNL d   1     -38.819  15.566  19.526  0.00  0.00     0.084 A 
ATOM      5  C   UNL d   1     -39.938  14.789  19.095  0.00  0.00     0.029 A 
ATOM      6  N   UNL d   1     -38.389  15.922  20.130  0.00  0.00    -0.244 NA
ATOM      7  C   UNL d   1     -38.646  15.859  20.918  0.00  0.00     0.103 A 
ATOM      8  C   UNL d   1     -38.562  15.631  18.746  0.00  0.00     0.046 A 
ATOM      9  C   UNL d   1     -39.680  14.854  18.316  0.00  0.00     0.123 A 
ATOM     10  C   UNL d   1     -38.992  15.275  18.142  0.00  0.00     0.124 A 
ATOM     11  O   UNL d   1     -40.110  14.498  17.710  0.00  0.00    -0.301 OA
ATOM     12  O   UNL d   1     -38.734  15.340  17.362  0.00  0.00    -0.301 OA
ATOM     13  C   UNL d   1     -39.164  14.983  16.752  0.00  0.00     0.149 A 
ATOM     14  C   UNL d   1     -39.853  14.562  16.927  0.00  0.00     0.149 A 
ENDROOT
BRANCH   1  15
ATOM     15  S   UNL d   1     -40.455  14.657  20.641  0.00  0.00     0.210 S 
ATOM     16  O   UNL d   1     -40.911  15.336  20.533  0.00  0.00    -0.217 OA
ATOM     17  O   UNL d   1     -39.998  13.979  20.750  0.00  0.00    -0.217 OA
BRANCH  15  18
ATOM     18  C   UNL d   1     -41.138  14.224  20.805  0.00  0.00     0.088 A 
ATOM     19  C   UNL d   1     -41.866  14.615  20.857  0.00  0.00     0.013 A 
ATOM     20  C   UNL d   1     -42.553  14.179  21.022  0.00  0.00     0.025 A 
ATOM     21  C   UNL d   1     -42.508  13.365  21.133  0.00  0.00     0.100 A 
ATOM     22  C   UNL d   1     -41.782  12.972  21.082  0.00  0.00     0.025 A 
ATOM     23  C   UNL d   1     -41.092  13.410  20.916  0.00  0.00     0.013 A 
BRANCH  21  24
ATOM     24  O   UNL d   1     -43.193  12.921  21.299  0.00  0.00    -0.305 OA
BRANCH  24  25
ATOM     25  C   UNL d   1     -43.888  13.295  21.535  0.00  0.00     0.123 C 
ATOM     26  C   UNL d   1     -44.487  12.857  21.892  0.00  0.00     0.029 C 
ENDBRANCH  24  25
ENDBRANCH  21  24
ENDBRANCH  15  18
ENDBRANCH   1  15
BRANCH   2  27
ATOM     27  C   UNL d   1     -39.592  15.374  21.876  0.00  0.00     0.198 C 
ATOM     28  O   UNL d   1     -40.391  15.456  22.061  0.00  0.00    -0.286 OA
BRANCH  27  29
ATOM     29  C   UNL d   1     -39.044  15.229  22.476  0.00  0.00     0.039 A 
ATOM     30  C   UNL d   1     -38.763  15.850  22.949  0.00  0.00     0.003 A 
ATOM     31  C   UNL d   1     -38.215  15.705  23.550  0.00  0.00     0.000 A 
ATOM     32  C   UNL d   1     -37.940  14.940  23.687  0.00  0.00     0.000 A 
ATOM     33  C   UNL d   1     -38.222  14.314  23.210  0.00  0.00     0.000 A 
ATOM     34  C   UNL d   1     -38.768  14.454  22.611  0.00  0.00     0.003 A 
ENDBRANCH  27  29
ENDBRANCH   2  27
TORSDOF 6
ENDMDL
MODEL 3
REMARK VINA RESULT:      -2.9      2.187      3.629
REMARK  6 active torsions:
REMARK  status: ('A' for Active; 'I' for Inactive)
REMARK    1  A    between atoms: C_2  and  S_1 
REMARK    2  A    between atoms: C_13  and  S_1 
REMARK    3  A    between atoms: C_5  and  C_3 
REMARK    4  A    between atoms: C_19  and  C_5 
REMARK    5  A    between atoms: O_25  and  C_22 
REMARK    6  A    between atoms: C_30  and  O_25 
ROOT
ATOM      1  C   UNL d   1     -39.049  14.270  19.089  0.00  0.00     0.094 A 
ATOM      2  C   UNL d   1     -38.470  13.737  18.824  0.00  0.00     0.069 A 
ATOM      3  C   UNL d   1     -39.095  14.467  19.886  0.00  0.00     0.031 A 
ATOM      4  C   UNL d   1     -38.565  14.135  20.426  0.00  0.00     0.084 A 
ATOM      5  C   UNL d   1     -39.671  14.995  20.146  0.00  0.00     0.029 A 
ATOM      6  N   UNL d   1     -37.990  13.607  20.167  0.00  0.00    -0.244 NA
ATOM      7  C   UNL d   1     -37.940  13.406  19.363  0.00  0.00     0.103 A 
ATOM      8  C   UNL d   1     -38.612  14.333  21.224  0.00  0.00     0.046 A 
ATOM      9  C   UNL d   1     -39.718  15.193  20.943  0.00  0.00     0.123 A 
ATOM     10  C   UNL d   1     -39.188  14.861  21.483  0.00  0.00     0.124 A 
ATOM     11  O   UNL d   1     -40.293  15.721  21.202  0.00  0.00    -0.301 OA
ATOM     12  O   UNL d   1     -39.235  15.059  22.281  0.00  0.00    -0.301 OA
ATOM     13  C   UNL d   1     -39.812  15.589  22.543  0.00  0.00     0.149 A 
ATOM     14  C   UNL d   1     -40.342  15.921  22.003  0.00  0.00     0.149 A 
ENDROOT
BRANCH   1  15
ATOM     15  S   UNL d   1     -39.583  14.607  18.559  0.00  0.00     0.210 S 
ATOM     16  O   UNL d   1     -39.087  15.257  18.453  0.00  0.00    -0.217 OA
ATOM     17  O   UNL d   1     -40.080  13.957  18.665  0.00  0.00    -0.217 OA
BRANCH  15  18
ATOM     18  C   UNL d   1     -40.125  14.935  18.030  0.00  0.00     0.088 A 
ATOM     19  C   UNL d   1     -40.936  14.837  18.163  0.00  0.00     0.013 A 
ATOM     20  C   UNL d   1     -41.481  15.166  17.631  0.00  0.00     0.025 A 
ATOM     21  C   UNL d   1     -41.215  15.588  16.977  0.00  0.00     0.100 A 
ATOM     22  C   UNL d   1     -40.406  15.688  16.840  0.00  0.00     0.025 A 
ATOM     23  C   UNL d   1     -39.858  15.357  17.375  0.00  0.00     0.013 A 
BRANCH  21  24
ATOM     24  O   UNL d   1     -41.756  15.922  16.439  0.00  0.00    -0.305 OA
BRANCH  24  25
ATOM     25  C   UNL d   1     -42.066  15.472  15.822  0.00  0.00     0.123 C 
ATOM     26  C   UNL d   1     -42.779  15.692  15.473  0.00  0.00     0.029 C 
ENDBRANCH  24  25
ENDBRANCH  21  24
ENDBRANCH  15  18
ENDBRANCH   1  15
BRANCH   2  27
ATOM     27  C   UNL d   1     -38.421  13.537  18.023  0.00  0.00     0.198 C 
ATOM     28  O   UNL d   1     -38.527  14.113  17.441  0.00  0.00    -0.286 OA
BRANCH  27  29
ATOM     29  C   UNL d   1     -38.265  12.757  17.804  0.00  0.00     0.039 A 
ATOM     30  C   UNL d   1     -38.184  12.166  18.380  0.00  0.00     0.003 A 
ATOM     31  C   UNL d   1     -38.028  11.385  18.163  0.00  0.00     0.000 A 
ATOM     32  C   UNL d   1     -37.950  11.183  17.367  0.00  0.00     0.000 A 
ATOM     33  C   UNL d   1     -38.031  11.777  16.785  0.00  0.00     0.000 A 
ATOM     34  C   UNL d   1     -38.187  12.557  16.999  0.00  0.00     0.003 A 
ENDBRANCH  27  29
ENDBRANCH   2  27
TORSDOF 6
ENDMDL
