MODEL 1
REMARK VINA RESULT:      -3.7      0.000      0.000
REMARK  5 active torsions:
REMARK  status: ('A' for Active; 'I' for Inactive)
REMARK    1  A    between atoms: C_2  and  N_8 
REMARK    2  A    between atoms: C_14  and  C_4 
REMARK    3  A    between atoms: S_13  and  C_5 
REMARK       I    between atoms: N_8  and  C_11 
REMARK    4  A    between atoms: C_11  and  C_17 
REMARK    5  A    between atoms: C_17  and  S_13 
ROOT
ATOM      1  O   UNL d   1     -41.629-122.075 -53.191  0.00  0.00    -0.263 OA
ATOM      2  N   UNL d   1     -41.554-123.351 -53.571  0.00  0.00    -0.120 NA
ATOM      3  C   UNL d   1     -41.762-122.601 -53.821  0.00  0.00     0.205 A 
ATOM      4  C   UNL d   1     -41.338-122.517 -52.557  0.00  0.00     0.236 A 
ATOM      5  N   UNL d   1     -41.291-123.302 -52.789  0.00  0.00    -0.114 NA
ENDROOT
BRANCH   4   6
ATOM      6  S   UNL d   1     -41.123-122.225 -51.802  0.00  0.00    -0.036 SA
BRANCH   6   7
ATOM      7  C   UNL d   1     -41.688-122.176 -51.201  0.00  0.00     0.101 C 
BRANCH   7   8
ATOM      8  C   UNL d   1     -41.581-121.639 -50.584  0.00  0.00     0.288 C 
ATOM      9  N   UNL d   1     -41.928-121.777 -49.848  0.00  0.00    -0.182 NA
ATOM     10  O   UNL d   1     -41.123-120.954 -50.699  0.00  0.00    -0.265 OA
BRANCH   9  11
ATOM     11  C   UNL d   1     -42.379-122.449 -49.733  0.00  0.00     0.197 A 
ATOM     12  N   UNL d   1     -43.172-122.626 -49.925  0.00  0.00    -0.221 NA
ATOM     13  C   UNL d   1     -43.317-123.392 -49.673  0.00  0.00     0.090 A 
ATOM     14  C   UNL d   1     -44.046-123.800 -49.754  0.00  0.00     0.021 C 
ATOM     15  C   UNL d   1     -42.641-123.693 -49.333  0.00  0.00     0.058 A 
ATOM     16  S   UNL d   1     -42.062-123.112 -49.369  0.00  0.00    -0.046 SA
ENDBRANCH   9  11
ENDBRANCH   7   8
ENDBRANCH   6   7
ENDBRANCH   4   6
BRANCH   3  17
ATOM     17  C   UNL d   1     -42.057-122.348 -54.553  0.00  0.00     0.046 A 
ATOM     18  C   UNL d   1     -41.544-122.111 -55.154  0.00  0.00     0.024 A 
ATOM     19  C   UNL d   1     -41.839-121.859 -55.879  0.00  0.00     0.099 A 
ATOM     20  N   UNL d   1     -42.661-121.844 -56.009  0.00  0.00    -0.242 NA
ATOM     21  C   UNL d   1     -43.170-122.082 -55.404  0.00  0.00     0.099 A 
ATOM     22  C   UNL d   1     -42.868-122.333 -54.679  0.00  0.00     0.024 A 
ENDBRANCH   3  17
TORSDOF 5
ENDMDL
MODEL 2
REMARK VINA RESULT:      -2.9      1.451      4.938
REMARK  5 active torsions:
REMARK  status: ('A' for Active; 'I' for Inactive)
REMARK    1  A    between atoms: C_2  and  N_8 
REMARK    2  A    between atoms: C_14  and  C_4 
REMARK    3  A    between atoms: S_13  and  C_5 
REMARK       I    between atoms: N_8  and  C_11 
REMARK    4  A    between atoms: C_11  and  C_17 
REMARK    5  A    between atoms: C_17  and  S_13 
ROOT
ATOM      1  O   UNL d   1     -41.551-122.782 -50.371  0.00  0.00    -0.263 OA
ATOM      2  N   UNL d   1     -42.374-123.817 -50.546  0.00  0.00    -0.120 NA
ATOM      3  C   UNL d   1     -42.063-123.312 -49.985  0.00  0.00     0.205 A 
ATOM      4  C   UNL d   1     -41.556-122.975 -51.174  0.00  0.00     0.236 A 
ATOM      5  N   UNL d   1     -42.062-123.612 -51.284  0.00  0.00    -0.114 NA
ENDROOT
BRANCH   4   6
ATOM      6  S   UNL d   1     -41.124-122.593 -51.781  0.00  0.00    -0.036 SA
BRANCH   6   7
ATOM      7  C   UNL d   1     -41.514-122.308 -52.451  0.00  0.00     0.101 C 
BRANCH   7   8
ATOM      8  C   UNL d   1     -41.394-121.529 -52.692  0.00  0.00     0.288 C 
ATOM      9  N   UNL d   1     -41.513-121.313 -53.480  0.00  0.00    -0.182 NA
ATOM     10  O   UNL d   1     -41.150-120.953 -52.142  0.00  0.00    -0.265 OA
BRANCH   9  11
ATOM     11  C   UNL d   1     -41.752-121.877 -54.021  0.00  0.00     0.197 A 
ATOM     12  N   UNL d   1     -41.424-122.614 -54.237  0.00  0.00    -0.221 NA
ATOM     13  C   UNL d   1     -41.909-122.935 -54.813  0.00  0.00     0.090 A 
ATOM     14  C   UNL d   1     -41.790-123.675 -55.191  0.00  0.00     0.021 C 
ATOM     15  C   UNL d   1     -42.525-122.422 -54.960  0.00  0.00     0.058 A 
ATOM     16  S   UNL d   1     -42.428-121.769 -54.472  0.00  0.00    -0.046 SA
ENDBRANCH   9  11
ENDBRANCH   7   8
ENDBRANCH   6   7
ENDBRANCH   4   6
BRANCH   3  17
ATOM     17  C   UNL d   1     -42.194-123.281 -49.167  0.00  0.00     0.046 A 
ATOM     18  C   UNL d   1     -42.871-122.920 -48.863  0.00  0.00     0.024 A 
ATOM     19  C   UNL d   1     -42.998-122.890 -48.050  0.00  0.00     0.099 A 
ATOM     20  N   UNL d   1     -42.442-123.227 -47.532  0.00  0.00    -0.242 NA
ATOM     21  C   UNL d   1     -41.767-123.588 -47.841  0.00  0.00     0.099 A 
ATOM     22  C   UNL d   1     -41.644-123.614 -48.656  0.00  0.00     0.024 A 
ENDBRANCH   3  17
TORSDOF 5
ENDMDL
