MODEL 1
REMARK VINA RESULT:      -6.4      0.000      0.000
REMARK  6 active torsions:
REMARK  status: ('A' for Active; 'I' for Inactive)
REMARK       I    between atoms: C_3  and  N_1 
REMARK    1  A    between atoms: C_5  and  N_1 
REMARK    2  A    between atoms: C_2  and  C_3 
REMARK    3  A    between atoms: N_9  and  C_5 
REMARK    4  A    between atoms: C_13  and  N_9 
REMARK    5  A    between atoms: C_11  and  C_13 
REMARK    6  A    between atoms: C_15  and  C_11 
ROOT
ATOM      1  C   UNL d   1     -46.669  13.671  22.799  0.00  0.00     0.224 C 
ATOM      2  S   UNL d   1     -46.186  14.317  22.989  0.00  0.00    -0.037 SA
ENDROOT
BRANCH   1   3
ATOM      3  N   UNL d   1     -46.491  12.923  23.099  0.00  0.00    -0.177 NA
ATOM      4  C   UNL d   1     -45.795  12.538  22.858  0.00  0.00     0.304 C 
ATOM      5  O   UNL d   1     -45.290  12.897  22.326  0.00  0.00    -0.263 OA
BRANCH   4   6
ATOM      6  C   UNL d   1     -45.618  11.792  23.158  0.00  0.00     0.158 A 
ATOM      7  O   UNL d   1     -44.867  11.452  23.207  0.00  0.00    -0.296 OA
ATOM      8  C   UNL d   1     -44.937  10.710  23.538  0.00  0.00     0.134 A 
ATOM      9 BR   UNL d   1     -44.327  10.182  23.687  0.00  0.00    -0.022 Br
ATOM     10  C   UNL d   1     -45.735  10.581  23.698  0.00  0.00     0.034 A 
ATOM     11  C   UNL d   1     -46.160  11.256  23.461  0.00  0.00     0.032 A 
ENDBRANCH   4   6
ENDBRANCH   1   3
BRANCH   1  12
ATOM     12  N   UNL d   1     -47.323  13.783  22.312  0.00  0.00    -0.212 NA
BRANCH  12  13
ATOM     13  C   UNL d   1     -48.041  13.987  22.642  0.00  0.00     0.143 C 
BRANCH  13  14
ATOM     14  C   UNL d   1     -48.729  13.914  22.196  0.00  0.00     0.215 C 
ATOM     15  O   UNL d   1     -48.718  13.565  21.452  0.00  0.00    -0.285 OA
BRANCH  14  16
ATOM     16  C   UNL d   1     -49.450  14.195  22.493  0.00  0.00     0.041 A 
ATOM     17  C   UNL d   1     -49.617  15.004  22.457  0.00  0.00     0.003 A 
ATOM     18  C   UNL d   1     -50.333  15.291  22.751  0.00  0.00     0.000 A 
ATOM     19  C   UNL d   1     -50.885  14.766  23.082  0.00  0.00     0.000 A 
ATOM     20  C   UNL d   1     -50.718  13.957  23.117  0.00  0.00     0.000 A 
ATOM     21  C   UNL d   1     -49.998  13.673  22.821  0.00  0.00     0.003 A 
ENDBRANCH  14  16
ENDBRANCH  13  14
ENDBRANCH  12  13
ENDBRANCH   1  12
TORSDOF 6
ENDMDL
MODEL 2
REMARK VINA RESULT:      -5.6      1.809      2.117
REMARK  6 active torsions:
REMARK  status: ('A' for Active; 'I' for Inactive)
REMARK       I    between atoms: C_3  and  N_1 
REMARK    1  A    between atoms: C_5  and  N_1 
REMARK    2  A    between atoms: C_2  and  C_3 
REMARK    3  A    between atoms: N_9  and  C_5 
REMARK    4  A    between atoms: C_13  and  N_9 
REMARK    5  A    between atoms: C_11  and  C_13 
REMARK    6  A    between atoms: C_15  and  C_11 
ROOT
ATOM      1  C   UNL d   1     -46.743  13.114  22.602  0.00  0.00     0.224 C 
ATOM      2  S   UNL d   1     -46.892  13.783  23.069  0.00  0.00    -0.037 SA
ENDROOT
BRANCH   1   3
ATOM      3  N   UNL d   1     -46.005  13.017  22.248  0.00  0.00    -0.177 NA
ATOM      4  C   UNL d   1     -45.386  12.663  22.677  0.00  0.00     0.304 C 
ATOM      5  O   UNL d   1     -45.508  12.413  23.444  0.00  0.00    -0.263 OA
BRANCH   4   6
ATOM      6  C   UNL d   1     -44.648  12.567  22.323  0.00  0.00     0.158 A 
ATOM      7  O   UNL d   1     -44.303  13.072  21.770  0.00  0.00    -0.296 OA
ATOM      8  C   UNL d   1     -43.573  12.775  21.562  0.00  0.00     0.134 A 
ATOM      9 BR   UNL d   1     -43.045  13.104  21.028  0.00  0.00    -0.022 Br
ATOM     10  C   UNL d   1     -43.457  12.078  21.986  0.00  0.00     0.034 A 
ATOM     11  C   UNL d   1     -44.128  11.948  22.462  0.00  0.00     0.032 A 
ENDBRANCH   4   6
ENDBRANCH   1   3
BRANCH   1  12
ATOM     12  N   UNL d   1     -47.336  12.553  22.497  0.00  0.00    -0.212 NA
BRANCH  12  13
ATOM     13  C   UNL d   1     -48.104  12.797  22.371  0.00  0.00     0.143 C 
BRANCH  13  14
ATOM     14  C   UNL d   1     -48.697  12.236  22.267  0.00  0.00     0.215 C 
ATOM     15  O   UNL d   1     -48.523  11.434  22.244  0.00  0.00    -0.285 OA
BRANCH  14  16
ATOM     16  C   UNL d   1     -49.487  12.474  22.183  0.00  0.00     0.041 A 
ATOM     17  C   UNL d   1     -50.017  12.348  22.805  0.00  0.00     0.003 A 
ATOM     18  C   UNL d   1     -50.805  12.582  22.730  0.00  0.00     0.000 A 
ATOM     19  C   UNL d   1     -51.064  12.945  22.029  0.00  0.00     0.000 A 
ATOM     20  C   UNL d   1     -50.533  13.071  21.407  0.00  0.00     0.000 A 
ATOM     21  C   UNL d   1     -49.743  12.834  21.487  0.00  0.00     0.003 A 
ENDBRANCH  14  16
ENDBRANCH  13  14
ENDBRANCH  12  13
ENDBRANCH   1  12
TORSDOF 6
ENDMDL
MODEL 3
REMARK VINA RESULT:      -5.4      2.626      4.920
REMARK  6 active torsions:
REMARK  status: ('A' for Active; 'I' for Inactive)
REMARK       I    between atoms: C_3  and  N_1 
REMARK    1  A    between atoms: C_5  and  N_1 
REMARK    2  A    between atoms: C_2  and  C_3 
REMARK    3  A    between atoms: N_9  and  C_5 
REMARK    4  A    between atoms: C_13  and  N_9 
REMARK    5  A    between atoms: C_11  and  C_13 
REMARK    6  A    between atoms: C_15  and  C_11 
ROOT
ATOM      1  C   UNL d   1     -49.181  11.823  23.417  0.00  0.00     0.224 C 
ATOM      2  S   UNL d   1     -49.692  11.233  23.698  0.00  0.00    -0.037 SA
ENDROOT
BRANCH   1   3
ATOM      3  N   UNL d   1     -49.478  12.571  23.237  0.00  0.00    -0.177 NA
ATOM      4  C   UNL d   1     -50.164  12.640  22.771  0.00  0.00     0.304 C 
ATOM      5  O   UNL d   1     -50.541  11.972  22.493  0.00  0.00    -0.263 OA
BRANCH   4   6
ATOM      6  C   UNL d   1     -50.460  13.387  22.592  0.00  0.00     0.158 A 
ATOM      7  O   UNL d   1     -50.569  14.009  23.123  0.00  0.00    -0.296 OA
ATOM      8  C   UNL d   1     -50.874  14.649  22.719  0.00  0.00     0.134 A 
ATOM      9 BR   UNL d   1     -51.064  15.381  23.036  0.00  0.00    -0.022 Br
ATOM     10  C   UNL d   1     -50.957  14.429  21.929  0.00  0.00     0.034 A 
ATOM     11  C   UNL d   1     -50.699  13.642  21.849  0.00  0.00     0.032 A 
ENDBRANCH   4   6
ENDBRANCH   1   3
BRANCH   1  12
ATOM     12  N   UNL d   1     -48.381  11.655  23.322  0.00  0.00    -0.212 NA
BRANCH  12  13
ATOM     13  C   UNL d   1     -47.824  12.211  23.538  0.00  0.00     0.143 C 
BRANCH  13  14
ATOM     14  C   UNL d   1     -47.026  12.057  23.410  0.00  0.00     0.215 C 
ATOM     15  O   UNL d   1     -46.705  11.318  23.569  0.00  0.00    -0.285 OA
BRANCH  14  16
ATOM     16  C   UNL d   1     -46.529  12.652  23.115  0.00  0.00     0.041 A 
ATOM     17  C   UNL d   1     -45.830  12.442  22.726  0.00  0.00     0.003 A 
ATOM     18  C   UNL d   1     -45.330  13.028  22.430  0.00  0.00     0.000 A 
ATOM     19  C   UNL d   1     -45.530  13.828  22.524  0.00  0.00     0.000 A 
ATOM     20  C   UNL d   1     -46.229  14.038  22.913  0.00  0.00     0.000 A 
ATOM     21  C   UNL d   1     -46.728  13.446  23.208  0.00  0.00     0.003 A 
ENDBRANCH  14  16
ENDBRANCH  13  14
ENDBRANCH  12  13
ENDBRANCH   1  12
TORSDOF 6
ENDMDL
MODEL 4
REMARK VINA RESULT:      -5.2      2.469      4.955
REMARK  6 active torsions:
REMARK  status: ('A' for Active; 'I' for Inactive)
REMARK       I    between atoms: C_3  and  N_1 
REMARK    1  A    between atoms: C_5  and  N_1 
REMARK    2  A    between atoms: C_2  and  C_3 
REMARK    3  A    between atoms: N_9  and  C_5 
REMARK    4  A    between atoms: C_13  and  N_9 
REMARK    5  A    between atoms: C_11  and  C_13 
REMARK    6  A    between atoms: C_15  and  C_11 
ROOT
ATOM      1  C   UNL d   1     -48.071  12.137  23.393  0.00  0.00     0.224 C 
ATOM      2  S   UNL d   1     -48.212  11.362  23.652  0.00  0.00    -0.037 SA
ENDROOT
BRANCH   1   3
ATOM      3  N   UNL d   1     -48.648  12.535  22.958  0.00  0.00    -0.177 NA
ATOM      4  C   UNL d   1     -49.444  12.302  23.020  0.00  0.00     0.304 C 
ATOM      5  O   UNL d   1     -49.655  11.684  23.509  0.00  0.00    -0.263 OA
BRANCH   4   6
ATOM      6  C   UNL d   1     -50.020  12.699  22.584  0.00  0.00     0.158 A 
ATOM      7  O   UNL d   1     -50.137  13.516  22.562  0.00  0.00    -0.296 OA
ATOM      8  C   UNL d   1     -50.762  13.677  22.064  0.00  0.00     0.134 A 
ATOM      9 BR   UNL d   1     -51.064  14.419  21.884  0.00  0.00    -0.022 Br
ATOM     10  C   UNL d   1     -51.041  12.960  21.772  0.00  0.00     0.034 A 
ATOM     11  C   UNL d   1     -50.578  12.349  22.096  0.00  0.00     0.032 A 
ENDBRANCH   4   6
ENDBRANCH   1   3
BRANCH   1  12
ATOM     12  N   UNL d   1     -47.356  12.503  23.575  0.00  0.00    -0.212 NA
BRANCH  12  13
ATOM     13  C   UNL d   1     -46.722  12.421  23.068  0.00  0.00     0.143 C 
BRANCH  13  14
ATOM     14  C   UNL d   1     -46.078  12.928  23.139  0.00  0.00     0.215 C 
ATOM     15  O   UNL d   1     -46.073  13.533  23.695  0.00  0.00    -0.285 OA
BRANCH  14  16
ATOM     16  C   UNL d   1     -45.418  12.835  22.646  0.00  0.00     0.041 A 
ATOM     17  C   UNL d   1     -45.303  13.360  22.017  0.00  0.00     0.003 A 
ATOM     18  C   UNL d   1     -44.649  13.274  21.522  0.00  0.00     0.000 A 
ATOM     19  C   UNL d   1     -44.106  12.660  21.656  0.00  0.00     0.000 A 
ATOM     20  C   UNL d   1     -44.221  12.135  22.285  0.00  0.00     0.000 A 
ATOM     21  C   UNL d   1     -44.879  12.225  22.780  0.00  0.00     0.003 A 
ENDBRANCH  14  16
ENDBRANCH  13  14
ENDBRANCH  12  13
ENDBRANCH   1  12
TORSDOF 6
ENDMDL
MODEL 5
REMARK VINA RESULT:      -5.2      2.317      5.144
REMARK  6 active torsions:
REMARK  status: ('A' for Active; 'I' for Inactive)
REMARK       I    between atoms: C_3  and  N_1 
REMARK    1  A    between atoms: C_5  and  N_1 
REMARK    2  A    between atoms: C_2  and  C_3 
REMARK    3  A    between atoms: N_9  and  C_5 
REMARK    4  A    between atoms: C_13  and  N_9 
REMARK    5  A    between atoms: C_11  and  C_13 
REMARK    6  A    between atoms: C_15  and  C_11 
ROOT
ATOM      1  C   UNL d   1     -48.036  13.153  22.197  0.00  0.00     0.224 C 
ATOM      2  S   UNL d   1     -48.169  12.810  21.454  0.00  0.00    -0.037 SA
ENDROOT
BRANCH   1   3
ATOM      3  N   UNL d   1     -48.573  13.702  22.497  0.00  0.00    -0.177 NA
ATOM      4  C   UNL d   1     -49.357  13.470  22.649  0.00  0.00     0.304 C 
ATOM      5  O   UNL d   1     -49.595  12.703  22.504  0.00  0.00    -0.263 OA
BRANCH   4   6
ATOM      6  C   UNL d   1     -49.894  14.019  22.949  0.00  0.00     0.158 A 
ATOM      7  O   UNL d   1     -49.726  14.799  23.161  0.00  0.00    -0.296 OA
ATOM      8  C   UNL d   1     -50.410  15.150  23.431  0.00  0.00     0.134 A 
ATOM      9 BR   UNL d   1     -50.491  15.922  23.698  0.00  0.00    -0.022 Br
ATOM     10  C   UNL d   1     -51.012  14.589  23.390  0.00  0.00     0.034 A 
ATOM     11  C   UNL d   1     -50.691  13.883  23.089  0.00  0.00     0.032 A 
ENDBRANCH   4   6
ENDBRANCH   1   3
BRANCH   1  12
ATOM     12  N   UNL d   1     -47.368  12.941  22.628  0.00  0.00    -0.212 NA
BRANCH  12  13
ATOM     13  C   UNL d   1     -46.627  13.084  22.318  0.00  0.00     0.143 C 
BRANCH  13  14
ATOM     14  C   UNL d   1     -45.959  12.938  22.777  0.00  0.00     0.215 C 
ATOM     15  O   UNL d   1     -46.004  12.918  23.597  0.00  0.00    -0.285 OA
BRANCH  14  16
ATOM     16  C   UNL d   1     -45.225  12.807  22.415  0.00  0.00     0.041 A 
ATOM     17  C   UNL d   1     -44.753  12.177  22.670  0.00  0.00     0.003 A 
ATOM     18  C   UNL d   1     -44.021  12.039  22.315  0.00  0.00     0.000 A 
ATOM     19  C   UNL d   1     -43.759  12.534  21.701  0.00  0.00     0.000 A 
ATOM     20  C   UNL d   1     -44.231  13.163  21.446  0.00  0.00     0.000 A 
ATOM     21  C   UNL d   1     -44.966  13.298  21.806  0.00  0.00     0.003 A 
ENDBRANCH  14  16
ENDBRANCH  13  14
ENDBRANCH  12  13
ENDBRANCH   1  12
TORSDOF 6
ENDMDL
MODEL 6
REMARK VINA RESULT:      -5.1      8.917     10.139
REMARK  6 active torsions:
REMARK  status: ('A' for Active; 'I' for Inactive)
REMARK       I    between atoms: C_3  and  N_1 
REMARK    1  A    between atoms: C_5  and  N_1 
REMARK    2  A    between atoms: C_2  and  C_3 
REMARK    3  A    between atoms: N_9  and  C_5 
REMARK    4  A    between atoms: C_13  and  N_9 
REMARK    5  A    between atoms: C_11  and  C_13 
REMARK    6  A    between atoms: C_15  and  C_11 
ROOT
ATOM      1  C   UNL d   1     -39.977  14.622  18.716  0.00  0.00     0.224 C 
ATOM      2  S   UNL d   1     -40.768  14.408  18.593  0.00  0.00    -0.037 SA
ENDROOT
BRANCH   1   3
ATOM      3  N   UNL d   1     -39.429  14.537  18.105  0.00  0.00    -0.177 NA
ATOM      4  C   UNL d   1     -39.569  14.905  17.373  0.00  0.00     0.304 C 
ATOM      5  O   UNL d   1     -40.244  15.349  17.257  0.00  0.00    -0.263 OA
BRANCH   4   6
ATOM      6  C   UNL d   1     -39.022  14.820  16.763  0.00  0.00     0.158 A 
ATOM      7  O   UNL d   1     -38.845  14.122  16.360  0.00  0.00    -0.296 OA
ATOM      8  C   UNL d   1     -38.274  14.279  15.800  0.00  0.00     0.134 A 
ATOM      9 BR   UNL d   1     -37.940  13.741  15.278  0.00  0.00    -0.022 Br
ATOM     10  C   UNL d   1     -38.090  15.080  15.849  0.00  0.00     0.034 A 
ATOM     11  C   UNL d   1     -38.556  15.419  16.450  0.00  0.00     0.032 A 
ENDBRANCH   4   6
ENDBRANCH   1   3
BRANCH   1  12
ATOM     12  N   UNL d   1     -39.746  14.919  19.448  0.00  0.00    -0.212 NA
BRANCH  12  13
ATOM     13  C   UNL d   1     -39.548  14.401  20.048  0.00  0.00     0.143 C 
BRANCH  13  14
ATOM     14  C   UNL d   1     -39.230  14.694  20.748  0.00  0.00     0.215 C 
ATOM     15  O   UNL d   1     -39.200  15.501  20.896  0.00  0.00    -0.285 OA
BRANCH  14  16
ATOM     16  C   UNL d   1     -38.933  14.173  21.320  0.00  0.00     0.041 A 
ATOM     17  C   UNL d   1     -39.344  14.073  22.031  0.00  0.00     0.003 A 
ATOM     18  C   UNL d   1     -39.055  13.556  22.606  0.00  0.00     0.000 A 
ATOM     19  C   UNL d   1     -38.351  13.137  22.470  0.00  0.00     0.000 A 
ATOM     20  C   UNL d   1     -37.940  13.238  21.759  0.00  0.00     0.000 A 
ATOM     21  C   UNL d   1     -38.234  13.758  21.185  0.00  0.00     0.003 A 
ENDBRANCH  14  16
ENDBRANCH  13  14
ENDBRANCH  12  13
ENDBRANCH   1  12
TORSDOF 6
ENDMDL
MODEL 7
REMARK VINA RESULT:      -4.8      1.563      1.822
REMARK  6 active torsions:
REMARK  status: ('A' for Active; 'I' for Inactive)
REMARK       I    between atoms: C_3  and  N_1 
REMARK    1  A    between atoms: C_5  and  N_1 
REMARK    2  A    between atoms: C_2  and  C_3 
REMARK    3  A    between atoms: N_9  and  C_5 
REMARK    4  A    between atoms: C_13  and  N_9 
REMARK    5  A    between atoms: C_11  and  C_13 
REMARK    6  A    between atoms: C_15  and  C_11 
ROOT
ATOM      1  C   UNL d   1     -47.094  13.464  22.957  0.00  0.00     0.224 C 
ATOM      2  S   UNL d   1     -47.548  12.874  23.324  0.00  0.00    -0.037 SA
ENDROOT
BRANCH   1   3
ATOM      3  N   UNL d   1     -46.282  13.355  22.860  0.00  0.00    -0.177 NA
ATOM      4  C   UNL d   1     -46.003  12.883  22.235  0.00  0.00     0.304 C 
ATOM      5  O   UNL d   1     -46.528  12.529  21.720  0.00  0.00    -0.263 OA
BRANCH   4   6
ATOM      6  C   UNL d   1     -45.192  12.775  22.137  0.00  0.00     0.158 A 
ATOM      7  O   UNL d   1     -44.690  13.239  21.675  0.00  0.00    -0.296 OA
ATOM      8  C   UNL d   1     -43.933  12.943  21.732  0.00  0.00     0.134 A 
ATOM      9 BR   UNL d   1     -43.263  13.238  21.360  0.00  0.00    -0.022 Br
ATOM     10  C   UNL d   1     -43.957  12.290  22.233  0.00  0.00     0.034 A 
ATOM     11  C   UNL d   1     -44.742  12.184  22.487  0.00  0.00     0.032 A 
ENDBRANCH   4   6
ENDBRANCH   1   3
BRANCH   1  12
ATOM     12  N   UNL d   1     -47.460  14.152  22.694  0.00  0.00    -0.212 NA
BRANCH  12  13
ATOM     13  C   UNL d   1     -48.211  14.335  22.956  0.00  0.00     0.143 C 
BRANCH  13  14
ATOM     14  C   UNL d   1     -48.585  15.013  22.678  0.00  0.00     0.215 C 
ATOM     15  O   UNL d   1     -48.190  15.548  22.196  0.00  0.00    -0.285 OA
BRANCH  14  16
ATOM     16  C   UNL d   1     -49.374  15.167  22.881  0.00  0.00     0.041 A 
ATOM     17  C   UNL d   1     -49.982  14.798  22.459  0.00  0.00     0.003 A 
ATOM     18  C   UNL d   1     -50.770  14.947  22.654  0.00  0.00     0.000 A 
ATOM     19  C   UNL d   1     -50.951  15.467  23.276  0.00  0.00     0.000 A 
ATOM     20  C   UNL d   1     -50.343  15.836  23.698  0.00  0.00     0.000 A 
ATOM     21  C   UNL d   1     -49.553  15.684  23.498  0.00  0.00     0.003 A 
ENDBRANCH  14  16
ENDBRANCH  13  14
ENDBRANCH  12  13
ENDBRANCH   1  12
TORSDOF 6
ENDMDL
MODEL 8
REMARK VINA RESULT:      -4.6      8.415      9.883
REMARK  6 active torsions:
REMARK  status: ('A' for Active; 'I' for Inactive)
REMARK       I    between atoms: C_3  and  N_1 
REMARK    1  A    between atoms: C_5  and  N_1 
REMARK    2  A    between atoms: C_2  and  C_3 
REMARK    3  A    between atoms: N_9  and  C_5 
REMARK    4  A    between atoms: C_13  and  N_9 
REMARK    5  A    between atoms: C_11  and  C_13 
REMARK    6  A    between atoms: C_15  and  C_11 
ROOT
ATOM      1  C   UNL d   1     -39.947  14.608  19.579  0.00  0.00     0.224 C 
ATOM      2  S   UNL d   1     -40.747  14.400  19.529  0.00  0.00    -0.037 SA
ENDROOT
BRANCH   1   3
ATOM      3  N   UNL d   1     -39.518  14.428  20.260  0.00  0.00    -0.177 NA
ATOM      4  C   UNL d   1     -39.761  14.737  20.993  0.00  0.00     0.304 C 
ATOM      5  O   UNL d   1     -40.419  15.217  21.039  0.00  0.00    -0.263 OA
BRANCH   4   6
ATOM      6  C   UNL d   1     -39.332  14.557  21.674  0.00  0.00     0.158 A 
ATOM      7  O   UNL d   1     -39.337  13.836  22.076  0.00  0.00    -0.296 OA
ATOM      8  C   UNL d   1     -38.838  13.891  22.718  0.00  0.00     0.134 A 
ATOM      9 BR   UNL d   1     -38.679  13.301  23.266  0.00  0.00    -0.022 Br
ATOM     10  C   UNL d   1     -38.517  14.650  22.721  0.00  0.00     0.034 A 
ATOM     11  C   UNL d   1     -38.825  15.066  22.069  0.00  0.00     0.032 A 
ENDBRANCH   4   6
ENDBRANCH   1   3
BRANCH   1  12
ATOM     12  N   UNL d   1     -39.587  14.993  18.947  0.00  0.00    -0.212 NA
BRANCH  12  13
ATOM     13  C   UNL d   1     -39.326  14.560  18.307  0.00  0.00     0.143 C 
BRANCH  13  14
ATOM     14  C   UNL d   1     -38.849  14.919  17.740  0.00  0.00     0.215 C 
ATOM     15  O   UNL d   1     -38.609  15.700  17.821  0.00  0.00    -0.285 OA
BRANCH  14  16
ATOM     16  C   UNL d   1     -38.603  14.493  17.073  0.00  0.00     0.041 A 
ATOM     17  C   UNL d   1     -38.189  13.784  17.173  0.00  0.00     0.003 A 
ATOM     18  C   UNL d   1     -37.940  13.355  16.514  0.00  0.00     0.000 A 
ATOM     19  C   UNL d   1     -38.105  13.635  15.750  0.00  0.00     0.000 A 
ATOM     20  C   UNL d   1     -38.520  14.344  15.650  0.00  0.00     0.000 A 
ATOM     21  C   UNL d   1     -38.768  14.772  16.315  0.00  0.00     0.003 A 
ENDBRANCH  14  16
ENDBRANCH  13  14
ENDBRANCH  12  13
ENDBRANCH   1  12
TORSDOF 6
ENDMDL
MODEL 9
REMARK VINA RESULT:      -4.1      3.422      4.302
REMARK  6 active torsions:
REMARK  status: ('A' for Active; 'I' for Inactive)
REMARK       I    between atoms: C_3  and  N_1 
REMARK    1  A    between atoms: C_5  and  N_1 
REMARK    2  A    between atoms: C_2  and  C_3 
REMARK    3  A    between atoms: N_9  and  C_5 
REMARK    4  A    between atoms: C_13  and  N_9 
REMARK    5  A    between atoms: C_11  and  C_13 
REMARK    6  A    between atoms: C_15  and  C_11 
ROOT
ATOM      1  C   UNL d   1     -43.839  12.985  21.800  0.00  0.00     0.224 C 
ATOM      2  S   UNL d   1     -43.754  12.160  21.810  0.00  0.00    -0.037 SA
ENDROOT
BRANCH   1   3
ATOM      3  N   UNL d   1     -43.171  13.465  21.744  0.00  0.00    -0.177 NA
ATOM      4  C   UNL d   1     -42.663  13.389  21.090  0.00  0.00     0.304 C 
ATOM      5  O   UNL d   1     -42.824  12.843  20.506  0.00  0.00    -0.263 OA
BRANCH   4   6
ATOM      6  C   UNL d   1     -41.996  13.870  21.035  0.00  0.00     0.158 A 
ATOM      7  O   UNL d   1     -41.990  14.679  20.874  0.00  0.00    -0.296 OA
ATOM      8  C   UNL d   1     -41.217  14.939  20.869  0.00  0.00     0.134 A 
ATOM      9 BR   UNL d   1     -40.961  15.707  20.731  0.00  0.00    -0.022 Br
ATOM     10  C   UNL d   1     -40.734  14.291  21.027  0.00  0.00     0.034 A 
ATOM     11  C   UNL d   1     -41.219  13.623  21.131  0.00  0.00     0.032 A 
ENDBRANCH   4   6
ENDBRANCH   1   3
BRANCH   1  12
ATOM     12  N   UNL d   1     -44.591  13.316  21.847  0.00  0.00    -0.212 NA
BRANCH  12  13
ATOM     13  C   UNL d   1     -45.161  12.958  22.310  0.00  0.00     0.143 C 
BRANCH  13  14
ATOM     14  C   UNL d   1     -45.821  13.388  22.546  0.00  0.00     0.215 C 
ATOM     15  O   UNL d   1     -45.812  14.209  22.556  0.00  0.00    -0.285 OA
BRANCH  14  16
ATOM     16  C   UNL d   1     -46.513  12.995  22.780  0.00  0.00     0.041 A 
ATOM     17  C   UNL d   1     -47.195  13.064  22.317  0.00  0.00     0.003 A 
ATOM     18  C   UNL d   1     -47.887  12.676  22.542  0.00  0.00     0.000 A 
ATOM     19  C   UNL d   1     -47.898  12.216  23.234  0.00  0.00     0.000 A 
ATOM     20  C   UNL d   1     -47.216  12.148  23.697  0.00  0.00     0.000 A 
ATOM     21  C   UNL d   1     -46.523  12.539  23.466  0.00  0.00     0.003 A 
ENDBRANCH  14  16
ENDBRANCH  13  14
ENDBRANCH  12  13
ENDBRANCH   1  12
TORSDOF 6
ENDMDL
