MODEL 1
REMARK VINA RESULT:      -7.8      0.000      0.000
REMARK  3 active torsions:
REMARK  status: ('A' for Active; 'I' for Inactive)
REMARK       I    between atoms: C_2  and  N_1 
REMARK    1  A    between atoms: C_4  and  N_1 
REMARK    2  A    between atoms: C_5  and  N_1 
REMARK    3  A    between atoms: C_6  and  C_2 
ROOT
ATOM      1  N   UNL d   1      53.271  32.533  53.609  0.00  0.00    -0.274 N 
ATOM      2  C   UNL d   1      53.283  31.713  53.426  0.00  0.00     0.276 C 
ATOM      3  O   UNL d   1      53.881  31.244  53.715  0.00  0.00    -0.266 OA
ENDROOT
BRANCH   1   4
ATOM      4  C   UNL d   1      53.862  32.862  54.079  0.00  0.00     0.067 A 
ATOM      5  C   UNL d   1      54.565  33.135  53.745  0.00  0.00     0.018 A 
ATOM      6  C   UNL d   1      55.140  33.460  54.247  0.00  0.00     0.002 A 
ATOM      7  C   UNL d   1      55.013  33.511  55.060  0.00  0.00     0.000 A 
ATOM      8  C   UNL d   1      54.316  33.239  55.379  0.00  0.00     0.002 A 
ATOM      9  C   UNL d   1      53.732  32.911  54.892  0.00  0.00     0.018 A 
ENDBRANCH   1   4
BRANCH   1  10
ATOM     10  C   UNL d   1      52.662  32.991  53.309  0.00  0.00     0.067 C 
ATOM     11  C   UNL d   1      52.775  33.377  52.566  0.00  0.00     0.019 C 
ATOM     12  C   UNL d   1      51.947  33.092  53.701  0.00  0.00     0.019 C 
ENDBRANCH   1  10
BRANCH   2  13
ATOM     13  C   UNL d   1      52.688  31.400  52.956  0.00  0.00     0.129 C 
ATOM     14 CL   UNL d   1      52.700  30.588  52.791  0.00  0.00    -0.076 Cl
ENDBRANCH   2  13
TORSDOF 3
ENDMDL
MODEL 2
REMARK VINA RESULT:      -7.7      1.704      2.808
REMARK  3 active torsions:
REMARK  status: ('A' for Active; 'I' for Inactive)
REMARK       I    between atoms: C_2  and  N_1 
REMARK    1  A    between atoms: C_4  and  N_1 
REMARK    2  A    between atoms: C_5  and  N_1 
REMARK    3  A    between atoms: C_6  and  C_2 
ROOT
ATOM      1  N   UNL d   1      53.509  33.226  53.991  0.00  0.00    -0.274 N 
ATOM      2  C   UNL d   1      53.794  33.524  54.723  0.00  0.00     0.276 C 
ATOM      3  O   UNL d   1      53.425  34.160  55.070  0.00  0.00    -0.266 OA
ENDROOT
BRANCH   1   4
ATOM      4  C   UNL d   1      52.858  33.575  53.627  0.00  0.00     0.067 A 
ATOM      5  C   UNL d   1      52.938  34.278  53.201  0.00  0.00     0.018 A 
ATOM      6  C   UNL d   1      52.262  34.603  52.846  0.00  0.00     0.002 A 
ATOM      7  C   UNL d   1      51.528  34.235  52.916  0.00  0.00     0.000 A 
ATOM      8  C   UNL d   1      51.460  33.544  53.338  0.00  0.00     0.002 A 
ATOM      9  C   UNL d   1      52.124  33.205  53.698  0.00  0.00     0.018 A 
ENDBRANCH   1   4
BRANCH   1  10
ATOM     10  C   UNL d   1      53.891  32.585  53.655  0.00  0.00     0.067 C 
ATOM     11  C   UNL d   1      54.576  32.727  53.180  0.00  0.00     0.019 C 
ATOM     12  C   UNL d   1      53.637  31.810  53.758  0.00  0.00     0.019 C 
ENDBRANCH   1  10
BRANCH   2  13
ATOM     13  C   UNL d   1      54.443  33.166  55.074  0.00  0.00     0.129 C 
ATOM     14 CL   UNL d   1      54.772  33.517  55.749  0.00  0.00    -0.076 Cl
ENDBRANCH   2  13
TORSDOF 3
ENDMDL
MODEL 3
REMARK VINA RESULT:      -7.6      0.819      2.212
REMARK  3 active torsions:
REMARK  status: ('A' for Active; 'I' for Inactive)
REMARK       I    between atoms: C_2  and  N_1 
REMARK    1  A    between atoms: C_4  and  N_1 
REMARK    2  A    between atoms: C_5  and  N_1 
REMARK    3  A    between atoms: C_6  and  C_2 
ROOT
ATOM      1  N   UNL d   1      53.178  32.545  53.488  0.00  0.00    -0.274 N 
ATOM      2  C   UNL d   1      53.054  31.771  53.184  0.00  0.00     0.276 C 
ATOM      3  O   UNL d   1      52.427  31.629  52.685  0.00  0.00    -0.266 OA
ENDROOT
BRANCH   1   4
ATOM      4  C   UNL d   1      52.667  33.157  53.282  0.00  0.00     0.067 A 
ATOM      5  C   UNL d   1      52.889  33.724  52.724  0.00  0.00     0.018 A 
ATOM      6  C   UNL d   1      52.352  34.328  52.540  0.00  0.00     0.002 A 
ATOM      7  C   UNL d   1      51.612  34.364  52.904  0.00  0.00     0.000 A 
ATOM      8  C   UNL d   1      51.404  33.800  53.452  0.00  0.00     0.002 A 
ATOM      9  C   UNL d   1      51.929  33.191  53.648  0.00  0.00     0.018 A 
ENDBRANCH   1   4
BRANCH   1  10
ATOM     10  C   UNL d   1      53.813  32.670  53.988  0.00  0.00     0.067 C 
ATOM     11  C   UNL d   1      54.566  32.848  53.648  0.00  0.00     0.019 C 
ATOM     12  C   UNL d   1      53.749  32.631  54.807  0.00  0.00     0.019 C 
ENDBRANCH   1  10
BRANCH   2  13
ATOM     13  C   UNL d   1      53.570  31.170  53.397  0.00  0.00     0.129 C 
ATOM     14 CL   UNL d   1      53.403  30.398  53.149  0.00  0.00    -0.076 Cl
ENDBRANCH   2  13
TORSDOF 3
ENDMDL
MODEL 4
REMARK VINA RESULT:      -7.1      1.113      1.489
REMARK  3 active torsions:
REMARK  status: ('A' for Active; 'I' for Inactive)
REMARK       I    between atoms: C_2  and  N_1 
REMARK    1  A    between atoms: C_4  and  N_1 
REMARK    2  A    between atoms: C_5  and  N_1 
REMARK    3  A    between atoms: C_6  and  C_2 
ROOT
ATOM      1  N   UNL d   1      53.507  32.433  53.840  0.00  0.00    -0.274 N 
ATOM      2  C   UNL d   1      52.832  32.836  53.542  0.00  0.00     0.276 C 
ATOM      3  O   UNL d   1      52.740  33.631  53.688  0.00  0.00    -0.266 OA
ENDROOT
BRANCH   1   4
ATOM      4  C   UNL d   1      54.073  32.841  54.277  0.00  0.00     0.067 A 
ATOM      5  C   UNL d   1      54.724  33.189  53.908  0.00  0.00     0.018 A 
ATOM      6  C   UNL d   1      55.276  33.592  54.378  0.00  0.00     0.002 A 
ATOM      7  C   UNL d   1      55.178  33.645  55.195  0.00  0.00     0.000 A 
ATOM      8  C   UNL d   1      54.533  33.299  55.549  0.00  0.00     0.002 A 
ATOM      9  C   UNL d   1      53.973  32.893  55.094  0.00  0.00     0.018 A 
ENDBRANCH   1   4
BRANCH   1  10
ATOM     10  C   UNL d   1      53.585  31.633  53.684  0.00  0.00     0.067 C 
ATOM     11  C   UNL d   1      53.969  31.397  52.968  0.00  0.00     0.019 C 
ATOM     12  C   UNL d   1      53.307  31.052  54.193  0.00  0.00     0.019 C 
ENDBRANCH   1  10
BRANCH   2  13
ATOM     13  C   UNL d   1      52.276  32.417  53.108  0.00  0.00     0.129 C 
ATOM     14 CL   UNL d   1      51.590  32.809  52.861  0.00  0.00    -0.076 Cl
ENDBRANCH   2  13
TORSDOF 3
ENDMDL
MODEL 5
REMARK VINA RESULT:      -7.1      1.484      2.737
REMARK  3 active torsions:
REMARK  status: ('A' for Active; 'I' for Inactive)
REMARK       I    between atoms: C_2  and  N_1 
REMARK    1  A    between atoms: C_4  and  N_1 
REMARK    2  A    between atoms: C_5  and  N_1 
REMARK    3  A    between atoms: C_6  and  C_2 
ROOT
ATOM      1  N   UNL d   1      53.528  32.651  53.811  0.00  0.00    -0.274 N 
ATOM      2  C   UNL d   1      52.917  33.226  53.767  0.00  0.00     0.276 C 
ATOM      3  O   UNL d   1      52.169  33.003  53.538  0.00  0.00    -0.266 OA
ENDROOT
BRANCH   1   4
ATOM      4  C   UNL d   1      53.371  31.865  53.623  0.00  0.00     0.067 A 
ATOM      5  C   UNL d   1      53.116  31.653  52.867  0.00  0.00     0.018 A 
ATOM      6  C   UNL d   1      52.967  30.852  52.711  0.00  0.00     0.002 A 
ATOM      7  C   UNL d   1      53.071  30.279  53.294  0.00  0.00     0.000 A 
ATOM      8  C   UNL d   1      53.324  30.499  54.036  0.00  0.00     0.002 A 
ATOM      9  C   UNL d   1      53.476  31.294  54.209  0.00  0.00     0.018 A 
ENDBRANCH   1   4
BRANCH   1  10
ATOM     10  C   UNL d   1      54.275  32.892  54.043  0.00  0.00     0.067 C 
ATOM     11  C   UNL d   1      54.425  33.005  54.867  0.00  0.00     0.019 C 
ATOM     12  C   UNL d   1      54.885  33.028  53.509  0.00  0.00     0.019 C 
ENDBRANCH   1  10
BRANCH   2  13
ATOM     13  C   UNL d   1      53.087  34.006  53.958  0.00  0.00     0.129 C 
ATOM     14 CL   UNL d   1      52.503  34.579  53.837  0.00  0.00    -0.076 Cl
ENDBRANCH   2  13
TORSDOF 3
ENDMDL
