MODEL 1
REMARK VINA RESULT:      -8.3      0.000      0.000
REMARK  4 active torsions:
REMARK  status: ('A' for Active; 'I' for Inactive)
REMARK    1  A    between atoms: C_3  and  N_5 
REMARK    2  A    between atoms: S_13  and  C_4 
REMARK       I    between atoms: N_5  and  C_12 
REMARK    3  A    between atoms: C_12  and  C_18 
REMARK    4  A    between atoms: C_18  and  S_13 
ROOT
ATOM      1  N   UNL d   1     -48.241  12.410  23.307  0.00  0.00    -0.238 NA
ATOM      2  C   UNL d   1     -47.818  13.729  22.945  0.00  0.00     0.092 A 
ATOM      3  C   UNL d   1     -47.615  12.957  23.153  0.00  0.00     0.120 A 
ATOM      4  C   UNL d   1     -47.223  14.308  22.783  0.00  0.00     0.103 C 
ATOM      5  C   UNL d   1     -49.017  12.616  23.257  0.00  0.00     0.082 A 
ATOM      6  N   UNL d   1     -46.633  14.874  22.624  0.00  0.00    -0.191 NA
ATOM      7  C   UNL d   1     -48.649  13.962  22.888  0.00  0.00     0.014 A 
ATOM      8  C   UNL d   1     -49.220  13.388  23.049  0.00  0.00     0.018 A 
ATOM      9  C   UNL d   1     -49.524  11.995  23.430  0.00  0.00     0.019 A 
ATOM     10  C   UNL d   1     -49.982  13.738  22.960  0.00  0.00     0.002 A 
ATOM     11  C   UNL d   1     -50.335  11.976  23.442  0.00  0.00     0.002 A 
ATOM     12  C   UNL d   1     -50.706  13.388  23.061  0.00  0.00     0.000 A 
ATOM     13  C   UNL d   1     -50.860  12.567  23.286  0.00  0.00     0.000 A 
ENDROOT
BRANCH   3  14
ATOM     14  S   UNL d   1     -46.815  12.757  23.201  0.00  0.00    -0.062 SA
BRANCH  14  15
ATOM     15  C   UNL d   1     -46.611  11.997  23.450  0.00  0.00     0.099 C 
BRANCH  15  16
ATOM     16  C   UNL d   1     -45.845  11.739  23.337  0.00  0.00     0.288 C 
ATOM     17  N   UNL d   1     -45.635  11.023  23.689  0.00  0.00    -0.182 NA
ATOM     18  O   UNL d   1     -45.292  12.161  22.895  0.00  0.00    -0.265 OA
BRANCH  17  19
ATOM     19  C   UNL d   1     -44.858  10.760  23.576  0.00  0.00     0.197 A 
ATOM     20  N   UNL d   1     -44.194  11.153  23.346  0.00  0.00    -0.219 NA
ATOM     21  C   UNL d   1     -43.574  10.649  23.319  0.00  0.00     0.108 A 
ATOM     22  C   UNL d   1     -43.845   9.895  23.541  0.00  0.00     0.059 A 
ATOM     23  S   UNL d   1     -44.637   9.971  23.698  0.00  0.00    -0.046 SA
ENDBRANCH  17  19
ENDBRANCH  15  16
ENDBRANCH  14  15
ENDBRANCH   3  14
TORSDOF 4
ENDMDL
MODEL 2
REMARK VINA RESULT:      -7.8      1.581      2.316
REMARK  4 active torsions:
REMARK  status: ('A' for Active; 'I' for Inactive)
REMARK    1  A    between atoms: C_3  and  N_5 
REMARK    2  A    between atoms: S_13  and  C_4 
REMARK       I    between atoms: N_5  and  C_12 
REMARK    3  A    between atoms: C_12  and  C_18 
REMARK    4  A    between atoms: C_18  and  S_13 
ROOT
ATOM      1  N   UNL d   1     -48.070  13.957  22.946  0.00  0.00    -0.238 NA
ATOM      2  C   UNL d   1     -48.555  12.619  23.090  0.00  0.00     0.092 A 
ATOM      3  C   UNL d   1     -47.914  13.128  22.990  0.00  0.00     0.120 A 
ATOM      4  C   UNL d   1     -48.444  11.781  23.139  0.00  0.00     0.103 C 
ATOM      5  C   UNL d   1     -48.812  14.261  22.998  0.00  0.00     0.082 A 
ATOM      6  N   UNL d   1     -48.329  10.958  23.186  0.00  0.00    -0.191 NA
ATOM      7  C   UNL d   1     -49.358  12.933  23.148  0.00  0.00     0.014 A 
ATOM      8  C   UNL d   1     -49.454  13.752  23.099  0.00  0.00     0.018 A 
ATOM      9  C   UNL d   1     -48.828  15.079  22.941  0.00  0.00     0.019 A 
ATOM     10  C   UNL d   1     -50.275  13.929  23.168  0.00  0.00     0.002 A 
ATOM     11  C   UNL d   1     -49.459  15.589  22.968  0.00  0.00     0.002 A 
ATOM     12  C   UNL d   1     -50.631  14.658  23.151  0.00  0.00     0.000 A 
ATOM     13  C   UNL d   1     -50.242  15.424  23.058  0.00  0.00     0.000 A 
ENDROOT
BRANCH   3  14
ATOM     14  S   UNL d   1     -47.155  12.805  22.937  0.00  0.00    -0.062 SA
BRANCH  14  15
ATOM     15  C   UNL d   1     -46.526  13.302  22.746  0.00  0.00     0.099 C 
BRANCH  15  16
ATOM     16  C   UNL d   1     -45.777  12.981  22.685  0.00  0.00     0.288 C 
ATOM     17  N   UNL d   1     -45.351  13.153  21.999  0.00  0.00    -0.182 NA
ATOM     18  O   UNL d   1     -45.445  12.506  23.270  0.00  0.00    -0.265 OA
BRANCH  17  19
ATOM     19  C   UNL d   1     -44.592  12.829  21.935  0.00  0.00     0.197 A 
ATOM     20  N   UNL d   1     -44.257  12.191  22.292  0.00  0.00    -0.219 NA
ATOM     21  C   UNL d   1     -43.502  12.104  22.045  0.00  0.00     0.108 A 
ATOM     22  C   UNL d   1     -43.337  12.712  21.502  0.00  0.00     0.059 A 
ATOM     23  S   UNL d   1     -44.014  13.155  21.440  0.00  0.00    -0.046 SA
ENDBRANCH  17  19
ENDBRANCH  15  16
ENDBRANCH  14  15
ENDBRANCH   3  14
TORSDOF 4
ENDMDL
MODEL 3
REMARK VINA RESULT:      -5.5      8.687      9.330
REMARK  4 active torsions:
REMARK  status: ('A' for Active; 'I' for Inactive)
REMARK    1  A    between atoms: C_3  and  N_5 
REMARK    2  A    between atoms: S_13  and  C_4 
REMARK       I    between atoms: N_5  and  C_12 
REMARK    3  A    between atoms: C_12  and  C_18 
REMARK    4  A    between atoms: C_18  and  S_13 
ROOT
ATOM      1  N   UNL d   1     -39.976  14.682  18.872  0.00  0.00    -0.238 NA
ATOM      2  C   UNL d   1     -39.131  13.755  18.185  0.00  0.00     0.092 A 
ATOM      3  C   UNL d   1     -39.382  14.083  18.899  0.00  0.00     0.120 A 
ATOM      4  C   UNL d   1     -38.538  13.151  18.166  0.00  0.00     0.103 C 
ATOM      5  C   UNL d   1     -40.300  14.940  18.182  0.00  0.00     0.082 A 
ATOM      6  N   UNL d   1     -37.954  12.558  18.153  0.00  0.00    -0.191 NA
ATOM      7  C   UNL d   1     -39.472  14.023  17.437  0.00  0.00     0.014 A 
ATOM      8  C   UNL d   1     -40.049  14.612  17.468  0.00  0.00     0.018 A 
ATOM      9  C   UNL d   1     -40.865  15.524  18.293  0.00  0.00     0.019 A 
ATOM     10  C   UNL d   1     -40.299  14.783  16.681  0.00  0.00     0.002 A 
ATOM     11  C   UNL d   1     -41.314  15.922  17.745  0.00  0.00     0.002 A 
ATOM     12  C   UNL d   1     -40.855  15.322  16.440  0.00  0.00     0.000 A 
ATOM     13  C   UNL d   1     -41.322  15.847  16.944  0.00  0.00     0.000 A 
ENDROOT
BRANCH   3  14
ATOM     14  S   UNL d   1     -39.042  13.811  19.601  0.00  0.00    -0.062 SA
BRANCH  14  15
ATOM     15  C   UNL d   1     -39.397  14.014  20.317  0.00  0.00     0.099 C 
BRANCH  15  16
ATOM     16  C   UNL d   1     -39.001  13.850  21.012  0.00  0.00     0.288 C 
ATOM     17  N   UNL d   1     -39.368  14.079  21.715  0.00  0.00    -0.182 NA
ATOM     18  O   UNL d   1     -38.269  13.473  21.031  0.00  0.00    -0.265 OA
BRANCH  17  19
ATOM     19  C   UNL d   1     -38.968  13.913  22.421  0.00  0.00     0.197 A 
ATOM     20  N   UNL d   1     -38.677  13.222  22.715  0.00  0.00    -0.219 NA
ATOM     21  C   UNL d   1     -38.334  13.351  23.426  0.00  0.00     0.108 A 
ATOM     22  C   UNL d   1     -38.404  14.160  23.603  0.00  0.00     0.059 A 
ATOM     23  S   UNL d   1     -38.796  14.500  22.979  0.00  0.00    -0.046 SA
ENDBRANCH  17  19
ENDBRANCH  15  16
ENDBRANCH  14  15
ENDBRANCH   3  14
TORSDOF 4
ENDMDL
MODEL 4
REMARK VINA RESULT:      -5.3      2.140      5.322
REMARK  4 active torsions:
REMARK  status: ('A' for Active; 'I' for Inactive)
REMARK    1  A    between atoms: C_3  and  N_5 
REMARK    2  A    between atoms: S_13  and  C_4 
REMARK       I    between atoms: N_5  and  C_12 
REMARK    3  A    between atoms: C_12  and  C_18 
REMARK    4  A    between atoms: C_18  and  S_13 
ROOT
ATOM      1  N   UNL d   1     -46.490  13.329  22.460  0.00  0.00    -0.238 NA
ATOM      2  C   UNL d   1     -46.918  12.084  23.022  0.00  0.00     0.092 A 
ATOM      3  C   UNL d   1     -47.103  12.856  22.797  0.00  0.00     0.120 A 
ATOM      4  C   UNL d   1     -47.503  11.576  23.363  0.00  0.00     0.103 C 
ATOM      5  C   UNL d   1     -45.741  13.055  22.355  0.00  0.00     0.082 A 
ATOM      6  N   UNL d   1     -48.082  11.080  23.698  0.00  0.00    -0.191 NA
ATOM      7  C   UNL d   1     -46.117  11.778  22.913  0.00  0.00     0.014 A 
ATOM      8  C   UNL d   1     -45.556  12.283  22.580  0.00  0.00     0.018 A 
ATOM      9  C   UNL d   1     -45.241  13.612  22.019  0.00  0.00     0.019 A 
ATOM     10  C   UNL d   1     -44.822  11.870  22.528  0.00  0.00     0.002 A 
ATOM     11  C   UNL d   1     -44.455  13.553  21.826  0.00  0.00     0.002 A 
ATOM     12  C   UNL d   1     -44.115  12.143  22.238  0.00  0.00     0.000 A 
ATOM     13  C   UNL d   1     -43.955  12.928  21.914  0.00  0.00     0.000 A 
ENDROOT
BRANCH   3  14
ATOM     14  S   UNL d   1     -47.876  13.127  22.910  0.00  0.00    -0.062 SA
BRANCH  14  15
ATOM     15  C   UNL d   1     -48.014  13.940  22.905  0.00  0.00     0.099 C 
BRANCH  15  16
ATOM     16  C   UNL d   1     -48.780  14.208  22.997  0.00  0.00     0.288 C 
ATOM     17  N   UNL d   1     -48.932  14.990  22.781  0.00  0.00    -0.182 NA
ATOM     18  O   UNL d   1     -49.387  13.735  23.291  0.00  0.00    -0.265 OA
BRANCH  17  19
ATOM     19  C   UNL d   1     -49.708  15.264  22.873  0.00  0.00     0.197 A 
ATOM     20  N   UNL d   1     -50.327  15.285  22.359  0.00  0.00    -0.219 NA
ATOM     21  C   UNL d   1     -50.967  15.605  22.715  0.00  0.00     0.108 A 
ATOM     22  C   UNL d   1     -50.757  15.801  23.496  0.00  0.00     0.059 A 
ATOM     23  S   UNL d   1     -49.979  15.588  23.585  0.00  0.00    -0.046 SA
ENDBRANCH  17  19
ENDBRANCH  15  16
ENDBRANCH  14  15
ENDBRANCH   3  14
TORSDOF 4
ENDMDL
