MODEL 1
REMARK VINA RESULT:      15.1      0.000      0.000
REMARK  4 active torsions:
REMARK  status: ('A' for Active; 'I' for Inactive)
REMARK    1  A    between atoms: C_6  and  C_1 
REMARK    2  A    between atoms: C_4  and  C_8 
REMARK    3  A    between atoms: O_18  and  C_6 
REMARK    4  A    between atoms: C_19  and  O_18 
ROOT
ATOM      1  C   UNL d   1      13.620  12.465  -2.676  0.00  0.00     0.121 A 
ATOM      2  C   UNL d   1      14.299  13.071  -1.579  0.00  0.00     0.057 A 
ATOM      3  C   UNL d   1      14.042  13.094  -2.363  0.00  0.00     0.204 A 
ATOM      4  C   UNL d   1      14.724  13.707  -1.272  0.00  0.00     0.009 A 
ATOM      5  N   UNL d   1      13.705  11.779  -1.418  0.00  0.00    -0.244 NA
ATOM      6  C   UNL d   1      14.981  13.688  -0.491  0.00  0.00     0.072 A 
ATOM      7  C   UNL d   1      13.448  11.801  -2.203  0.00  0.00     0.107 A 
ATOM      8  C   UNL d   1      14.133  12.417  -1.105  0.00  0.00     0.085 A 
ATOM      9  C   UNL d   1      14.815  13.034  -0.016  0.00  0.00     0.005 A 
ATOM     10  C   UNL d   1      14.391  12.399  -0.323  0.00  0.00     0.019 A 
ATOM     11  O   UNL d   1      14.211  13.750  -2.835  0.00  0.00    -0.286 OA
ENDROOT
BRANCH   1  12
ATOM     12  C   UNL d   1      13.362  12.484  -3.457  0.00  0.00     0.305 C 
ATOM     13  O   UNL d   1      13.076  13.187  -3.781  0.00  0.00    -0.259 OA
BRANCH  12  14
ATOM     14  O   UNL d   1      13.387  11.800  -3.923  0.00  0.00    -0.271 OA
BRANCH  14  15
ATOM     15  C   UNL d   1      13.043  11.803  -4.673  0.00  0.00     0.126 C 
ATOM     16  C   UNL d   1      13.464  12.112  -5.313  0.00  0.00     0.029 C 
ENDBRANCH  14  15
ENDBRANCH  12  14
ENDBRANCH   1  12
BRANCH   6  17
ATOM     17  C   UNL d   1      15.406  14.323  -0.184  0.00  0.00     0.419 C 
ATOM     18  F   UNL d   1      15.027  15.041  -0.035  0.00  0.00    -0.166 F 
ATOM     19  F   UNL d   1      16.213  14.242  -0.024  0.00  0.00    -0.166 F 
ATOM     20  F   UNL d   1      15.789  13.608  -0.331  0.00  0.00    -0.166 F 
ENDBRANCH   6  17
TORSDOF 4
ENDMDL
