MODEL 1
REMARK VINA RESULT:      36.2      0.000      0.000
REMARK  2 active torsions:
REMARK  status: ('A' for Active; 'I' for Inactive)
REMARK    1  A    between atoms: C_7  and  C_1 
REMARK       I    between atoms: N_13  and  C_7 
REMARK    2  A    between atoms: C_18  and  N_13 
ROOT
ATOM      1  N   UNL d   1      31.875  22.473 -24.542  0.00  0.00    -0.191 NA
ATOM      2  C   UNL d   1      32.000  22.513 -23.720  0.00  0.00     0.101 C 
ATOM      3  C   UNL d   1      32.375  22.629 -21.258  0.00  0.00     0.085 A 
ATOM      4  C   UNL d   1      32.126  22.553 -22.897  0.00  0.00     0.068 A 
ATOM      5  C   UNL d   1      32.072  21.948 -21.603  0.00  0.00     0.020 A 
ATOM      6  C   UNL d   1      32.557  23.289 -21.749  0.00  0.00     0.020 A 
ATOM      7  C   UNL d   1      31.943  21.895 -22.417  0.00  0.00     0.012 A 
ATOM      8  C   UNL d   1      32.428  23.236 -22.563  0.00  0.00     0.012 A 
ENDROOT
BRANCH   3   9
ATOM      9  N   UNL d   1      32.505  22.688 -20.450  0.00  0.00    -0.208 NA
ATOM     10  C   UNL d   1      31.873  22.960 -19.979  0.00  0.00     0.283 C 
ATOM     11  O   UNL d   1      31.162  23.159 -20.296  0.00  0.00    -0.265 OA
BRANCH  10  12
ATOM     12  C   UNL d   1      31.997  23.022 -19.166  0.00  0.00     0.101 A 
ATOM     13  C   UNL d   1      32.667  23.385 -18.859  0.00  0.00     0.208 A 
ATOM     14  O   UNL d   1      32.798  23.449 -18.050  0.00  0.00    -0.288 OA
ATOM     15  N   UNL d   1      33.238  23.701 -19.390  0.00  0.00    -0.121 N 
ATOM     16  C   UNL d   1      32.225  23.132 -17.519  0.00  0.00     0.103 A 
ATOM     17  C   UNL d   1      31.548  22.765 -17.839  0.00  0.00     0.023 A 
ATOM     18  C   UNL d   1      32.343  23.190 -16.730  0.00  0.00     0.039 A 
ATOM     19  C   UNL d   1      31.425  22.705 -18.634  0.00  0.00     0.010 A 
ATOM     20  C   UNL d   1      30.971  22.445 -17.314  0.00  0.00     0.003 A 
ATOM     21  C   UNL d   1      31.101  22.509 -16.506  0.00  0.00     0.016 A 
ATOM     22  C   UNL d   1      31.771  22.873 -16.199  0.00  0.00     0.066 A 
ATOM     23  C   UNL d   1      30.544  22.200 -15.955  0.00  0.00     0.003 A 
ATOM     24  N   UNL d   1      31.883  22.927 -15.416  0.00  0.00    -0.304 N 
ATOM     25  C   UNL d   1      32.552  23.290 -15.108  0.00  0.00     0.080 A 
ATOM     26  C   UNL d   1      31.312  22.610 -14.885  0.00  0.00     0.080 A 
ATOM     27  C   UNL d   1      33.125  23.607 -15.640  0.00  0.00     0.019 A 
ATOM     28  C   UNL d   1      33.007  23.550 -16.429  0.00  0.00     0.005 A 
ATOM     29  C   UNL d   1      30.651  22.252 -15.180  0.00  0.00     0.019 A 
ENDBRANCH  10  12
ENDBRANCH   3   9
TORSDOF 2
ENDMDL
