MODEL 1
REMARK VINA RESULT:      53.8      0.000      0.000
REMARK  3 active torsions:
REMARK  status: ('A' for Active; 'I' for Inactive)
REMARK       I    between atoms: N_3  and  C_1 
REMARK    1  A    between atoms: C_6  and  C_1 
REMARK    2  A    between atoms: N_2  and  C_4 
REMARK    3  A    between atoms: C_9  and  N_3 
ROOT
ATOM      1  C   UNL d   1      13.192  14.200  -4.506  0.00  0.00     0.064 A 
ATOM      2  C   UNL d   1      13.687  14.668  -4.030  0.00  0.00     0.019 A 
ATOM      3  C   UNL d   1      12.772  14.536  -5.140  0.00  0.00     0.019 A 
ATOM      4  C   UNL d   1      13.331  15.808  -4.836  0.00  0.00     0.085 A 
ATOM      5  C   UNL d   1      13.751  15.471  -4.202  0.00  0.00     0.021 A 
ATOM      6  C   UNL d   1      12.844  15.343  -5.303  0.00  0.00     0.021 A 
ENDROOT
BRANCH   4   7
ATOM      7  N   UNL d   1      13.406  16.622  -4.997  0.00  0.00    -0.208 NA
ATOM      8  C   UNL d   1      13.570  16.881  -5.765  0.00  0.00     0.279 C 
ATOM      9  O   UNL d   1      13.661  16.328  -6.380  0.00  0.00    -0.265 OA
BRANCH   8  10
ATOM     10  C   UNL d   1      13.645  17.692  -5.922  0.00  0.00     0.058 A 
ATOM     11  C   UNL d   1      12.982  18.115  -6.195  0.00  0.00     0.005 A 
ATOM     12  C   UNL d   1      13.059  18.920  -6.350  0.00  0.00     0.000 A 
ATOM     13  C   UNL d   1      13.795  19.302  -6.235  0.00  0.00     0.000 A 
ATOM     14  C   UNL d   1      14.437  18.872  -5.966  0.00  0.00     0.000 A 
ATOM     15  C   UNL d   1      14.369  18.068  -5.809  0.00  0.00     0.005 A 
ENDBRANCH   8  10
ENDBRANCH   4   7
BRANCH   1  16
ATOM     16  N   UNL d   1      13.122  13.382  -4.338  0.00  0.00    -0.304 N 
ATOM     17  C   UNL d   1      12.965  12.854  -4.944  0.00  0.00     0.080 A 
ATOM     18  C   UNL d   1      12.895  12.037  -4.776  0.00  0.00     0.019 A 
ATOM     19  C   UNL d   1      12.986  11.782  -3.998  0.00  0.00     0.003 A 
ATOM     20  C   UNL d   1      13.142  12.316  -3.397  0.00  0.00     0.019 A 
ATOM     21  C   UNL d   1      13.211  13.116  -3.561  0.00  0.00     0.080 A 
ENDBRANCH   1  16
TORSDOF 3
ENDMDL
MODEL 2
REMARK VINA RESULT:      55.9      2.250      5.367
REMARK  3 active torsions:
REMARK  status: ('A' for Active; 'I' for Inactive)
REMARK       I    between atoms: N_3  and  C_1 
REMARK    1  A    between atoms: C_6  and  C_1 
REMARK    2  A    between atoms: N_2  and  C_4 
REMARK    3  A    between atoms: C_9  and  N_3 
ROOT
ATOM      1  C   UNL d   1      13.778  15.050  -4.247  0.00  0.00     0.064 A 
ATOM      2  C   UNL d   1      14.324  15.313  -3.678  0.00  0.00     0.019 A 
ATOM      3  C   UNL d   1      13.322  14.368  -4.112  0.00  0.00     0.019 A 
ATOM      4  C   UNL d   1      13.945  14.202  -2.845  0.00  0.00     0.085 A 
ATOM      5  C   UNL d   1      14.401  14.884  -2.980  0.00  0.00     0.021 A 
ATOM      6  C   UNL d   1      13.408  13.945  -3.408  0.00  0.00     0.021 A 
ENDROOT
BRANCH   4   7
ATOM      7  N   UNL d   1      14.035  13.778  -2.132  0.00  0.00    -0.208 NA
ATOM      8  C   UNL d   1      14.391  13.032  -2.135  0.00  0.00     0.279 C 
ATOM      9  O   UNL d   1      14.662  12.702  -2.849  0.00  0.00    -0.265 OA
BRANCH   8  10
ATOM     10  C   UNL d   1      14.480  12.612  -1.424  0.00  0.00     0.058 A 
ATOM     11  C   UNL d   1      13.818  12.231  -1.092  0.00  0.00     0.005 A 
ATOM     12  C   UNL d   1      13.909  11.816  -0.388  0.00  0.00     0.000 A 
ATOM     13  C   UNL d   1      14.658  11.779  -0.015  0.00  0.00     0.000 A 
ATOM     14  C   UNL d   1      15.298  12.159  -0.354  0.00  0.00     0.000 A 
ATOM     15  C   UNL d   1      15.216  12.577  -1.057  0.00  0.00     0.005 A 
ENDBRANCH   8  10
ENDBRANCH   4   7
BRANCH   1  16
ATOM     16  N   UNL d   1      13.694  15.481  -4.960  0.00  0.00    -0.304 N 
ATOM     17  C   UNL d   1      12.981  15.844  -5.134  0.00  0.00     0.080 A 
ATOM     18  C   UNL d   1      12.896  16.276  -5.847  0.00  0.00     0.019 A 
ATOM     19  C   UNL d   1      13.539  16.323  -6.360  0.00  0.00     0.003 A 
ATOM     20  C   UNL d   1      14.249  15.957  -6.180  0.00  0.00     0.019 A 
ATOM     21  C   UNL d   1      14.332  15.536  -5.482  0.00  0.00     0.080 A 
ENDBRANCH   1  16
TORSDOF 3
ENDMDL
