MODEL 1
REMARK VINA RESULT:       5.2      0.000      0.000
REMARK  1 active torsions:
REMARK  status: ('A' for Active; 'I' for Inactive)
REMARK    1  A    between atoms: C_6  and  C_2 
ROOT
ATOM      1  O   UNL d   1      13.571  12.064  -1.571  0.00  0.00    -0.260 OA
ATOM      2  C   UNL d   1      13.970  12.267  -2.270  0.00  0.00     0.207 A 
ATOM      3  N   UNL d   1      14.775  12.304  -2.092  0.00  0.00    -0.120 NA
ATOM      4  C   UNL d   1      14.132  11.979  -0.970  0.00  0.00     0.262 A 
ATOM      5  N   UNL d   1      14.880  12.129  -1.296  0.00  0.00    -0.109 NA
ATOM      6  S   UNL d   1      13.969  11.780  -0.185  0.00  0.00    -0.029 SA
ENDROOT
BRANCH   2   7
ATOM      7  C   UNL d   1      13.623  12.403  -2.999  0.00  0.00     0.062 A 
ATOM      8  C   UNL d   1      13.651  13.153  -3.340  0.00  0.00     0.102 A 
ATOM      9  N   UNL d   1      13.295  13.282  -4.080  0.00  0.00    -0.242 NA
ATOM     10  C   UNL d   1      12.917  12.666  -4.474  0.00  0.00     0.099 A 
ATOM     11  C   UNL d   1      12.891  11.919  -4.133  0.00  0.00     0.021 A 
ATOM     12  C   UNL d   1      13.241  11.779  -3.396  0.00  0.00     0.007 A 
ENDBRANCH   2   7
TORSDOF 1
ENDMDL
