MODEL 1
REMARK VINA RESULT:      68.6      0.000      0.000
REMARK  4 active torsions:
REMARK  status: ('A' for Active; 'I' for Inactive)
REMARK    1  A    between atoms: C_12  and  N_3 
REMARK    2  A    between atoms: C_10  and  C_5 
REMARK       I    between atoms: N_11  and  C_10 
REMARK    3  A    between atoms: C_24  and  C_12 
REMARK    4  A    between atoms: C_25  and  N_14 
ROOT
ATOM      1  C   UNL d   1      13.727  13.059  -2.488  0.00  0.00     0.154 A 
ATOM      2  C   UNL d   1      13.678  13.805  -2.836  0.00  0.00     0.093 A 
ATOM      3  N   UNL d   1      13.947  13.161  -1.698  0.00  0.00    -0.286 N 
ATOM      4  N   UNL d   1      13.565  12.392  -2.937  0.00  0.00    -0.210 NA
ATOM      5  C   UNL d   1      14.033  13.963  -1.557  0.00  0.00     0.122 A 
ATOM      6  C   UNL d   1      13.468  13.878  -3.629  0.00  0.00     0.269 A 
ATOM      7  N   UNL d   1      13.307  13.204  -4.074  0.00  0.00    -0.258 N 
ATOM      8  C   UNL d   1      13.356  12.458  -3.726  0.00  0.00     0.152 A 
ATOM      9  C   UNL d   1      13.867  14.370  -2.261  0.00  0.00     0.030 A 
ATOM     10  C   UNL d   1      13.097  13.277  -4.867  0.00  0.00     0.084 A 
ATOM     11  O   UNL d   1      13.419  14.624  -3.977  0.00  0.00    -0.266 OA
ATOM     12  C   UNL d   1      13.195  11.791  -4.175  0.00  0.00     0.038 A 
ATOM     13  C   UNL d   1      12.935  12.601  -5.315  0.00  0.00     0.019 A 
ATOM     14  C   UNL d   1      12.984  11.855  -4.967  0.00  0.00     0.005 A 
ENDROOT
BRANCH   5  15
ATOM     15  C   UNL d   1      14.248  14.312  -0.840  0.00  0.00     0.281 C 
ATOM     16  N   UNL d   1      14.671  15.018  -0.835  0.00  0.00    -0.268 N 
ATOM     17  C   UNL d   1      14.879  15.377  -1.546  0.00  0.00     0.102 A 
ATOM     18  C   UNL d   1      14.886  15.368  -0.115  0.00  0.00     0.102 A 
ATOM     19  C   UNL d   1      15.303  16.086  -1.543  0.00  0.00     0.100 A 
ATOM     20  N   UNL d   1      15.519  16.436  -0.823  0.00  0.00    -0.300 N 
ATOM     21  C   UNL d   1      15.309  16.074  -0.109  0.00  0.00     0.100 A 
ATOM     22  O   UNL d   1      14.040  13.953  -0.129  0.00  0.00    -0.265 OA
BRANCH  20  23
ATOM     23  C   UNL d   1      15.948  17.152  -0.815  0.00  0.00     0.080 C 
ATOM     24  C   UNL d   1      15.548  17.878  -0.789  0.00  0.00     0.021 C 
ENDBRANCH  20  23
ENDBRANCH   5  15
BRANCH   3  25
ATOM     25  C   UNL d   1      14.059  12.553  -1.148  0.00  0.00     0.082 C 
BRANCH  25  26
ATOM     26  C   UNL d   1      14.815  12.296  -0.965  0.00  0.00     0.018 A 
ATOM     27  C   UNL d   1      15.402  12.282  -1.546  0.00  0.00     0.002 A 
ATOM     28  C   UNL d   1      16.163  12.024  -1.366  0.00  0.00     0.000 A 
ATOM     29  C   UNL d   1      16.340  11.779  -0.605  0.00  0.00     0.000 A 
ATOM     30  C   UNL d   1      15.755  11.792  -0.021  0.00  0.00     0.000 A 
ATOM     31  C   UNL d   1      14.994  12.050  -0.202  0.00  0.00     0.002 A 
ENDBRANCH  25  26
ENDBRANCH   3  25
TORSDOF 4
ENDMDL
MODEL 2
REMARK VINA RESULT:      70.6      1.757      3.731
REMARK  4 active torsions:
REMARK  status: ('A' for Active; 'I' for Inactive)
REMARK    1  A    between atoms: C_12  and  N_3 
REMARK    2  A    between atoms: C_10  and  C_5 
REMARK       I    between atoms: N_11  and  C_10 
REMARK    3  A    between atoms: C_24  and  C_12 
REMARK    4  A    between atoms: C_25  and  N_14 
ROOT
ATOM      1  C   UNL d   1      13.815  13.441  -2.498  0.00  0.00     0.154 A 
ATOM      2  C   UNL d   1      14.316  14.036  -2.223  0.00  0.00     0.093 A 
ATOM      3  N   UNL d   1      13.448  13.717  -3.186  0.00  0.00    -0.286 N 
ATOM      4  N   UNL d   1      13.761  12.735  -2.086  0.00  0.00    -0.210 NA
ATOM      5  C   UNL d   1      13.720  14.475  -3.336  0.00  0.00     0.122 A 
ATOM      6  C   UNL d   1      14.760  13.918  -1.539  0.00  0.00     0.269 A 
ATOM      7  N   UNL d   1      14.701  13.206  -1.130  0.00  0.00    -0.258 N 
ATOM      8  C   UNL d   1      14.199  12.612  -1.405  0.00  0.00     0.152 A 
ATOM      9  C   UNL d   1      14.261  14.680  -2.740  0.00  0.00     0.030 A 
ATOM     10  C   UNL d   1      15.145  13.088  -0.446  0.00  0.00     0.084 A 
ATOM     11  O   UNL d   1      15.261  14.512  -1.264  0.00  0.00    -0.266 OA
ATOM     12  C   UNL d   1      14.146  11.905  -0.993  0.00  0.00     0.038 A 
ATOM     13  C   UNL d   1      15.087  12.374  -0.035  0.00  0.00     0.019 A 
ATOM     14  C   UNL d   1      14.585  11.779  -0.309  0.00  0.00     0.005 A 
ENDROOT
BRANCH   5  15
ATOM     15  C   UNL d   1      13.497  14.956  -3.969  0.00  0.00     0.281 C 
ATOM     16  N   UNL d   1      13.967  15.596  -4.186  0.00  0.00    -0.268 N 
ATOM     17  C   UNL d   1      14.659  15.756  -3.771  0.00  0.00     0.102 A 
ATOM     18  C   UNL d   1      13.743  16.079  -4.821  0.00  0.00     0.102 A 
ATOM     19  C   UNL d   1      15.133  16.398  -3.987  0.00  0.00     0.100 A 
ATOM     20  N   UNL d   1      14.909  16.881  -4.623  0.00  0.00    -0.300 N 
ATOM     21  C   UNL d   1      14.213  16.719  -5.039  0.00  0.00     0.100 A 
ATOM     22  O   UNL d   1      12.805  14.796  -4.384  0.00  0.00    -0.265 OA
BRANCH  20  23
ATOM     23  C   UNL d   1      15.384  17.531  -4.845  0.00  0.00     0.080 C 
ATOM     24  C   UNL d   1      15.116  18.067  -5.418  0.00  0.00     0.021 C 
ENDBRANCH  20  23
ENDBRANCH   5  15
BRANCH   3  25
ATOM     25  C   UNL d   1      12.901  13.294  -3.640  0.00  0.00     0.082 C 
BRANCH  25  26
ATOM     26  C   UNL d   1      13.159  12.790  -4.233  0.00  0.00     0.018 A 
ATOM     27  C   UNL d   1      12.771  12.773  -4.962  0.00  0.00     0.002 A 
ATOM     28  C   UNL d   1      13.027  12.268  -5.560  0.00  0.00     0.000 A 
ATOM     29  C   UNL d   1      13.670  11.779  -5.432  0.00  0.00     0.000 A 
ATOM     30  C   UNL d   1      14.061  11.794  -4.703  0.00  0.00     0.000 A 
ATOM     31  C   UNL d   1      13.805  12.299  -4.105  0.00  0.00     0.002 A 
ENDBRANCH  25  26
ENDBRANCH   3  25
TORSDOF 4
ENDMDL
