MODEL 1
REMARK VINA RESULT:      -5.0      0.000      0.000
REMARK  5 active torsions:
REMARK  status: ('A' for Active; 'I' for Inactive)
REMARK       I    between atoms: C_2  and  N_1 
REMARK    1  A    between atoms: C_14  and  C_2 
REMARK    2  A    between atoms: C_8  and  O_11 
REMARK    3  A    between atoms: O_11  and  C_17 
REMARK    4  A    between atoms: C_18  and  C_14 
REMARK    5  A    between atoms: C_17  and  C_18 
ROOT
ATOM      1  C   UNL d   1     -41.426-122.910 -50.610  0.00  0.00     0.123 C 
ENDROOT
BRANCH   1   2
ATOM      2  O   UNL d   1     -41.139-122.700 -49.867  0.00  0.00    -0.305 OA
BRANCH   2   3
ATOM      3  C   UNL d   1     -41.520-122.968 -49.191  0.00  0.00     0.100 A 
ATOM      4  C   UNL d   1     -41.131-122.947 -48.463  0.00  0.00     0.025 A 
ATOM      5  C   UNL d   1     -41.512-123.216 -47.783  0.00  0.00     0.013 A 
ATOM      6  C   UNL d   1     -41.123-123.195 -47.056  0.00  0.00     0.001 C 
ATOM      7  C   UNL d   1     -42.282-123.506 -47.830  0.00  0.00     0.058 A 
ATOM      8  C   UNL d   1     -42.672-123.527 -48.556  0.00  0.00     0.013 A 
ATOM      9 CL   UNL d   1     -42.663-123.775 -47.149  0.00  0.00    -0.082 Cl
ATOM     10  C   UNL d   1     -42.291-123.258 -49.237  0.00  0.00     0.025 A 
ATOM     11  C   UNL d   1     -43.441-123.817 -48.603  0.00  0.00     0.001 C 
ENDBRANCH   2   3
ENDBRANCH   1   2
BRANCH   1  12
ATOM     12  C   UNL d   1     -41.278-122.426 -51.262  0.00  0.00     0.032 C 
BRANCH  12  13
ATOM     13  C   UNL d   1     -41.202-122.757 -52.014  0.00  0.00     0.063 C 
BRANCH  13  14
ATOM     14  C   UNL d   1     -41.339-122.296 -52.684  0.00  0.00     0.265 C 
ATOM     15  N   UNL d   1     -41.357-122.647 -53.431  0.00  0.00    -0.272 N 
ATOM     16  C   UNL d   1     -41.493-122.186 -54.100  0.00  0.00     0.083 A 
ATOM     17  C   UNL d   1     -41.238-123.460 -53.507  0.00  0.00     0.083 A 
ATOM     18  C   UNL d   1     -41.511-122.536 -54.847  0.00  0.00     0.019 A 
ATOM     19  C   UNL d   1     -41.392-123.349 -54.923  0.00  0.00     0.003 A 
ATOM     20  C   UNL d   1     -41.255-123.810 -54.253  0.00  0.00     0.019 A 
ATOM     21  O   UNL d   1     -41.458-121.483 -52.608  0.00  0.00    -0.267 OA
ENDBRANCH  13  14
ENDBRANCH  12  13
ENDBRANCH   1  12
TORSDOF 5
ENDMDL
