MODEL 1
REMARK VINA RESULT:      -9.3      0.000      0.000
REMARK  3 active torsions:
REMARK  status: ('A' for Active; 'I' for Inactive)
REMARK    1  A    between atoms: S_9  and  C_6 
REMARK    2  A    between atoms: C_13  and  S_9 
REMARK    3  A    between atoms: C_11  and  C_13 
ROOT
ATOM      1  C   UNL d   1      52.632  33.881  53.468  0.00  0.00     0.114 A 
ATOM      2  C   UNL d   1      52.938  33.141  53.617  0.00  0.00     0.048 A 
ATOM      3  S   UNL d   1      52.993  34.425  53.960  0.00  0.00    -0.068 SA
ATOM      4  C   UNL d   1      53.504  33.222  54.215  0.00  0.00     0.010 A 
ATOM      5  C   UNL d   1      53.553  33.992  54.437  0.00  0.00     0.031 A 
ATOM      6  C   UNL d   1      52.661  32.486  53.187  0.00  0.00     0.111 A 
ATOM      7  N   UNL d   1      52.048  33.978  52.891  0.00  0.00    -0.217 NA
ATOM      8  N   UNL d   1      52.081  32.573  52.612  0.00  0.00    -0.218 NA
ATOM      9  C   UNL d   1      51.774  33.323  52.464  0.00  0.00     0.200 A 
ATOM     10  C   UNL d   1      53.981  32.654  54.579  0.00  0.00     0.001 A 
ATOM     11  C   UNL d   1      54.075  34.240  55.028  0.00  0.00     0.006 A 
ATOM     12  C   UNL d   1      54.504  32.897  55.168  0.00  0.00     0.000 A 
ATOM     13  C   UNL d   1      54.554  33.663  55.391  0.00  0.00     0.001 A 
ENDROOT
BRANCH   6  14
ATOM     14  S   UNL d   1      52.971  31.715  53.334  0.00  0.00    -0.083 SA
BRANCH  14  15
ATOM     15  C   UNL d   1      52.687  31.090  52.914  0.00  0.00     0.161 C 
BRANCH  15  16
ATOM     16  C   UNL d   1      52.918  30.335  53.130  0.00  0.00     0.197 C 
ATOM     17  O   UNL d   1      52.366  29.831  53.458  0.00  0.00    -0.647 OA
ATOM     18  O   UNL d   1      53.671  30.084  53.024  0.00  0.00    -0.647 OA
ENDBRANCH  15  16
ENDBRANCH  14  15
ENDBRANCH   6  14
TORSDOF 3
ENDMDL
MODEL 2
REMARK VINA RESULT:      -9.1      2.007      3.023
REMARK  3 active torsions:
REMARK  status: ('A' for Active; 'I' for Inactive)
REMARK    1  A    between atoms: S_9  and  C_6 
REMARK    2  A    between atoms: C_13  and  S_9 
REMARK    3  A    between atoms: C_11  and  C_13 
ROOT
ATOM      1  C   UNL d   1      53.682  33.286  54.428  0.00  0.00     0.114 A 
ATOM      2  C   UNL d   1      53.094  33.192  53.873  0.00  0.00     0.048 A 
ATOM      3  S   UNL d   1      54.074  32.577  54.527  0.00  0.00    -0.068 SA
ATOM      4  C   UNL d   1      53.116  32.405  53.618  0.00  0.00     0.010 A 
ATOM      5  C   UNL d   1      53.704  32.014  54.002  0.00  0.00     0.031 A 
ATOM      6  C   UNL d   1      52.611  33.837  53.670  0.00  0.00     0.111 A 
ATOM      7  N   UNL d   1      53.797  34.023  54.786  0.00  0.00    -0.217 NA
ATOM      8  N   UNL d   1      52.717  34.571  54.021  0.00  0.00    -0.218 NA
ATOM      9  C   UNL d   1      53.314  34.663  54.582  0.00  0.00     0.200 A 
ATOM     10  C   UNL d   1      52.648  32.009  53.065  0.00  0.00     0.001 A 
ATOM     11  C   UNL d   1      53.858  31.215  53.860  0.00  0.00     0.006 A 
ATOM     12  C   UNL d   1      52.798  31.212  52.920  0.00  0.00     0.000 A 
ATOM     13  C   UNL d   1      53.382  30.821  53.301  0.00  0.00     0.001 A 
ENDROOT
BRANCH   6  14
ATOM     14  S   UNL d   1      51.998  33.749  53.096  0.00  0.00    -0.083 SA
BRANCH  14  15
ATOM     15  C   UNL d   1      51.550  34.387  52.898  0.00  0.00     0.161 C 
BRANCH  15  16
ATOM     16  C   UNL d   1      50.933  34.286  52.369  0.00  0.00     0.197 C 
ATOM     17  O   UNL d   1      50.176  34.188  52.658  0.00  0.00    -0.647 OA
ATOM     18  O   UNL d   1      51.060  34.282  51.579  0.00  0.00    -0.647 OA
ENDBRANCH  15  16
ENDBRANCH  14  15
ENDBRANCH   6  14
TORSDOF 3
ENDMDL
MODEL 3
REMARK VINA RESULT:      -9.1      1.110      2.188
REMARK  3 active torsions:
REMARK  status: ('A' for Active; 'I' for Inactive)
REMARK    1  A    between atoms: S_9  and  C_6 
REMARK    2  A    between atoms: C_13  and  S_9 
REMARK    3  A    between atoms: C_11  and  C_13 
ROOT
ATOM      1  C   UNL d   1      53.431  33.698  54.391  0.00  0.00     0.114 A 
ATOM      2  C   UNL d   1      53.114  33.128  53.904  0.00  0.00     0.048 A 
ATOM      3  S   UNL d   1      53.065  34.413  54.244  0.00  0.00    -0.068 SA
ATOM      4  C   UNL d   1      52.535  33.494  53.438  0.00  0.00     0.010 A 
ATOM      5  C   UNL d   1      52.490  34.273  53.629  0.00  0.00     0.031 A 
ATOM      6  C   UNL d   1      53.393  32.347  53.945  0.00  0.00     0.111 A 
ATOM      7  N   UNL d   1      54.030  33.496  54.926  0.00  0.00    -0.217 NA
ATOM      8  N   UNL d   1      53.986  32.138  54.472  0.00  0.00    -0.218 NA
ATOM      9  C   UNL d   1      54.306  32.717  54.964  0.00  0.00     0.200 A 
ATOM     10  C   UNL d   1      52.043  33.181  52.854  0.00  0.00     0.001 A 
ATOM     11  C   UNL d   1      51.957  34.780  53.253  0.00  0.00     0.006 A 
ATOM     12  C   UNL d   1      51.510  33.683  52.476  0.00  0.00     0.000 A 
ATOM     13  C   UNL d   1      51.463  34.458  52.664  0.00  0.00     0.001 A 
ENDROOT
BRANCH   6  14
ATOM     14  S   UNL d   1      53.070  31.750  53.443  0.00  0.00    -0.083 SA
BRANCH  14  15
ATOM     15  C   UNL d   1      53.333  30.993  53.514  0.00  0.00     0.161 C 
BRANCH  15  16
ATOM     16  C   UNL d   1      52.969  30.407  53.071  0.00  0.00     0.197 C 
ATOM     17  O   UNL d   1      52.491  29.865  53.450  0.00  0.00    -0.647 OA
ATOM     18  O   UNL d   1      53.075  30.359  52.279  0.00  0.00    -0.647 OA
ENDBRANCH  15  16
ENDBRANCH  14  15
ENDBRANCH   6  14
TORSDOF 3
ENDMDL
MODEL 4
REMARK VINA RESULT:      -8.9      2.049      3.184
REMARK  3 active torsions:
REMARK  status: ('A' for Active; 'I' for Inactive)
REMARK    1  A    between atoms: S_9  and  C_6 
REMARK    2  A    between atoms: C_13  and  S_9 
REMARK    3  A    between atoms: C_11  and  C_13 
ROOT
ATOM      1  C   UNL d   1      52.668  32.145  53.114  0.00  0.00     0.114 A 
ATOM      2  C   UNL d   1      53.024  32.764  53.506  0.00  0.00     0.048 A 
ATOM      3  S   UNL d   1      52.019  32.424  52.704  0.00  0.00    -0.068 SA
ATOM      4  C   UNL d   1      52.587  33.447  53.339  0.00  0.00     0.010 A 
ATOM      5  C   UNL d   1      51.974  33.263  52.854  0.00  0.00     0.031 A 
ATOM      6  C   UNL d   1      53.701  32.626  53.967  0.00  0.00     0.111 A 
ATOM      7  N   UNL d   1      52.983  31.383  53.176  0.00  0.00    -0.217 NA
ATOM      8  N   UNL d   1      54.020  31.873  54.034  0.00  0.00    -0.218 NA
ATOM      9  C   UNL d   1      53.658  31.249  53.635  0.00  0.00     0.200 A 
ATOM     10  C   UNL d   1      52.698  34.227  53.590  0.00  0.00     0.001 A 
ATOM     11  C   UNL d   1      51.441  33.838  52.593  0.00  0.00     0.006 A 
ATOM     12  C   UNL d   1      52.169  34.803  53.332  0.00  0.00     0.000 A 
ATOM     13  C   UNL d   1      51.558  34.622  52.849  0.00  0.00     0.001 A 
ENDROOT
BRANCH   6  14
ATOM     14  S   UNL d   1      54.076  33.261  54.378  0.00  0.00    -0.083 SA
BRANCH  14  15
ATOM     15  C   UNL d   1      54.726  33.109  54.827  0.00  0.00     0.161 C 
BRANCH  15  16
ATOM     16  C   UNL d   1      55.081  33.730  55.227  0.00  0.00     0.197 C 
ATOM     17  O   UNL d   1      55.709  34.116  54.878  0.00  0.00    -0.647 OA
ATOM     18  O   UNL d   1      54.823  33.961  55.949  0.00  0.00    -0.647 OA
ENDBRANCH  15  16
ENDBRANCH  14  15
ENDBRANCH   6  14
TORSDOF 3
ENDMDL
MODEL 5
REMARK VINA RESULT:      -8.9      1.885      2.567
REMARK  3 active torsions:
REMARK  status: ('A' for Active; 'I' for Inactive)
REMARK    1  A    between atoms: S_9  and  C_6 
REMARK    2  A    between atoms: C_13  and  S_9 
REMARK    3  A    between atoms: C_11  and  C_13 
ROOT
ATOM      1  C   UNL d   1      53.543  31.838  53.749  0.00  0.00     0.114 A 
ATOM      2  C   UNL d   1      53.149  32.546  53.665  0.00  0.00     0.048 A 
ATOM      3  S   UNL d   1      54.158  31.933  54.277  0.00  0.00    -0.068 SA
ATOM      4  C   UNL d   1      53.526  33.099  54.154  0.00  0.00     0.010 A 
ATOM      5  C   UNL d   1      54.141  32.747  54.534  0.00  0.00     0.031 A 
ATOM      6  C   UNL d   1      52.496  32.598  53.155  0.00  0.00     0.111 A 
ATOM      7  N   UNL d   1      53.291  31.174  53.324  0.00  0.00    -0.217 NA
ATOM      8  N   UNL d   1      52.240  31.944  52.730  0.00  0.00    -0.218 NA
ATOM      9  C   UNL d   1      52.640  31.229  52.816  0.00  0.00     0.200 A 
ATOM     10  C   UNL d   1      53.360  33.897  54.285  0.00  0.00     0.001 A 
ATOM     11  C   UNL d   1      54.620  33.165  55.060  0.00  0.00     0.006 A 
ATOM     12  C   UNL d   1      53.836  34.318  54.809  0.00  0.00     0.000 A 
ATOM     13  C   UNL d   1      54.447  33.970  55.188  0.00  0.00     0.001 A 
ENDROOT
BRANCH   6  14
ATOM     14  S   UNL d   1      52.082  33.328  53.062  0.00  0.00    -0.083 SA
BRANCH  14  15
ATOM     15  C   UNL d   1      51.398  33.340  52.638  0.00  0.00     0.161 C 
BRANCH  15  16
ATOM     16  C   UNL d   1      51.055  34.064  52.468  0.00  0.00     0.197 C 
ATOM     17  O   UNL d   1      51.275  34.455  51.786  0.00  0.00    -0.647 OA
ATOM     18  O   UNL d   1      50.511  34.391  52.955  0.00  0.00    -0.647 OA
ENDBRANCH  15  16
ENDBRANCH  14  15
ENDBRANCH   6  14
TORSDOF 3
ENDMDL
MODEL 6
REMARK VINA RESULT:      -8.8      1.784      3.035
REMARK  3 active torsions:
REMARK  status: ('A' for Active; 'I' for Inactive)
REMARK    1  A    between atoms: S_9  and  C_6 
REMARK    2  A    between atoms: C_13  and  S_9 
REMARK    3  A    between atoms: C_11  and  C_13 
ROOT
ATOM      1  C   UNL d   1      52.335  32.897  53.006  0.00  0.00     0.114 A 
ATOM      2  C   UNL d   1      52.976  32.764  53.489  0.00  0.00     0.048 A 
ATOM      3  S   UNL d   1      52.093  32.189  52.678  0.00  0.00    -0.068 SA
ATOM      4  C   UNL d   1      53.141  31.953  53.464  0.00  0.00     0.010 A 
ATOM      5  C   UNL d   1      52.617  31.586  52.978  0.00  0.00     0.031 A 
ATOM      6  C   UNL d   1      53.330  33.399  53.891  0.00  0.00     0.111 A 
ATOM      7  N   UNL d   1      52.038  33.664  52.917  0.00  0.00    -0.217 NA
ATOM      8  N   UNL d   1      53.042  34.163  53.809  0.00  0.00    -0.218 NA
ATOM      9  C   UNL d   1      52.392  34.295  53.319  0.00  0.00     0.200 A 
ATOM     10  C   UNL d   1      53.729  31.515  53.846  0.00  0.00     0.001 A 
ATOM     11  C   UNL d   1      52.647  30.771  52.846  0.00  0.00     0.006 A 
ATOM     12  C   UNL d   1      53.762  30.702  53.717  0.00  0.00     0.000 A 
ATOM     13  C   UNL d   1      53.241  30.335  53.234  0.00  0.00     0.001 A 
ENDROOT
BRANCH   6  14
ATOM     14  S   UNL d   1      53.995  33.270  54.394  0.00  0.00    -0.083 SA
BRANCH  14  15
ATOM     15  C   UNL d   1      54.302  33.889  54.807  0.00  0.00     0.161 C 
BRANCH  15  16
ATOM     16  C   UNL d   1      54.960  33.761  55.277  0.00  0.00     0.197 C 
ATOM     17  O   UNL d   1      55.688  34.024  55.019  0.00  0.00    -0.647 OA
ATOM     18  O   UNL d   1      54.900  33.385  55.982  0.00  0.00    -0.647 OA
ENDBRANCH  15  16
ENDBRANCH  14  15
ENDBRANCH   6  14
TORSDOF 3
ENDMDL
MODEL 7
REMARK VINA RESULT:      -7.7      2.567      3.846
REMARK  3 active torsions:
REMARK  status: ('A' for Active; 'I' for Inactive)
REMARK    1  A    between atoms: S_9  and  C_6 
REMARK    2  A    between atoms: C_13  and  S_9 
REMARK    3  A    between atoms: C_11  and  C_13 
ROOT
ATOM      1  C   UNL d   1      54.144  32.649  54.386  0.00  0.00     0.114 A 
ATOM      2  C   UNL d   1      53.626  33.263  54.253  0.00  0.00     0.048 A 
ATOM      3  S   UNL d   1      53.911  32.000  53.947  0.00  0.00    -0.068 SA
ATOM      4  C   UNL d   1      53.054  32.994  53.717  0.00  0.00     0.010 A 
ATOM      5  C   UNL d   1      53.210  32.231  53.519  0.00  0.00     0.031 A 
ATOM      6  C   UNL d   1      53.740  33.991  54.637  0.00  0.00     0.111 A 
ATOM      7  N   UNL d   1      54.781  32.753  54.903  0.00  0.00    -0.217 NA
ATOM      8  N   UNL d   1      54.370  34.102  55.151  0.00  0.00    -0.218 NA
ATOM      9  C   UNL d   1      54.892  33.479  55.284  0.00  0.00     0.200 A 
ATOM     10  C   UNL d   1      52.403  33.383  53.391  0.00  0.00     0.001 A 
ATOM     11  C   UNL d   1      52.730  31.815  52.991  0.00  0.00     0.006 A 
ATOM     12  C   UNL d   1      51.921  32.971  52.864  0.00  0.00     0.000 A 
ATOM     13  C   UNL d   1      52.073  32.212  52.666  0.00  0.00     0.001 A 
ENDROOT
BRANCH   6  14
ATOM     14  S   UNL d   1      53.208  34.632  54.504  0.00  0.00    -0.083 SA
BRANCH  14  15
ATOM     15  C   UNL d   1      53.265  35.291  54.964  0.00  0.00     0.161 C 
BRANCH  15  16
ATOM     16  C   UNL d   1      52.901  35.980  54.710  0.00  0.00     0.197 C 
ATOM     17  O   UNL d   1      53.364  36.591  54.432  0.00  0.00    -0.647 OA
ATOM     18  O   UNL d   1      52.105  36.062  54.732  0.00  0.00    -0.647 OA
ENDBRANCH  15  16
ENDBRANCH  14  15
ENDBRANCH   6  14
TORSDOF 3
ENDMDL
MODEL 8
REMARK VINA RESULT:      -6.7      1.715      3.177
REMARK  3 active torsions:
REMARK  status: ('A' for Active; 'I' for Inactive)
REMARK    1  A    between atoms: S_9  and  C_6 
REMARK    2  A    between atoms: C_13  and  S_9 
REMARK    3  A    between atoms: C_11  and  C_13 
ROOT
ATOM      1  C   UNL d   1      52.488  31.630  52.758  0.00  0.00     0.114 A 
ATOM      2  C   UNL d   1      53.098  31.696  53.294  0.00  0.00     0.048 A 
ATOM      3  S   UNL d   1      52.279  30.844  52.684  0.00  0.00    -0.068 SA
ATOM      4  C   UNL d   1      53.276  30.933  53.562  0.00  0.00     0.010 A 
ATOM      5  C   UNL d   1      52.791  30.402  53.204  0.00  0.00     0.031 A 
ATOM      6  C   UNL d   1      53.414  32.444  53.470  0.00  0.00     0.111 A 
ATOM      7  N   UNL d   1      52.186  32.308  52.392  0.00  0.00    -0.217 NA
ATOM      8  N   UNL d   1      53.121  33.121  53.111  0.00  0.00    -0.218 NA
ATOM      9  C   UNL d   1      52.503  33.052  52.570  0.00  0.00     0.200 A 
ATOM     10  C   UNL d   1      53.843  30.677  54.105  0.00  0.00     0.001 A 
ATOM     11  C   UNL d   1      52.842  29.594  53.364  0.00  0.00     0.006 A 
ATOM     12  C   UNL d   1      53.897  29.871  54.268  0.00  0.00     0.000 A 
ATOM     13  C   UNL d   1      53.416  29.341  53.913  0.00  0.00     0.001 A 
ENDROOT
BRANCH   6  14
ATOM     14  S   UNL d   1      54.046  32.522  54.024  0.00  0.00    -0.083 SA
BRANCH  14  15
ATOM     15  C   UNL d   1      54.294  33.257  54.237  0.00  0.00     0.161 C 
BRANCH  15  16
ATOM     16  C   UNL d   1      54.616  33.363  54.982  0.00  0.00     0.197 C 
ATOM     17  O   UNL d   1      55.371  33.667  55.047  0.00  0.00    -0.647 OA
ATOM     18  O   UNL d   1      54.206  33.175  55.643  0.00  0.00    -0.647 OA
ENDBRANCH  15  16
ENDBRANCH  14  15
ENDBRANCH   6  14
TORSDOF 3
ENDMDL
