MODEL 1
REMARK VINA RESULT:      21.6      0.000      0.000
REMARK  6 active torsions:
REMARK  status: ('A' for Active; 'I' for Inactive)
REMARK    1  A    between atoms: N_6  and  C_1 
REMARK    2  A    between atoms: C_3  and  N_6 
REMARK    3  A    between atoms: N_4  and  C_3 
REMARK       I    between atoms: C_9  and  N_4 
REMARK    4  A    between atoms: C_12  and  C_9 
REMARK    5  A    between atoms: C_10  and  C_13 
REMARK    6  A    between atoms: O_20  and  C_10 
ROOT
ATOM      1  N   UNL d   1      46.147 -15.208  44.300  0.00  0.00    -0.179 NA
ATOM      2  C   UNL d   1      46.159 -14.383  44.388  0.00  0.00     0.281 C 
ATOM      3  O   UNL d   1      46.644 -14.035  44.955  0.00  0.00    -0.265 OA
ENDROOT
BRANCH   1   4
ATOM      4  C   UNL d   1      45.662 -15.555  43.733  0.00  0.00     0.225 C 
ATOM      5  S   UNL d   1      44.846 -15.457  43.775  0.00  0.00    -0.037 SA
BRANCH   4   6
ATOM      6  N   UNL d   1      45.997 -16.005  43.116  0.00  0.00    -0.192 NA
BRANCH   6   7
ATOM      7  C   UNL d   1      46.071 -16.828  43.200  0.00  0.00     0.196 A 
ATOM      8  N   UNL d   1      45.820 -17.385  42.652  0.00  0.00    -0.221 NA
ATOM      9  C   UNL d   1      46.001 -18.137  42.955  0.00  0.00     0.090 A 
ATOM     10  C   UNL d   1      45.880 -18.901  42.652  0.00  0.00     0.020 A 
ATOM     11  C   UNL d   1      46.362 -18.034  43.688  0.00  0.00     0.050 A 
ATOM     12  C   UNL d   1      46.124 -19.558  43.089  0.00  0.00     0.002 A 
ATOM     13  C   UNL d   1      46.487 -19.450  43.827  0.00  0.00     0.001 A 
ATOM     14  C   UNL d   1      46.605 -18.691  44.125  0.00  0.00     0.008 A 
ATOM     15  S   UNL d   1      46.403 -17.214  43.835  0.00  0.00    -0.047 SA
ENDBRANCH   6   7
ENDBRANCH   4   6
ENDBRANCH   1   4
BRANCH   2  16
ATOM     16  C   UNL d   1      45.686 -13.910  43.907  0.00  0.00     0.058 A 
ATOM     17  C   UNL d   1      45.802 -13.909  43.092  0.00  0.00     0.005 A 
ATOM     18  C   UNL d   1      45.327 -13.433  42.604  0.00  0.00     0.005 A 
ATOM     19  C   UNL d   1      44.738 -12.962  42.939  0.00  0.00     0.063 A 
ATOM     20  C   UNL d   1      44.624 -12.967  43.762  0.00  0.00     0.005 A 
ATOM     21  C   UNL d   1      45.097 -13.439  44.242  0.00  0.00     0.005 A 
BRANCH  19  22
ATOM     22  C   UNL d   1      44.255 -12.481  42.460  0.00  0.00     0.296 C 
ATOM     23  O   UNL d   1      43.449 -12.403  42.618  0.00  0.00    -0.259 OA
BRANCH  22  24
ATOM     24  O   UNL d   1      44.591 -12.082  41.823  0.00  0.00    -0.296 OA
ATOM     25  C   UNL d   1      44.986 -12.505  41.227  0.00  0.00     0.185 C 
ENDBRANCH  22  24
ENDBRANCH  19  22
ENDBRANCH   2  16
TORSDOF 6
ENDMDL
