MODEL 1
REMARK VINA RESULT:       4.0      0.000      0.000
REMARK  0 active torsions:
REMARK  status: ('A' for Active; 'I' for Inactive)
ROOT
ATOM      1  C   UNL d   1     -54.746-101.570 -37.692  0.00  0.00     0.286 A 
ATOM      2  N   UNL d   1     -54.758-102.276 -38.052  0.00  0.00    -0.170 NA
ATOM      3  C   UNL d   1     -54.735-101.698 -36.880  0.00  0.00     0.066 A 
ATOM      4  S   UNL d   1     -54.755-102.880 -37.508  0.00  0.00     0.017 SA
ATOM      5  C   UNL d   1     -54.741-102.533 -36.763  0.00  0.00     0.052 A 
ATOM      6  O   UNL d   1     -54.745-100.837 -38.054  0.00  0.00    -0.265 OA
ATOM      7  C   UNL d   1     -54.720-101.189 -36.237  0.00  0.00     0.005 A 
ATOM      8  C   UNL d   1     -54.732-102.846 -36.004  0.00  0.00     0.008 A 
ATOM      9  C   UNL d   1     -54.711-101.500 -35.469  0.00  0.00     0.000 A 
ATOM     10  C   UNL d   1     -54.717-102.335 -35.352  0.00  0.00     0.001 A 
ENDROOT
TORSDOF 0
ENDMDL
