MODEL 1
REMARK VINA RESULT:      -4.5      0.000      0.000
REMARK  5 active torsions:
REMARK  status: ('A' for Active; 'I' for Inactive)
REMARK    1  A    between atoms: S_10  and  C_4 
REMARK    2  A    between atoms: C_15  and  S_10 
REMARK    3  A    between atoms: C_11  and  C_15 
REMARK       I    between atoms: N_12  and  C_11 
REMARK    4  A    between atoms: C_16  and  N_12 
REMARK    5  A    between atoms: C_17  and  C_16 
ROOT
ATOM      1  C   UNL d   1     -42.036-122.861 -49.718  0.00  0.00     0.141 A 
ATOM      2  C   UNL d   1     -42.634-122.809 -49.153  0.00  0.00     0.110 A 
ATOM      3  O   UNL d   1     -41.373-123.196 -49.359  0.00  0.00    -0.303 OA
ATOM      4  C   UNL d   1     -42.172-122.598 -50.488  0.00  0.00     0.137 A 
ATOM      5  N   UNL d   1     -42.907-122.282 -50.692  0.00  0.00    -0.218 NA
ATOM      6  C   UNL d   1     -42.341-123.111 -48.443  0.00  0.00     0.043 A 
ATOM      7  N   UNL d   1     -43.369-122.493 -49.356  0.00  0.00    -0.225 NA
ATOM      8  C   UNL d   1     -41.561-123.350 -48.570  0.00  0.00     0.102 A 
ATOM      9  C   UNL d   1     -43.505-122.230 -50.127  0.00  0.00     0.163 A 
ATOM     10  C   UNL d   1     -42.682-123.199 -47.697  0.00  0.00     0.004 A 
ATOM     11  C   UNL d   1     -41.124-123.677 -47.952  0.00  0.00     0.025 A 
ATOM     12  C   UNL d   1     -44.239-121.914 -50.331  0.00  0.00     0.042 C 
ATOM     13  C   UNL d   1     -42.245-123.526 -47.078  0.00  0.00     0.000 A 
ATOM     14  C   UNL d   1     -41.466-123.765 -47.206  0.00  0.00     0.002 A 
ENDROOT
BRANCH   4  15
ATOM     15  S   UNL d   1     -41.575-122.650 -51.054  0.00  0.00    -0.060 SA
BRANCH  15  16
ATOM     16  C   UNL d   1     -41.759-122.573 -51.856  0.00  0.00     0.099 C 
BRANCH  16  17
ATOM     17  C   UNL d   1     -41.430-123.091 -52.407  0.00  0.00     0.286 C 
ATOM     18  N   UNL d   1     -41.407-122.884 -53.205  0.00  0.00    -0.204 NA
ATOM     19  O   UNL d   1     -41.123-123.816 -52.159  0.00  0.00    -0.265 OA
BRANCH  18  20
ATOM     20  C   UNL d   1     -41.714-122.161 -53.454  0.00  0.00     0.127 C 
BRANCH  20  21
ATOM     21  C   UNL d   1     -41.926-122.050 -54.242  0.00  0.00     0.119 A 
ATOM     22  O   UNL d   1     -42.654-121.770 -54.513  0.00  0.00    -0.304 OA
ATOM     23  C   UNL d   1     -42.627-121.746 -55.337  0.00  0.00     0.123 A 
ATOM     24  C   UNL d   1     -41.883-122.010 -55.576  0.00  0.00     0.029 A 
ATOM     25  C   UNL d   1     -41.450-122.198 -54.899  0.00  0.00     0.028 A 
ENDBRANCH  20  21
ENDBRANCH  18  20
ENDBRANCH  16  17
ENDBRANCH  15  16
ENDBRANCH   4  15
TORSDOF 5
ENDMDL
MODEL 2
REMARK VINA RESULT:      -4.0      1.232      5.349
REMARK  5 active torsions:
REMARK  status: ('A' for Active; 'I' for Inactive)
REMARK    1  A    between atoms: S_10  and  C_4 
REMARK    2  A    between atoms: C_15  and  S_10 
REMARK    3  A    between atoms: C_11  and  C_15 
REMARK       I    between atoms: N_12  and  C_11 
REMARK    4  A    between atoms: C_16  and  N_12 
REMARK    5  A    between atoms: C_17  and  C_16 
ROOT
ATOM      1  C   UNL d   1     -41.467-122.671 -52.395  0.00  0.00     0.141 A 
ATOM      2  C   UNL d   1     -41.316-122.106 -52.977  0.00  0.00     0.110 A 
ATOM      3  O   UNL d   1     -41.551-123.404 -52.765  0.00  0.00    -0.303 OA
ATOM      4  C   UNL d   1     -41.509-122.445 -51.603  0.00  0.00     0.137 A 
ATOM      5  N   UNL d   1     -41.400-121.654 -51.394  0.00  0.00    -0.218 NA
ATOM      6  C   UNL d   1     -41.306-122.491 -53.708  0.00  0.00     0.043 A 
ATOM      7  N   UNL d   1     -41.207-121.316 -52.768  0.00  0.00    -0.225 NA
ATOM      8  C   UNL d   1     -41.451-123.293 -53.577  0.00  0.00     0.102 A 
ATOM      9  C   UNL d   1     -41.249-121.090 -51.976  0.00  0.00     0.163 A 
ATOM     10  C   UNL d   1     -41.184-122.214 -54.476  0.00  0.00     0.004 A 
ATOM     11  C   UNL d   1     -41.474-123.817 -54.213  0.00  0.00     0.025 A 
ATOM     12  C   UNL d   1     -41.140-120.300 -51.766  0.00  0.00     0.042 C 
ATOM     13  C   UNL d   1     -41.206-122.739 -55.113  0.00  0.00     0.000 A 
ATOM     14  C   UNL d   1     -41.351-123.540 -54.981  0.00  0.00     0.002 A 
ENDROOT
BRANCH   4  15
ATOM     15  S   UNL d   1     -41.660-123.008 -51.020  0.00  0.00    -0.060 SA
BRANCH  15  16
ATOM     16  C   UNL d   1     -42.111-122.805 -50.358  0.00  0.00     0.099 C 
BRANCH  16  17
ATOM     17  C   UNL d   1     -42.524-123.388 -49.946  0.00  0.00     0.286 C 
ATOM     18  N   UNL d   1     -42.342-123.542 -49.156  0.00  0.00    -0.204 NA
ATOM     19  O   UNL d   1     -43.120-123.817 -50.324  0.00  0.00    -0.265 OA
BRANCH  18  20
ATOM     20  C   UNL d   1     -41.747-123.115 -48.778  0.00  0.00     0.127 C 
BRANCH  20  21
ATOM     21  C   UNL d   1     -41.716-123.087 -47.955  0.00  0.00     0.119 A 
ATOM     22  O   UNL d   1     -42.274-122.732 -47.461  0.00  0.00    -0.304 OA
ATOM     23  C   UNL d   1     -42.026-122.835 -46.682  0.00  0.00     0.123 A 
ATOM     24  C   UNL d   1     -41.316-123.254 -46.692  0.00  0.00     0.029 A 
ATOM     25  C   UNL d   1     -41.124-123.410 -47.480  0.00  0.00     0.028 A 
ENDBRANCH  20  21
ENDBRANCH  18  20
ENDBRANCH  16  17
ENDBRANCH  15  16
ENDBRANCH   4  15
TORSDOF 5
ENDMDL
