MODEL 1
REMARK VINA RESULT:       6.9      0.000      0.000
REMARK  4 active torsions:
REMARK  status: ('A' for Active; 'I' for Inactive)
REMARK    1  A    between atoms: C_2  and  C_1 
REMARK    2  A    between atoms: N_8  and  C_3 
REMARK    3  A    between atoms: C_15  and  N_8 
REMARK    4  A    between atoms: O_18  and  C_16 
ROOT
ATOM      1  C   UNL d   1     -41.956-122.118 -52.286  0.00  0.00     0.077 A 
ATOM      2  C   UNL d   1     -41.518-121.533 -51.903  0.00  0.00     0.185 A 
ATOM      3  C   UNL d   1     -42.346-122.693 -51.848  0.00  0.00     0.009 A 
ATOM      4  O   UNL d   1     -41.469-121.524 -51.083  0.00  0.00    -0.289 OA
ATOM      5  C   UNL d   1     -42.300-122.687 -51.023  0.00  0.00     0.025 A 
ATOM      6  C   UNL d   1     -41.861-122.102 -50.640  0.00  0.00     0.102 A 
ATOM      7  C   UNL d   1     -42.685-123.252 -50.606  0.00  0.00     0.026 A 
ATOM      8  C   UNL d   1     -41.807-122.083 -49.841  0.00  0.00     0.027 A 
ATOM      9  C   UNL d   1     -42.639-123.248 -49.776  0.00  0.00     0.094 A 
ATOM     10  C   UNL d   1     -42.201-122.664 -49.393  0.00  0.00     0.026 A 
ENDROOT
BRANCH   1  11
ATOM     11  C   UNL d   1     -42.002-122.125 -53.098  0.00  0.00     0.166 A 
ATOM     12  N   UNL d   1     -41.425-122.372 -53.583  0.00  0.00    -0.225 NA
ATOM     13  C   UNL d   1     -41.658-122.301 -54.340  0.00  0.00     0.101 A 
ATOM     14  C   UNL d   1     -41.310-122.464 -55.078  0.00  0.00     0.021 A 
ATOM     15  C   UNL d   1     -42.432-121.990 -54.314  0.00  0.00     0.101 A 
ATOM     16  C   UNL d   1     -41.753-122.308 -55.776  0.00  0.00     0.002 A 
ATOM     17  C   UNL d   1     -42.526-121.996 -55.737  0.00  0.00     0.002 A 
ATOM     18  C   UNL d   1     -42.865-121.839 -55.047  0.00  0.00     0.021 A 
ATOM     19  N   UNL d   1     -42.634-121.884 -53.514  0.00  0.00    -0.225 NA
ENDBRANCH   1  11
BRANCH   2  20
ATOM     20  N   UNL d   1     -41.126-120.955 -52.345  0.00  0.00    -0.222 NA
BRANCH  20  21
ATOM     21  C   UNL d   1     -41.125-120.182 -52.093  0.00  0.00     0.084 A 
ATOM     22  C   UNL d   1     -41.124-119.585 -52.646  0.00  0.00     0.019 A 
ATOM     23  C   UNL d   1     -41.123-118.817 -52.396  0.00  0.00     0.002 A 
ATOM     24  C   UNL d   1     -41.123-118.624 -51.603  0.00  0.00     0.000 A 
ATOM     25  C   UNL d   1     -41.124-119.234 -51.062  0.00  0.00     0.002 A 
ATOM     26  C   UNL d   1     -41.124-120.022 -51.306  0.00  0.00     0.019 A 
ENDBRANCH  20  21
ENDBRANCH   2  20
BRANCH   9  27
ATOM     27  O   UNL d   1     -43.022-123.812 -49.351  0.00  0.00    -0.328 OA
ATOM     28  C   UNL d   1     -42.977-123.817 -48.561  0.00  0.00     0.181 C 
ENDBRANCH   9  27
TORSDOF 4
ENDMDL
