MODEL 1
REMARK VINA RESULT:      55.6      0.000      0.000
REMARK  4 active torsions:
REMARK  status: ('A' for Active; 'I' for Inactive)
REMARK    1  A    between atoms: S_16  and  C_7 
REMARK    2  A    between atoms: C_10  and  N_11 
REMARK       I    between atoms: N_11  and  C_14 
REMARK    3  A    between atoms: C_14  and  C_20 
REMARK    4  A    between atoms: C_20  and  S_16 
ROOT
ATOM      1  N   UNL d   1     -47.991  29.899  34.818  0.00  0.00    -0.167 N 
ATOM      2  C   UNL d   1     -47.765  29.524  35.511  0.00  0.00     0.220 A 
ATOM      3  C   UNL d   1     -47.837  30.706  34.701  0.00  0.00     0.301 A 
ATOM      4  S   UNL d   1     -47.997  28.733  35.454  0.00  0.00    -0.019 SA
ATOM      5  N   UNL d   1     -48.360  29.354  34.331  0.00  0.00    -0.147 NA
ATOM      6  N   UNL d   1     -47.379  29.947  36.102  0.00  0.00    -0.121 NA
ATOM      7  C   UNL d   1     -48.364  28.631  34.726  0.00  0.00     0.164 A 
ATOM      8  N   UNL d   1     -47.220  30.746  36.000  0.00  0.00    -0.141 NA
ATOM      9  C   UNL d   1     -47.447  31.124  35.303  0.00  0.00     0.161 A 
ATOM     10  O   UNL d   1     -48.062  31.079  34.010  0.00  0.00    -0.263 OA
ATOM     11  C   UNL d   1     -47.289  31.924  35.196  0.00  0.00     0.028 C 
ENDROOT
BRANCH   7  12
ATOM     12  S   UNL d   1     -48.680  27.925  34.440  0.00  0.00    -0.054 SA
BRANCH  12  13
ATOM     13  C   UNL d   1     -49.459  27.891  34.185  0.00  0.00     0.100 C 
BRANCH  13  14
ATOM     14  C   UNL d   1     -49.771  27.174  33.914  0.00  0.00     0.288 C 
ATOM     15  N   UNL d   1     -50.580  27.019  33.997  0.00  0.00    -0.182 NA
ATOM     16  O   UNL d   1     -49.275  26.617  33.562  0.00  0.00    -0.265 OA
BRANCH  15  17
ATOM     17  C   UNL d   1     -50.890  26.304  33.726  0.00  0.00     0.197 A 
ATOM     18  N   UNL d   1     -51.690  26.143  33.571  0.00  0.00    -0.219 NA
ATOM     19  C   UNL d   1     -51.747  25.365  33.313  0.00  0.00     0.108 A 
ATOM     20  C   UNL d   1     -50.981  25.041  33.306  0.00  0.00     0.059 A 
ATOM     21  S   UNL d   1     -50.462  25.621  33.560  0.00  0.00    -0.046 SA
ENDBRANCH  15  17
ENDBRANCH  13  14
ENDBRANCH  12  13
ENDBRANCH   7  12
TORSDOF 4
ENDMDL
MODEL 2
REMARK VINA RESULT:      56.8      1.614      5.425
REMARK  4 active torsions:
REMARK  status: ('A' for Active; 'I' for Inactive)
REMARK    1  A    between atoms: S_16  and  C_7 
REMARK    2  A    between atoms: C_10  and  N_11 
REMARK       I    between atoms: N_11  and  C_14 
REMARK    3  A    between atoms: C_14  and  C_20 
REMARK    4  A    between atoms: C_20  and  S_16 
ROOT
ATOM      1  N   UNL d   1     -51.106  26.658  33.333  0.00  0.00    -0.167 N 
ATOM      2  C   UNL d   1     -50.312  26.453  33.337  0.00  0.00     0.220 A 
ATOM      3  C   UNL d   1     -51.695  26.075  33.323  0.00  0.00     0.301 A 
ATOM      4  S   UNL d   1     -49.873  27.153  33.348  0.00  0.00    -0.019 SA
ATOM      5  N   UNL d   1     -51.167  27.474  33.341  0.00  0.00    -0.147 NA
ATOM      6  N   UNL d   1     -50.090  25.660  33.331  0.00  0.00    -0.121 NA
ATOM      7  C   UNL d   1     -50.403  27.780  33.350  0.00  0.00     0.164 A 
ATOM      8  N   UNL d   1     -50.663  25.072  33.320  0.00  0.00    -0.141 NA
ATOM      9  C   UNL d   1     -51.462  25.278  33.316  0.00  0.00     0.161 A 
ATOM     10  O   UNL d   1     -52.486  26.279  33.319  0.00  0.00    -0.263 OA
ATOM     11  C   UNL d   1     -52.040  24.692  33.306  0.00  0.00     0.028 C 
ENDROOT
BRANCH   7  12
ATOM     12  S   UNL d   1     -50.201  28.580  33.359  0.00  0.00    -0.054 SA
BRANCH  12  13
ATOM     13  C   UNL d   1     -49.588  28.849  33.834  0.00  0.00     0.100 C 
BRANCH  13  14
ATOM     14  C   UNL d   1     -49.415  29.658  33.862  0.00  0.00     0.288 C 
ATOM     15  N   UNL d   1     -48.667  29.912  34.110  0.00  0.00    -0.182 NA
ATOM     16  O   UNL d   1     -49.989  30.208  33.642  0.00  0.00    -0.265 OA
BRANCH  15  17
ATOM     17  C   UNL d   1     -48.496  30.718  34.137  0.00  0.00     0.197 A 
ATOM     18  N   UNL d   1     -48.900  31.319  33.729  0.00  0.00    -0.219 NA
ATOM     19  C   UNL d   1     -48.545  32.036  33.917  0.00  0.00     0.108 A 
ATOM     20  C   UNL d   1     -47.919  31.882  34.443  0.00  0.00     0.059 A 
ATOM     21  S   UNL d   1     -47.896  31.073  34.572  0.00  0.00    -0.046 SA
ENDBRANCH  15  17
ENDBRANCH  13  14
ENDBRANCH  12  13
ENDBRANCH   7  12
TORSDOF 4
ENDMDL
MODEL 3
REMARK VINA RESULT:      57.9      3.324      5.905
REMARK  4 active torsions:
REMARK  status: ('A' for Active; 'I' for Inactive)
REMARK    1  A    between atoms: S_16  and  C_7 
REMARK    2  A    between atoms: C_10  and  N_11 
REMARK       I    between atoms: N_11  and  C_14 
REMARK    3  A    between atoms: C_14  and  C_20 
REMARK    4  A    between atoms: C_20  and  S_16 
ROOT
ATOM      1  N   UNL d   1     -51.998  24.864  33.377  0.00  0.00    -0.167 N 
ATOM      2  C   UNL d   1     -51.280  24.470  33.340  0.00  0.00     0.220 A 
ATOM      3  C   UNL d   1     -52.713  24.444  33.379  0.00  0.00     0.301 A 
ATOM      4  S   UNL d   1     -50.681  25.041  33.348  0.00  0.00    -0.019 SA
ATOM      5  N   UNL d   1     -51.855  25.669  33.407  0.00  0.00    -0.147 NA
ATOM      6  N   UNL d   1     -51.260  23.648  33.305  0.00  0.00    -0.121 NA
ATOM      7  C   UNL d   1     -51.040  25.779  33.389  0.00  0.00     0.164 A 
ATOM      8  N   UNL d   1     -51.961  23.219  33.307  0.00  0.00    -0.141 NA
ATOM      9  C   UNL d   1     -52.684  23.615  33.343  0.00  0.00     0.161 A 
ATOM     10  O   UNL d   1     -53.429  24.836  33.415  0.00  0.00    -0.263 OA
ATOM     11  C   UNL d   1     -53.388  23.190  33.345  0.00  0.00     0.028 C 
ENDROOT
BRANCH   7  12
ATOM     12  S   UNL d   1     -50.647  26.504  33.408  0.00  0.00    -0.054 SA
BRANCH  12  13
ATOM     13  C   UNL d   1     -50.163  26.698  34.042  0.00  0.00     0.100 C 
BRANCH  13  14
ATOM     14  C   UNL d   1     -50.500  26.859  34.781  0.00  0.00     0.288 C 
ATOM     15  N   UNL d   1     -50.085  26.676  35.473  0.00  0.00    -0.182 NA
ATOM     16  O   UNL d   1     -51.250  27.201  34.824  0.00  0.00    -0.265 OA
BRANCH  15  17
ATOM     17  C   UNL d   1     -50.422  26.837  36.208  0.00  0.00     0.197 A 
ATOM     18  N   UNL d   1     -50.064  27.253  36.832  0.00  0.00    -0.219 NA
ATOM     19  C   UNL d   1     -50.597  27.283  37.456  0.00  0.00     0.108 A 
ATOM     20  C   UNL d   1     -51.289  26.885  37.221  0.00  0.00     0.059 A 
ATOM     21  S   UNL d   1     -51.174  26.616  36.456  0.00  0.00    -0.046 SA
ENDBRANCH  15  17
ENDBRANCH  13  14
ENDBRANCH  12  13
ENDBRANCH   7  12
TORSDOF 4
ENDMDL
