MODEL 1
REMARK VINA RESULT:      22.6      0.000      0.000
REMARK  5 active torsions:
REMARK  status: ('A' for Active; 'I' for Inactive)
REMARK    1  A    between atoms: C_2  and  S_1 
REMARK    2  A    between atoms: N_3  and  S_1 
REMARK    3  A    between atoms: C_6  and  C_7 
REMARK    4  A    between atoms: C_7  and  C_8 
REMARK    5  A    between atoms: C_8  and  C_12 
ROOT
ATOM      1  C   UNL d   1     -50.928  24.890  33.442  0.00  0.00     0.104 A 
ATOM      2  C   UNL d   1     -50.224  24.507  33.554  0.00  0.00     0.012 A 
ATOM      3  C   UNL d   1     -51.621  24.477  33.362  0.00  0.00     0.013 A 
ATOM      4  C   UNL d   1     -51.607  23.637  33.395  0.00  0.00     0.001 A 
ATOM      5  C   UNL d   1     -50.210  23.668  33.587  0.00  0.00     0.001 A 
ATOM      6  C   UNL d   1     -50.901  23.256  33.507  0.00  0.00     0.000 A 
ATOM      7  C   UNL d   1     -49.511  24.943  33.636  0.00  0.00     0.001 C 
ENDROOT
BRANCH   1   8
ATOM      8  S   UNL d   1     -50.942  25.729  33.409  0.00  0.00     0.271 S 
ATOM      9  O   UNL d   1     -50.124  25.744  33.435  0.00  0.00    -0.200 OA
ATOM     10  O   UNL d   1     -51.781  25.714  33.382  0.00  0.00    -0.200 OA
BRANCH   8  11
ATOM     11  N   UNL d   1     -50.947  26.545  33.377  0.00  0.00    -0.229 N 
ATOM     12  C   UNL d   1     -50.235  26.954  33.362  0.00  0.00     0.092 A 
ATOM     13  C   UNL d   1     -50.242  27.782  33.329  0.00  0.00     0.020 A 
ATOM     14  C   UNL d   1     -50.964  28.198  33.312  0.00  0.00     0.003 A 
ATOM     15  C   UNL d   1     -51.657  27.767  33.328  0.00  0.00     0.020 A 
ATOM     16  C   UNL d   1     -51.654  26.942  33.360  0.00  0.00     0.092 A 
ENDBRANCH   8  11
ENDBRANCH   1   8
BRANCH   4  17
ATOM     17  C   UNL d   1     -52.339  23.209  33.310  0.00  0.00     0.006 C 
BRANCH  17  18
ATOM     18  C   UNL d   1     -52.909  23.191  33.921  0.00  0.00     0.070 C 
BRANCH  18  19
ATOM     19  C   UNL d   1     -53.628  23.570  33.826  0.00  0.00     0.211 C 
ATOM     20  O   UNL d   1     -53.748  24.328  34.150  0.00  0.00    -0.644 OA
ATOM     21  O   UNL d   1     -54.234  23.209  33.413  0.00  0.00    -0.644 OA
ENDBRANCH  18  19
ENDBRANCH  17  18
ENDBRANCH   4  17
TORSDOF 5
ENDMDL
