MODEL 1
REMARK VINA RESULT:       7.8      0.000      0.000
REMARK  5 active torsions:
REMARK  status: ('A' for Active; 'I' for Inactive)
REMARK    1  A    between atoms: C_14  and  C_3 
REMARK    2  A    between atoms: C_8  and  C_4 
REMARK    3  A    between atoms: N_10  and  C_9 
REMARK    4  A    between atoms: O_21  and  C_14 
REMARK    5  A    between atoms: C_25  and  O_21 
ROOT
ATOM      1  C   UNL d   1     -41.832-122.120 -51.387  0.00  0.00     0.059 A 
ATOM      2  C   UNL d   1     -41.775-121.819 -50.620  0.00  0.00     0.085 A 
ATOM      3  C   UNL d   1     -41.419-120.860 -51.911  0.00  0.00     0.083 A 
ATOM      4  C   UNL d   1     -41.654-121.638 -52.028  0.00  0.00     0.034 A 
ATOM      5  N   UNL d   1     -41.543-121.045 -50.492  0.00  0.00    -0.245 NA
ATOM      6  C   UNL d   1     -42.077-122.905 -51.338  0.00  0.00     0.197 A 
ATOM      7  C   UNL d   1     -41.362-120.559 -51.141  0.00  0.00     0.087 A 
ATOM      8  C   UNL d   1     -41.986-122.423 -50.095  0.00  0.00     0.021 A 
ATOM      9  C   UNL d   1     -42.172-123.092 -50.536  0.00  0.00     0.041 A 
ATOM     10  O   UNL d   1     -42.205-123.417 -51.975  0.00  0.00    -0.286 OA
ATOM     11  C   UNL d   1     -41.127-119.778 -51.020  0.00  0.00     0.021 C 
ATOM     12  C   UNL d   1     -42.034-122.451 -49.263  0.00  0.00     0.002 A 
ATOM     13  C   UNL d   1     -42.405-123.792 -50.159  0.00  0.00     0.003 A 
ATOM     14  C   UNL d   1     -42.265-123.146 -48.893  0.00  0.00     0.000 A 
ATOM     15  C   UNL d   1     -42.451-123.814 -49.331  0.00  0.00     0.000 A 
ENDROOT
BRANCH   4  16
ATOM     16  C   UNL d   1     -41.710-121.938 -52.794  0.00  0.00     0.102 A 
ATOM     17  O   UNL d   1     -42.326-121.803 -53.327  0.00  0.00    -0.286 OA
ATOM     18  C   UNL d   1     -42.161-122.204 -54.021  0.00  0.00     0.227 A 
ATOM     19  C   UNL d   1     -41.441-122.595 -53.929  0.00  0.00     0.051 A 
ATOM     20  C   UNL d   1     -41.158-122.432 -53.167  0.00  0.00     0.029 A 
BRANCH  18  21
ATOM     21  N   UNL d   1     -42.630-122.222 -54.706  0.00  0.00    -0.089 N 
ATOM     22  O   UNL d   1     -42.794-121.531 -55.116  0.00  0.00    -0.530 OA
ATOM     23  O   UNL d   1     -42.932-122.949 -54.971  0.00  0.00    -0.530 OA
ENDBRANCH  18  21
ENDBRANCH   4  16
BRANCH   3  24
ATOM     24  C   UNL d   1     -41.240-120.375 -52.554  0.00  0.00     0.302 C 
ATOM     25  O   UNL d   1     -41.134-120.710 -53.300  0.00  0.00    -0.259 OA
BRANCH  24  26
ATOM     26  O   UNL d   1     -41.166-119.562 -52.451  0.00  0.00    -0.271 OA
BRANCH  26  27
ATOM     27  C   UNL d   1     -41.308-119.055 -53.085  0.00  0.00     0.126 C 
ATOM     28  C   UNL d   1     -41.123-118.256 -53.019  0.00  0.00     0.029 C 
ENDBRANCH  26  27
ENDBRANCH  24  26
ENDBRANCH   3  24
TORSDOF 5
ENDMDL
MODEL 2
REMARK VINA RESULT:       8.6      1.432      3.679
REMARK  5 active torsions:
REMARK  status: ('A' for Active; 'I' for Inactive)
REMARK    1  A    between atoms: C_14  and  C_3 
REMARK    2  A    between atoms: C_8  and  C_4 
REMARK    3  A    between atoms: N_10  and  C_9 
REMARK    4  A    between atoms: O_21  and  C_14 
REMARK    5  A    between atoms: C_25  and  O_21 
ROOT
ATOM      1  C   UNL d   1     -41.984-122.334 -53.569  0.00  0.00     0.059 A 
ATOM      2  C   UNL d   1     -41.951-121.757 -54.158  0.00  0.00     0.085 A 
ATOM      3  C   UNL d   1     -41.488-121.394 -52.620  0.00  0.00     0.083 A 
ATOM      4  C   UNL d   1     -41.752-122.149 -52.803  0.00  0.00     0.034 A 
ATOM      5  N   UNL d   1     -41.690-121.001 -53.987  0.00  0.00    -0.245 NA
ATOM      6  C   UNL d   1     -42.267-123.031 -53.906  0.00  0.00     0.197 A 
ATOM      7  C   UNL d   1     -41.455-120.814 -53.212  0.00  0.00     0.087 A 
ATOM      8  C   UNL d   1     -42.216-122.099 -54.864  0.00  0.00     0.021 A 
ATOM      9  C   UNL d   1     -42.410-122.884 -54.710  0.00  0.00     0.041 A 
ATOM     10  O   UNL d   1     -42.387-123.750 -53.514  0.00  0.00    -0.286 OA
ATOM     11  C   UNL d   1     -41.190-120.055 -53.032  0.00  0.00     0.021 C 
ATOM     12  C   UNL d   1     -42.306-121.796 -55.635  0.00  0.00     0.002 A 
ATOM     13  C   UNL d   1     -42.695-123.373 -55.316  0.00  0.00     0.003 A 
ATOM     14  C   UNL d   1     -42.588-122.283 -56.233  0.00  0.00     0.000 A 
ATOM     15  C   UNL d   1     -42.782-123.065 -56.081  0.00  0.00     0.000 A 
ENDROOT
BRANCH   4  16
ATOM     16  C   UNL d   1     -41.784-122.726 -52.214  0.00  0.00     0.102 A 
ATOM     17  O   UNL d   1     -42.320-122.753 -51.587  0.00  0.00    -0.286 OA
ATOM     18  C   UNL d   1     -42.157-123.416 -51.135  0.00  0.00     0.227 A 
ATOM     19  C   UNL d   1     -41.518-123.810 -51.475  0.00  0.00     0.051 A 
ATOM     20  C   UNL d   1     -41.283-123.384 -52.147  0.00  0.00     0.029 A 
BRANCH  18  21
ATOM     21  N   UNL d   1     -42.559-123.660 -50.451  0.00  0.00    -0.089 N 
ATOM     22  O   UNL d   1     -42.157-123.746 -49.741  0.00  0.00    -0.530 OA
ATOM     23  O   UNL d   1     -43.374-123.817 -50.493  0.00  0.00    -0.530 OA
ENDBRANCH  18  21
ENDBRANCH   4  16
BRANCH   3  24
ATOM     24  C   UNL d   1     -41.254-121.206 -51.852  0.00  0.00     0.302 C 
ATOM     25  O   UNL d   1     -41.147-121.809 -51.299  0.00  0.00    -0.259 OA
BRANCH  24  26
ATOM     26  O   UNL d   1     -41.128-120.422 -51.637  0.00  0.00    -0.271 OA
BRANCH  26  27
ATOM     27  C   UNL d   1     -41.147-120.207 -50.841  0.00  0.00     0.126 C 
ATOM     28  C   UNL d   1     -41.126-119.411 -50.632  0.00  0.00     0.029 C 
ENDBRANCH  26  27
ENDBRANCH  24  26
ENDBRANCH   3  24
TORSDOF 5
ENDMDL
MODEL 3
REMARK VINA RESULT:       9.1      1.320      3.971
REMARK  5 active torsions:
REMARK  status: ('A' for Active; 'I' for Inactive)
REMARK    1  A    between atoms: C_14  and  C_3 
REMARK    2  A    between atoms: C_8  and  C_4 
REMARK    3  A    between atoms: N_10  and  C_9 
REMARK    4  A    between atoms: O_21  and  C_14 
REMARK    5  A    between atoms: C_25  and  O_21 
ROOT
ATOM      1  C   UNL d   1     -41.688-122.041 -53.009  0.00  0.00     0.059 A 
ATOM      2  C   UNL d   1     -41.879-122.800 -53.272  0.00  0.00     0.085 A 
ATOM      3  C   UNL d   1     -41.864-122.464 -51.660  0.00  0.00     0.083 A 
ATOM      4  C   UNL d   1     -41.682-121.878 -52.204  0.00  0.00     0.034 A 
ATOM      5  N   UNL d   1     -42.062-123.392 -52.737  0.00  0.00    -0.245 NA
ATOM      6  C   UNL d   1     -41.532-121.572 -53.669  0.00  0.00     0.197 A 
ATOM      7  C   UNL d   1     -42.055-123.226 -51.923  0.00  0.00     0.087 A 
ATOM      8  C   UNL d   1     -41.840-122.800 -54.099  0.00  0.00     0.021 A 
ATOM      9  C   UNL d   1     -41.627-122.044 -54.344  0.00  0.00     0.041 A 
ATOM     10  O   UNL d   1     -41.319-120.773 -53.660  0.00  0.00    -0.286 OA
ATOM     11  C   UNL d   1     -42.238-123.817 -51.379  0.00  0.00     0.021 C 
ATOM     12  C   UNL d   1     -41.973-123.396 -54.667  0.00  0.00     0.002 A 
ATOM     13  C   UNL d   1     -41.544-121.872 -55.151  0.00  0.00     0.003 A 
ATOM     14  C   UNL d   1     -41.890-123.222 -55.464  0.00  0.00     0.000 A 
ATOM     15  C   UNL d   1     -41.678-122.469 -55.711  0.00  0.00     0.000 A 
ENDROOT
BRANCH   4  16
ATOM     16  C   UNL d   1     -41.491-121.119 -51.942  0.00  0.00     0.102 A 
ATOM     17  O   UNL d   1     -41.500-120.429 -52.396  0.00  0.00    -0.286 OA
ATOM     18  C   UNL d   1     -41.274-119.803 -51.920  0.00  0.00     0.227 A 
ATOM     19  C   UNL d   1     -41.123-120.094 -51.163  0.00  0.00     0.051 A 
ATOM     20  C   UNL d   1     -41.257-120.913 -51.173  0.00  0.00     0.029 A 
BRANCH  18  21
ATOM     21  N   UNL d   1     -41.206-119.008 -52.147  0.00  0.00    -0.089 N 
ATOM     22  O   UNL d   1     -41.205-118.800 -52.941  0.00  0.00    -0.530 OA
ATOM     23  O   UNL d   1     -41.139-118.423 -51.560  0.00  0.00    -0.530 OA
ENDBRANCH  18  21
ENDBRANCH   4  16
BRANCH   3  24
ATOM     24  C   UNL d   1     -41.858-122.301 -50.851  0.00  0.00     0.302 C 
ATOM     25  O   UNL d   1     -41.149-122.347 -50.431  0.00  0.00    -0.259 OA
BRANCH  24  26
ATOM     26  O   UNL d   1     -42.554-122.095 -50.465  0.00  0.00    -0.271 OA
BRANCH  26  27
ATOM     27  C   UNL d   1     -42.581-122.095 -49.641  0.00  0.00     0.126 C 
ATOM     28  C   UNL d   1     -43.056-122.641 -49.248  0.00  0.00     0.029 C 
ENDBRANCH  26  27
ENDBRANCH  24  26
ENDBRANCH   3  24
TORSDOF 5
ENDMDL
