MODEL 1
REMARK VINA RESULT:      -2.3      0.000      0.000
REMARK  8 active torsions:
REMARK  status: ('A' for Active; 'I' for Inactive)
REMARK    1  A    between atoms: C_21  and  N_5 
REMARK    2  A    between atoms: S_10  and  C_6 
REMARK    3  A    between atoms: C_17  and  C_7 
REMARK    4  A    between atoms: C_23  and  S_10 
REMARK    5  A    between atoms: C_13  and  C_23 
REMARK       I    between atoms: N_19  and  C_13 
REMARK    6  A    between atoms: C_28  and  N_19 
REMARK    7  A    between atoms: C_24  and  C_21 
REMARK    8  A    between atoms: C_27  and  C_28 
ROOT
ATOM      1  C   UNL d   1      32.807  21.453 -21.826  0.00  0.00     0.081 A 
ATOM      2  C   UNL d   1      32.721  20.660 -21.777  0.00  0.00     0.117 A 
ATOM      3  N   UNL d   1      32.798  20.141 -22.449  0.00  0.00    -0.215 NA
ATOM      4  C   UNL d   1      32.985  21.782 -22.593  0.00  0.00     0.268 A 
ATOM      5  N   UNL d   1      33.064  21.304 -23.254  0.00  0.00    -0.253 N 
ATOM      6  C   UNL d   1      32.964  20.442 -23.170  0.00  0.00     0.182 A 
ATOM      7  C   UNL d   1      32.701  21.788 -21.093  0.00  0.00     0.013 A 
ATOM      8  S   UNL d   1      32.549  20.458 -20.977  0.00  0.00    -0.067 SA
ATOM      9  C   UNL d   1      32.540  21.178 -20.558  0.00  0.00     0.037 A 
ATOM     10  O   UNL d   1      33.085  22.610 -22.696  0.00  0.00    -0.267 OA
ENDROOT
BRANCH   6  11
ATOM     11  S   UNL d   1      33.039  19.933 -23.829  0.00  0.00    -0.044 SA
BRANCH  11  12
ATOM     12  C   UNL d   1      32.754  19.188 -23.825  0.00  0.00     0.101 C 
BRANCH  12  13
ATOM     13  C   UNL d   1      32.766  18.724 -24.459  0.00  0.00     0.286 C 
ATOM     14  N   UNL d   1      32.339  18.042 -24.547  0.00  0.00    -0.206 NA
ATOM     15  O   UNL d   1      33.239  18.933 -25.079  0.00  0.00    -0.265 OA
BRANCH  14  16
ATOM     16  C   UNL d   1      31.867  17.870 -23.879  0.00  0.00     0.102 C 
BRANCH  16  17
ATOM     17  C   UNL d   1      31.301  17.230 -23.973  0.00  0.00     0.021 A 
ATOM     18  C   UNL d   1      30.466  17.372 -24.022  0.00  0.00     0.028 A 
ATOM     19  C   UNL d   1      29.957  16.768 -24.108  0.00  0.00     0.119 A 
ATOM     20  O   UNL d   1      29.133  16.772 -24.168  0.00  0.00    -0.300 OA
ATOM     21  C   UNL d   1      30.222  15.992 -24.153  0.00  0.00     0.119 A 
ATOM     22  C   UNL d   1      28.925  15.981 -24.248  0.00  0.00     0.304 A 
ATOM     23  O   UNL d   1      29.590  15.503 -24.239  0.00  0.00    -0.300 OA
ATOM     24  C   UNL d   1      31.054  15.826 -24.106  0.00  0.00     0.026 A 
ATOM     25  C   UNL d   1      31.562  16.447 -24.018  0.00  0.00     0.004 A 
ENDBRANCH  16  17
ENDBRANCH  14  16
ENDBRANCH  12  13
ENDBRANCH  11  12
ENDBRANCH   6  11
BRANCH   5  26
ATOM     26  C   UNL d   1      33.241  21.715 -23.975  0.00  0.00     0.085 C 
BRANCH  26  27
ATOM     27  C   UNL d   1      32.741  22.351 -24.261  0.00  0.00     0.019 C 
ATOM     28  C   UNL d   1      32.904  22.666 -25.008  0.00  0.00     0.002 C 
ENDBRANCH  26  27
ENDBRANCH   5  26
BRANCH   7  29
ATOM     29  C   UNL d   1      32.668  22.412 -20.602  0.00  0.00     0.001 A 
ATOM     30  C   UNL d   1      32.162  23.060 -20.673  0.00  0.00     0.000 A 
ATOM     31  C   UNL d   1      32.130  23.684 -20.181  0.00  0.00     0.000 A 
ATOM     32  C   UNL d   1      32.649  23.692 -19.536  0.00  0.00     0.000 A 
ATOM     33  C   UNL d   1      33.169  23.061 -19.434  0.00  0.00     0.000 A 
ATOM     34  C   UNL d   1      33.180  22.426 -19.961  0.00  0.00     0.000 A 
ENDBRANCH   7  29
TORSDOF 8
ENDMDL
MODEL 2
REMARK VINA RESULT:      -1.4      1.401      6.412
REMARK  8 active torsions:
REMARK  status: ('A' for Active; 'I' for Inactive)
REMARK    1  A    between atoms: C_21  and  N_5 
REMARK    2  A    between atoms: S_10  and  C_6 
REMARK    3  A    between atoms: C_17  and  C_7 
REMARK    4  A    between atoms: C_23  and  S_10 
REMARK    5  A    between atoms: C_13  and  C_23 
REMARK       I    between atoms: N_19  and  C_13 
REMARK    6  A    between atoms: C_28  and  N_19 
REMARK    7  A    between atoms: C_24  and  C_21 
REMARK    8  A    between atoms: C_27  and  C_28 
ROOT
ATOM      1  C   UNL d   1      30.130  17.174 -24.257  0.00  0.00     0.081 A 
ATOM      2  C   UNL d   1      30.256  17.921 -24.514  0.00  0.00     0.117 A 
ATOM      3  N   UNL d   1      31.023  18.294 -24.497  0.00  0.00    -0.215 NA
ATOM      4  C   UNL d   1      30.802  16.743 -23.956  0.00  0.00     0.268 A 
ATOM      5  N   UNL d   1      31.549  17.080 -23.930  0.00  0.00    -0.253 N 
ATOM      6  C   UNL d   1      31.656  17.897 -24.217  0.00  0.00     0.182 A 
ATOM      7  C   UNL d   1      29.345  16.981 -24.346  0.00  0.00     0.013 A 
ATOM      8  S   UNL d   1      29.525  18.239 -24.784  0.00  0.00    -0.067 SA
ATOM      9  C   UNL d   1      28.960  17.637 -24.673  0.00  0.00     0.037 A 
ATOM     10  O   UNL d   1      30.720  15.955 -23.676  0.00  0.00    -0.267 OA
ENDROOT
BRANCH   6  11
ATOM     11  S   UNL d   1      32.408  18.263 -24.201  0.00  0.00    -0.044 SA
BRANCH  11  12
ATOM     12  C   UNL d   1      32.546  18.929 -23.783  0.00  0.00     0.101 C 
BRANCH  12  13
ATOM     13  C   UNL d   1      32.953  19.536 -24.072  0.00  0.00     0.286 C 
ATOM     14  N   UNL d   1      33.241  20.155 -23.639  0.00  0.00    -0.206 NA
ATOM     15  O   UNL d   1      33.101  19.555 -24.866  0.00  0.00    -0.265 OA
BRANCH  14  16
ATOM     16  C   UNL d   1      33.061  20.088 -22.824  0.00  0.00     0.102 C 
BRANCH  16  17
ATOM     17  C   UNL d   1      33.074  20.820 -22.374  0.00  0.00     0.021 A 
ATOM     18  C   UNL d   1      33.126  21.578 -22.752  0.00  0.00     0.028 A 
ATOM     19  C   UNL d   1      33.137  22.245 -22.321  0.00  0.00     0.119 A 
ATOM     20  O   UNL d   1      33.184  23.034 -22.562  0.00  0.00    -0.300 OA
ATOM     21  C   UNL d   1      33.100  22.222 -21.501  0.00  0.00     0.119 A 
ATOM     22  C   UNL d   1      33.173  23.468 -21.864  0.00  0.00     0.304 A 
ATOM     23  O   UNL d   1      33.121  22.973 -21.214  0.00  0.00    -0.300 OA
ATOM     24  C   UNL d   1      33.048  21.473 -21.101  0.00  0.00     0.026 A 
ATOM     25  C   UNL d   1      33.037  20.802 -21.549  0.00  0.00     0.004 A 
ENDBRANCH  16  17
ENDBRANCH  14  16
ENDBRANCH  12  13
ENDBRANCH  11  12
ENDBRANCH   6  11
BRANCH   5  26
ATOM     26  C   UNL d   1      32.158  16.580 -23.616  0.00  0.00     0.085 C 
BRANCH  26  27
ATOM     27  C   UNL d   1      32.625  16.072 -24.125  0.00  0.00     0.019 C 
ATOM     28  C   UNL d   1      33.155  15.546 -23.768  0.00  0.00     0.002 C 
ENDBRANCH  26  27
ENDBRANCH   5  26
BRANCH   7  29
ATOM     29  C   UNL d   1      28.732  16.480 -24.283  0.00  0.00     0.001 A 
ATOM     30  C   UNL d   1      28.471  15.956 -24.864  0.00  0.00     0.000 A 
ATOM     31  C   UNL d   1      27.857  15.455 -24.800  0.00  0.00     0.000 A 
ATOM     32  C   UNL d   1      27.435  15.453 -24.087  0.00  0.00     0.000 A 
ATOM     33  C   UNL d   1      27.667  15.964 -23.485  0.00  0.00     0.000 A 
ATOM     34  C   UNL d   1      28.309  16.473 -23.579  0.00  0.00     0.000 A 
ENDBRANCH   7  29
TORSDOF 8
ENDMDL
MODEL 3
REMARK VINA RESULT:       0.6      1.396      1.838
REMARK  8 active torsions:
REMARK  status: ('A' for Active; 'I' for Inactive)
REMARK    1  A    between atoms: C_21  and  N_5 
REMARK    2  A    between atoms: S_10  and  C_6 
REMARK    3  A    between atoms: C_17  and  C_7 
REMARK    4  A    between atoms: C_23  and  S_10 
REMARK    5  A    between atoms: C_13  and  C_23 
REMARK       I    between atoms: N_19  and  C_13 
REMARK    6  A    between atoms: C_28  and  N_19 
REMARK    7  A    between atoms: C_24  and  C_21 
REMARK    8  A    between atoms: C_27  and  C_28 
ROOT
ATOM      1  C   UNL d   1      33.202  21.848 -20.519  0.00  0.00     0.081 A 
ATOM      2  C   UNL d   1      33.198  21.071 -20.706  0.00  0.00     0.117 A 
ATOM      3  N   UNL d   1      33.201  20.786 -21.510  0.00  0.00    -0.215 NA
ATOM      4  C   UNL d   1      33.209  22.407 -21.163  0.00  0.00     0.268 A 
ATOM      5  N   UNL d   1      33.212  22.158 -21.944  0.00  0.00    -0.253 N 
ATOM      6  C   UNL d   1      33.208  21.304 -22.118  0.00  0.00     0.182 A 
ATOM      7  C   UNL d   1      33.197  21.937 -19.711  0.00  0.00     0.013 A 
ATOM      8  S   UNL d   1      33.191  20.623 -19.993  0.00  0.00    -0.067 SA
ATOM      9  C   UNL d   1      33.191  21.181 -19.374  0.00  0.00     0.037 A 
ATOM     10  O   UNL d   1      33.213  23.235 -21.018  0.00  0.00    -0.267 OA
ENDROOT
BRANCH   6  11
ATOM     11  S   UNL d   1      33.211  21.025 -22.906  0.00  0.00    -0.044 SA
BRANCH  11  12
ATOM     12  C   UNL d   1      33.185  20.246 -23.081  0.00  0.00     0.101 C 
BRANCH  12  13
ATOM     13  C   UNL d   1      33.190  19.975 -23.818  0.00  0.00     0.286 C 
ATOM     14  N   UNL d   1      33.152  19.195 -24.029  0.00  0.00    -0.206 NA
ATOM     15  O   UNL d   1      33.235  20.508 -24.423  0.00  0.00    -0.265 OA
BRANCH  14  16
ATOM     16  C   UNL d   1      33.107  18.684 -23.368  0.00  0.00     0.102 C 
BRANCH  16  17
ATOM     17  C   UNL d   1      32.826  17.888 -23.526  0.00  0.00     0.021 A 
ATOM     18  C   UNL d   1      32.326  17.711 -24.188  0.00  0.00     0.028 A 
ATOM     19  C   UNL d   1      32.075  16.969 -24.319  0.00  0.00     0.119 A 
ATOM     20  O   UNL d   1      31.592  16.669 -24.919  0.00  0.00    -0.300 OA
ATOM     21  C   UNL d   1      32.291  16.353 -23.821  0.00  0.00     0.119 A 
ATOM     22  C   UNL d   1      31.533  15.865 -24.757  0.00  0.00     0.304 A 
ATOM     23  O   UNL d   1      31.959  15.671 -24.086  0.00  0.00    -0.300 OA
ATOM     24  C   UNL d   1      32.791  16.507 -23.151  0.00  0.00     0.026 A 
ATOM     25  C   UNL d   1      33.040  17.264 -23.027  0.00  0.00     0.004 A 
ENDBRANCH  16  17
ENDBRANCH  14  16
ENDBRANCH  12  13
ENDBRANCH  11  12
ENDBRANCH   6  11
BRANCH   5  26
ATOM     26  C   UNL d   1      33.219  22.781 -22.520  0.00  0.00     0.085 C 
BRANCH  26  27
ATOM     27  C   UNL d   1      32.594  23.368 -22.551  0.00  0.00     0.019 C 
ATOM     28  C   UNL d   1      32.218  23.496 -23.276  0.00  0.00     0.002 C 
ENDBRANCH  26  27
ENDBRANCH   5  26
BRANCH   7  29
ATOM     29  C   UNL d   1      33.196  22.380 -19.051  0.00  0.00     0.001 A 
ATOM     30  C   UNL d   1      33.241  22.098 -18.277  0.00  0.00     0.000 A 
ATOM     31  C   UNL d   1      33.240  22.543 -17.618  0.00  0.00     0.000 A 
ATOM     32  C   UNL d   1      33.189  23.364 -17.707  0.00  0.00     0.000 A 
ATOM     33  C   UNL d   1      33.143  23.680 -18.466  0.00  0.00     0.000 A 
ATOM     34  C   UNL d   1      33.146  23.195 -19.133  0.00  0.00     0.000 A 
ENDBRANCH   7  29
TORSDOF 8
ENDMDL
