MODEL 1
REMARK VINA RESULT:      -7.2      0.000      0.000
REMARK  6 active torsions:
REMARK  status: ('A' for Active; 'I' for Inactive)
REMARK    1  A    between atoms: N_4  and  C_1 
REMARK       I    between atoms: C_7  and  N_4 
REMARK    2  A    between atoms: C_8  and  C_7 
REMARK    3  A    between atoms: C_11  and  C_8 
REMARK    4  A    between atoms: C_10  and  O_17 
REMARK    5  A    between atoms: O_17  and  C_11 
REMARK    6  A    between atoms: O_18  and  C_12 
ROOT
ATOM      1  C   UNL d   1      51.501  33.957  52.999  0.00  0.00     0.089 C 
ENDROOT
BRANCH   1   2
ATOM      2  C   UNL d   1      52.197  34.163  53.395  0.00  0.00     0.283 C 
ATOM      3  N   UNL d   1      52.437  33.719  54.049  0.00  0.00    -0.186 NA
ATOM      4  O   UNL d   1      52.643  34.800  53.145  0.00  0.00    -0.265 OA
BRANCH   3   5
ATOM      5  C   UNL d   1      53.124  33.918  54.444  0.00  0.00     0.194 A 
ATOM      6  N   UNL d   1      53.263  34.623  54.858  0.00  0.00    -0.107 NA
ATOM      7  O   UNL d   1      54.023  34.585  55.165  0.00  0.00    -0.210 OA
ATOM      8  C   UNL d   1      54.353  33.874  54.950  0.00  0.00     0.128 A 
ATOM      9  C   UNL d   1      53.798  33.453  54.500  0.00  0.00     0.068 A 
ATOM     10  C   UNL d   1      55.107  33.608  55.141  0.00  0.00     0.029 C 
ENDBRANCH   3   5
ENDBRANCH   1   2
BRANCH   1  11
ATOM     11  C   UNL d   1      50.951  34.538  52.823  0.00  0.00     0.128 C 
BRANCH  11  12
ATOM     12  O   UNL d   1      50.271  34.127  52.592  0.00  0.00    -0.305 OA
BRANCH  12  13
ATOM     13  C   UNL d   1      49.599  34.539  52.358  0.00  0.00     0.100 A 
ATOM     14  C   UNL d   1      49.314  34.460  51.586  0.00  0.00     0.027 A 
ATOM     15  C   UNL d   1      48.640  34.870  51.345  0.00  0.00     0.026 A 
ATOM     16  C   UNL d   1      48.256  35.360  51.886  0.00  0.00     0.094 A 
ATOM     17  C   UNL d   1      48.541  35.439  52.658  0.00  0.00     0.026 A 
ATOM     18  C   UNL d   1      49.213  35.028  52.892  0.00  0.00     0.027 A 
BRANCH  16  19
ATOM     19  O   UNL d   1      47.574  35.778  51.646  0.00  0.00    -0.328 OA
ATOM     20  C   UNL d   1      47.295  36.399  52.113  0.00  0.00     0.181 C 
ENDBRANCH  16  19
ENDBRANCH  12  13
ENDBRANCH  11  12
ENDBRANCH   1  11
TORSDOF 6
ENDMDL
MODEL 2
REMARK VINA RESULT:      -7.2      3.255      4.554
REMARK  6 active torsions:
REMARK  status: ('A' for Active; 'I' for Inactive)
REMARK    1  A    between atoms: N_4  and  C_1 
REMARK       I    between atoms: C_7  and  N_4 
REMARK    2  A    between atoms: C_8  and  C_7 
REMARK    3  A    between atoms: C_11  and  C_8 
REMARK    4  A    between atoms: C_10  and  O_17 
REMARK    5  A    between atoms: O_17  and  C_11 
REMARK    6  A    between atoms: O_18  and  C_12 
ROOT
ATOM      1  C   UNL d   1      52.821  31.989  52.803  0.00  0.00     0.089 C 
ENDROOT
BRANCH   1   2
ATOM      2  C   UNL d   1      52.700  31.229  53.106  0.00  0.00     0.283 C 
ATOM      3  N   UNL d   1      53.353  30.761  53.299  0.00  0.00    -0.186 NA
ATOM      4  O   UNL d   1      51.943  30.942  53.216  0.00  0.00    -0.265 OA
BRANCH   3   5
ATOM      5  C   UNL d   1      53.239  30.010  53.599  0.00  0.00     0.194 A 
ATOM      6  N   UNL d   1      52.827  29.393  53.231  0.00  0.00    -0.107 NA
ATOM      7  O   UNL d   1      52.853  28.743  53.731  0.00  0.00    -0.210 OA
ATOM      8  C   UNL d   1      53.271  28.946  54.398  0.00  0.00     0.128 A 
ATOM      9  C   UNL d   1      53.515  29.736  54.323  0.00  0.00     0.068 A 
ATOM     10  C   UNL d   1      53.430  28.461  55.042  0.00  0.00     0.029 C 
ENDBRANCH   3   5
ENDBRANCH   1   2
BRANCH   1  11
ATOM     11  C   UNL d   1      52.515  32.635  53.202  0.00  0.00     0.128 C 
BRANCH  11  12
ATOM     12  O   UNL d   1      53.046  33.251  53.053  0.00  0.00    -0.305 OA
BRANCH  12  13
ATOM     13  C   UNL d   1      52.990  33.956  53.472  0.00  0.00     0.100 A 
ATOM     14  C   UNL d   1      53.354  34.028  54.211  0.00  0.00     0.027 A 
ATOM     15  C   UNL d   1      53.302  34.732  54.637  0.00  0.00     0.026 A 
ATOM     16  C   UNL d   1      52.881  35.364  54.314  0.00  0.00     0.094 A 
ATOM     17  C   UNL d   1      52.517  35.292  53.574  0.00  0.00     0.026 A 
ATOM     18  C   UNL d   1      52.573  34.587  53.156  0.00  0.00     0.027 A 
BRANCH  16  19
ATOM     19  O   UNL d   1      52.825  36.079  54.740  0.00  0.00    -0.328 OA
ATOM     20  C   UNL d   1      53.476  36.585  54.769  0.00  0.00     0.181 C 
ENDBRANCH  16  19
ENDBRANCH  12  13
ENDBRANCH  11  12
ENDBRANCH   1  11
TORSDOF 6
ENDMDL
MODEL 3
REMARK VINA RESULT:      -7.0      2.535      5.569
REMARK  6 active torsions:
REMARK  status: ('A' for Active; 'I' for Inactive)
REMARK    1  A    between atoms: N_4  and  C_1 
REMARK       I    between atoms: C_7  and  N_4 
REMARK    2  A    between atoms: C_8  and  C_7 
REMARK    3  A    between atoms: C_11  and  C_8 
REMARK    4  A    between atoms: C_10  and  O_17 
REMARK    5  A    between atoms: O_17  and  C_11 
REMARK    6  A    between atoms: O_18  and  C_12 
ROOT
ATOM      1  C   UNL d   1      51.714  33.431  52.717  0.00  0.00     0.089 C 
ENDROOT
BRANCH   1   2
ATOM      2  C   UNL d   1      50.963  33.767  52.801  0.00  0.00     0.283 C 
ATOM      3  N   UNL d   1      50.694  34.304  52.234  0.00  0.00    -0.186 NA
ATOM      4  O   UNL d   1      50.490  33.571  53.438  0.00  0.00    -0.265 OA
BRANCH   3   5
ATOM      5  C   UNL d   1      49.953  34.639  52.313  0.00  0.00     0.194 A 
ATOM      6  N   UNL d   1      49.664  35.036  52.980  0.00  0.00    -0.107 NA
ATOM      7  O   UNL d   1      48.898  35.278  52.813  0.00  0.00    -0.210 OA
ATOM      8  C   UNL d   1      48.710  35.040  52.059  0.00  0.00     0.128 A 
ATOM      9  C   UNL d   1      49.365  34.640  51.741  0.00  0.00     0.068 A 
ATOM     10  C   UNL d   1      47.998  35.168  51.669  0.00  0.00     0.029 C 
ENDBRANCH   3   5
ENDBRANCH   1   2
BRANCH   1  11
ATOM     11  C   UNL d   1      51.923  32.791  53.185  0.00  0.00     0.128 C 
BRANCH  11  12
ATOM     12  O   UNL d   1      52.531  32.412  52.771  0.00  0.00    -0.305 OA
BRANCH  12  13
ATOM     13  C   UNL d   1      52.822  31.690  53.034  0.00  0.00     0.100 A 
ATOM     14  C   UNL d   1      52.544  30.986  52.702  0.00  0.00     0.027 A 
ATOM     15  C   UNL d   1      52.832  30.258  52.962  0.00  0.00     0.026 A 
ATOM     16  C   UNL d   1      53.402  30.244  53.558  0.00  0.00     0.094 A 
ATOM     17  C   UNL d   1      53.680  30.949  53.890  0.00  0.00     0.026 A 
ATOM     18  C   UNL d   1      53.389  31.670  53.627  0.00  0.00     0.027 A 
BRANCH  16  19
ATOM     19  O   UNL d   1      53.698  29.510  53.825  0.00  0.00    -0.328 OA
ATOM     20  C   UNL d   1      53.373  29.165  54.501  0.00  0.00     0.181 C 
ENDBRANCH  16  19
ENDBRANCH  12  13
ENDBRANCH  11  12
ENDBRANCH   1  11
TORSDOF 6
ENDMDL
MODEL 4
REMARK VINA RESULT:      -6.9      1.966      5.667
REMARK  6 active torsions:
REMARK  status: ('A' for Active; 'I' for Inactive)
REMARK    1  A    between atoms: N_4  and  C_1 
REMARK       I    between atoms: C_7  and  N_4 
REMARK    2  A    between atoms: C_8  and  C_7 
REMARK    3  A    between atoms: C_11  and  C_8 
REMARK    4  A    between atoms: C_10  and  O_17 
REMARK    5  A    between atoms: O_17  and  C_11 
REMARK    6  A    between atoms: O_18  and  C_12 
ROOT
ATOM      1  C   UNL d   1      49.578  34.641  52.194  0.00  0.00     0.089 C 
ENDROOT
BRANCH   1   2
ATOM      2  C   UNL d   1      48.898  35.087  52.346  0.00  0.00     0.283 C 
ATOM      3  N   UNL d   1      48.387  35.271  51.724  0.00  0.00    -0.186 NA
ATOM      4  O   UNL d   1      48.733  35.344  53.104  0.00  0.00    -0.265 OA
BRANCH   3   5
ATOM      5  C   UNL d   1      47.714  35.712  51.869  0.00  0.00     0.194 A 
ATOM      6  N   UNL d   1      47.687  36.461  52.221  0.00  0.00    -0.107 NA
ATOM      7  O   UNL d   1      46.900  36.691  52.256  0.00  0.00    -0.210 OA
ATOM      8  C   UNL d   1      46.444  36.101  51.934  0.00  0.00     0.128 A 
ATOM      9  C   UNL d   1      46.946  35.486  51.690  0.00  0.00     0.068 A 
ATOM     10  C   UNL d   1      45.626  36.103  51.857  0.00  0.00     0.029 C 
ENDBRANCH   3   5
ENDBRANCH   1   2
BRANCH   1  11
ATOM     11  C   UNL d   1      50.148  34.565  52.777  0.00  0.00     0.128 C 
BRANCH  11  12
ATOM     12  O   UNL d   1      50.790  34.200  52.403  0.00  0.00    -0.305 OA
BRANCH  12  13
ATOM     13  C   UNL d   1      51.475  34.035  52.826  0.00  0.00     0.100 A 
ATOM     14  C   UNL d   1      52.059  34.614  52.909  0.00  0.00     0.027 A 
ATOM     15  C   UNL d   1      52.749  34.456  53.332  0.00  0.00     0.026 A 
ATOM     16  C   UNL d   1      52.847  33.710  53.671  0.00  0.00     0.094 A 
ATOM     17  C   UNL d   1      52.262  33.131  53.588  0.00  0.00     0.026 A 
ATOM     18  C   UNL d   1      51.578  33.296  53.165  0.00  0.00     0.027 A 
BRANCH  16  19
ATOM     19  O   UNL d   1      53.543  33.543  54.101  0.00  0.00    -0.328 OA
ATOM     20  C   UNL d   1      54.057  32.958  53.827  0.00  0.00     0.181 C 
ENDBRANCH  16  19
ENDBRANCH  12  13
ENDBRANCH  11  12
ENDBRANCH   1  11
TORSDOF 6
ENDMDL
MODEL 5
REMARK VINA RESULT:      -6.8      1.657      5.548
REMARK  6 active torsions:
REMARK  status: ('A' for Active; 'I' for Inactive)
REMARK    1  A    between atoms: N_4  and  C_1 
REMARK       I    between atoms: C_7  and  N_4 
REMARK    2  A    between atoms: C_8  and  C_7 
REMARK    3  A    between atoms: C_11  and  C_8 
REMARK    4  A    between atoms: C_10  and  O_17 
REMARK    5  A    between atoms: O_17  and  C_11 
REMARK    6  A    between atoms: O_18  and  C_12 
ROOT
ATOM      1  C   UNL d   1      50.623  34.315  52.134  0.00  0.00     0.089 C 
ENDROOT
BRANCH   1   2
ATOM      2  C   UNL d   1      49.815  34.486  52.096  0.00  0.00     0.283 C 
ATOM      3  N   UNL d   1      49.473  34.668  51.367  0.00  0.00    -0.186 NA
ATOM      4  O   UNL d   1      49.357  34.474  52.773  0.00  0.00    -0.265 OA
BRANCH   3   5
ATOM      5  C   UNL d   1      48.675  34.838  51.324  0.00  0.00     0.194 A 
ATOM      6  N   UNL d   1      48.095  34.373  50.956  0.00  0.00    -0.107 NA
ATOM      7  O   UNL d   1      47.375  34.755  51.049  0.00  0.00    -0.210 OA
ATOM      8  C   UNL d   1      47.498  35.443  51.465  0.00  0.00     0.128 A 
ATOM      9  C   UNL d   1      48.308  35.500  51.640  0.00  0.00     0.068 A 
ATOM     10  C   UNL d   1      46.927  35.992  51.680  0.00  0.00     0.029 C 
ENDBRANCH   3   5
ENDBRANCH   1   2
BRANCH   1  11
ATOM     11  C   UNL d   1      51.000  34.310  52.862  0.00  0.00     0.128 C 
BRANCH  11  12
ATOM     12  O   UNL d   1      51.808  34.286  52.685  0.00  0.00    -0.305 OA
BRANCH  12  13
ATOM     13  C   UNL d   1      52.362  34.259  53.291  0.00  0.00     0.100 A 
ATOM     14  C   UNL d   1      52.649  33.531  53.558  0.00  0.00     0.027 A 
ATOM     15  C   UNL d   1      53.206  33.498  54.165  0.00  0.00     0.026 A 
ATOM     16  C   UNL d   1      53.471  34.202  54.503  0.00  0.00     0.094 A 
ATOM     17  C   UNL d   1      53.184  34.930  54.236  0.00  0.00     0.026 A 
ATOM     18  C   UNL d   1      52.630  34.956  53.631  0.00  0.00     0.027 A 
BRANCH  16  19
ATOM     19  O   UNL d   1      54.035  34.174  55.118  0.00  0.00    -0.328 OA
ATOM     20  C   UNL d   1      54.588  33.562  55.133  0.00  0.00     0.181 C 
ENDBRANCH  16  19
ENDBRANCH  12  13
ENDBRANCH  11  12
ENDBRANCH   1  11
TORSDOF 6
ENDMDL
MODEL 6
REMARK VINA RESULT:      -5.3     10.124     11.009
REMARK  6 active torsions:
REMARK  status: ('A' for Active; 'I' for Inactive)
REMARK    1  A    between atoms: N_4  and  C_1 
REMARK       I    between atoms: C_7  and  N_4 
REMARK    2  A    between atoms: C_8  and  C_7 
REMARK    3  A    between atoms: C_11  and  C_8 
REMARK    4  A    between atoms: C_10  and  O_17 
REMARK    5  A    between atoms: O_17  and  C_11 
REMARK    6  A    between atoms: O_18  and  C_12 
ROOT
ATOM      1  C   UNL d   1      44.864  27.862  56.926  0.00  0.00     0.089 C 
ENDROOT
BRANCH   1   2
ATOM      2  C   UNL d   1      45.026  27.072  56.744  0.00  0.00     0.283 C 
ATOM      3  N   UNL d   1      44.410  26.575  56.508  0.00  0.00    -0.186 NA
ATOM      4  O   UNL d   1      45.789  26.783  56.795  0.00  0.00    -0.265 OA
BRANCH   3   5
ATOM      5  C   UNL d   1      44.566  25.794  56.327  0.00  0.00     0.194 A 
ATOM      6  N   UNL d   1      44.758  25.195  56.867  0.00  0.00    -0.107 NA
ATOM      7  O   UNL d   1      44.868  24.502  56.442  0.00  0.00    -0.210 OA
ATOM      8  C   UNL d   1      44.747  24.660  55.654  0.00  0.00     0.128 A 
ATOM      9  C   UNL d   1      44.558  25.465  55.575  0.00  0.00     0.068 A 
ATOM     10  C   UNL d   1      44.800  24.124  55.034  0.00  0.00     0.029 C 
ENDBRANCH   3   5
ENDBRANCH   1   2
BRANCH   1  11
ATOM     11  C   UNL d   1      45.096  28.164  57.651  0.00  0.00     0.128 C 
BRANCH  11  12
ATOM     12  O   UNL d   1      44.806  28.938  57.665  0.00  0.00    -0.305 OA
BRANCH  12  13
ATOM     13  C   UNL d   1      44.867  29.390  58.348  0.00  0.00     0.100 A 
ATOM     14  C   UNL d   1      44.629  29.076  59.075  0.00  0.00     0.027 A 
ATOM     15  C   UNL d   1      44.687  29.524  59.764  0.00  0.00     0.026 A 
ATOM     16  C   UNL d   1      44.988  30.292  59.717  0.00  0.00     0.094 A 
ATOM     17  C   UNL d   1      45.226  30.606  58.990  0.00  0.00     0.026 A 
ATOM     18  C   UNL d   1      45.165  30.154  58.308  0.00  0.00     0.027 A 
BRANCH  16  19
ATOM     19  O   UNL d   1      45.050  30.750  60.412  0.00  0.00    -0.328 OA
ATOM     20  C   UNL d   1      44.368  31.080  60.742  0.00  0.00     0.181 C 
ENDBRANCH  16  19
ENDBRANCH  12  13
ENDBRANCH  11  12
ENDBRANCH   1  11
TORSDOF 6
ENDMDL
MODEL 7
REMARK VINA RESULT:      -4.9     10.936     11.772
REMARK  6 active torsions:
REMARK  status: ('A' for Active; 'I' for Inactive)
REMARK    1  A    between atoms: N_4  and  C_1 
REMARK       I    between atoms: C_7  and  N_4 
REMARK    2  A    between atoms: C_8  and  C_7 
REMARK    3  A    between atoms: C_11  and  C_8 
REMARK    4  A    between atoms: C_10  and  O_17 
REMARK    5  A    between atoms: O_17  and  C_11 
REMARK    6  A    between atoms: O_18  and  C_12 
ROOT
ATOM      1  C   UNL d   1      44.771  25.921  56.004  0.00  0.00     0.089 C 
ENDROOT
BRANCH   1   2
ATOM      2  C   UNL d   1      44.726  25.095  55.995  0.00  0.00     0.283 C 
ATOM      3  N   UNL d   1      45.100  24.676  55.390  0.00  0.00    -0.186 NA
ATOM      4  O   UNL d   1      44.315  24.696  56.578  0.00  0.00    -0.265 OA
BRANCH   3   5
ATOM      5  C   UNL d   1      45.058  23.860  55.376  0.00  0.00     0.194 A 
ATOM      6  N   UNL d   1      45.374  23.344  55.943  0.00  0.00    -0.107 NA
ATOM      7  O   UNL d   1      45.201  22.578  55.705  0.00  0.00    -0.210 OA
ATOM      8  C   UNL d   1      44.788  22.611  55.007  0.00  0.00     0.128 A 
ATOM      9  C   UNL d   1      44.695  23.408  54.795  0.00  0.00     0.068 A 
ATOM     10  C   UNL d   1      44.505  21.971  54.576  0.00  0.00     0.029 C 
ENDBRANCH   3   5
ENDBRANCH   1   2
BRANCH   1  11
ATOM     11  C   UNL d   1      44.847  26.312  56.721  0.00  0.00     0.128 C 
BRANCH  11  12
ATOM     12  O   UNL d   1      45.199  27.036  56.534  0.00  0.00    -0.305 OA
BRANCH  12  13
ATOM     13  C   UNL d   1      45.189  27.653  57.077  0.00  0.00     0.100 A 
ATOM     14  C   UNL d   1      45.400  27.514  57.864  0.00  0.00     0.027 A 
ATOM     15  C   UNL d   1      45.392  28.128  58.415  0.00  0.00     0.026 A 
ATOM     16  C   UNL d   1      45.170  28.883  58.167  0.00  0.00     0.094 A 
ATOM     17  C   UNL d   1      44.959  29.022  57.380  0.00  0.00     0.026 A 
ATOM     18  C   UNL d   1      44.969  28.406  56.837  0.00  0.00     0.027 A 
BRANCH  16  19
ATOM     19  O   UNL d   1      45.160  29.508  58.720  0.00  0.00    -0.328 OA
ATOM     20  C   UNL d   1      44.618  29.489  59.343  0.00  0.00     0.181 C 
ENDBRANCH  16  19
ENDBRANCH  12  13
ENDBRANCH  11  12
ENDBRANCH   1  11
TORSDOF 6
ENDMDL
MODEL 8
REMARK VINA RESULT:      -4.3     10.546     11.217
REMARK  6 active torsions:
REMARK  status: ('A' for Active; 'I' for Inactive)
REMARK    1  A    between atoms: N_4  and  C_1 
REMARK       I    between atoms: C_7  and  N_4 
REMARK    2  A    between atoms: C_8  and  C_7 
REMARK    3  A    between atoms: C_11  and  C_8 
REMARK    4  A    between atoms: C_10  and  O_17 
REMARK    5  A    between atoms: O_17  and  C_11 
REMARK    6  A    between atoms: O_18  and  C_12 
ROOT
ATOM      1  C   UNL d   1      44.802  27.326  58.777  0.00  0.00     0.089 C 
ENDROOT
BRANCH   1   2
ATOM      2  C   UNL d   1      44.664  26.589  58.428  0.00  0.00     0.283 C 
ATOM      3  N   UNL d   1      44.868  25.903  58.839  0.00  0.00    -0.186 NA
ATOM      4  O   UNL d   1      44.329  26.539  57.685  0.00  0.00    -0.265 OA
BRANCH   3   5
ATOM      5  C   UNL d   1      44.734  25.172  58.500  0.00  0.00     0.194 A 
ATOM      6  N   UNL d   1      44.731  25.002  57.688  0.00  0.00    -0.107 NA
ATOM      7  O   UNL d   1      44.573  24.202  57.602  0.00  0.00    -0.210 OA
ATOM      8  C   UNL d   1      44.479  23.876  58.341  0.00  0.00     0.128 A 
ATOM      9  C   UNL d   1      44.578  24.476  58.906  0.00  0.00     0.068 A 
ATOM     10  C   UNL d   1      44.314  23.089  58.509  0.00  0.00     0.029 C 
ENDBRANCH   3   5
ENDBRANCH   1   2
BRANCH   1  11
ATOM     11  C   UNL d   1      44.751  28.004  58.318  0.00  0.00     0.128 C 
BRANCH  11  12
ATOM     12  O   UNL d   1      44.941  28.625  58.831  0.00  0.00    -0.305 OA
BRANCH  12  13
ATOM     13  C   UNL d   1      44.934  29.400  58.561  0.00  0.00     0.100 A 
ATOM     14  C   UNL d   1      44.721  29.564  57.779  0.00  0.00     0.027 A 
ATOM     15  C   UNL d   1      44.711  30.340  57.501  0.00  0.00     0.026 A 
ATOM     16  C   UNL d   1      44.917  30.951  58.016  0.00  0.00     0.094 A 
ATOM     17  C   UNL d   1      45.129  30.788  58.798  0.00  0.00     0.026 A 
ATOM     18  C   UNL d   1      45.137  30.012  59.068  0.00  0.00     0.027 A 
BRANCH  16  19
ATOM     19  O   UNL d   1      44.909  31.739  57.740  0.00  0.00    -0.328 OA
ATOM     20  C   UNL d   1      44.662  31.895  56.968  0.00  0.00     0.181 C 
ENDBRANCH  16  19
ENDBRANCH  12  13
ENDBRANCH  11  12
ENDBRANCH   1  11
TORSDOF 6
ENDMDL
