MODEL 1
REMARK VINA RESULT:      -3.0      0.000      0.000
REMARK  1 active torsions:
REMARK  status: ('A' for Active; 'I' for Inactive)
REMARK    1  A    between atoms: C_6  and  C_1 
ROOT
ATOM      1  C   UNL d   1      31.016  16.422 -23.742  0.00  0.00     0.148 A 
ATOM      2  N   UNL d   1      30.213  16.533 -23.903  0.00  0.00    -0.289 N 
ATOM      3  N   UNL d   1      31.107  15.758 -23.274  0.00  0.00    -0.225 NA
ATOM      4  C   UNL d   1      29.807  15.938 -23.534  0.00  0.00     0.085 A 
ATOM      5  C   UNL d   1      30.357  15.457 -23.145  0.00  0.00     0.118 A 
ATOM      6  C   UNL d   1      29.825  17.112 -24.343  0.00  0.00     0.082 A 
ATOM      7  C   UNL d   1      28.983  15.878 -23.579  0.00  0.00     0.019 A 
ATOM      8  C   UNL d   1      28.979  17.067 -24.400  0.00  0.00     0.019 A 
ATOM      9  C   UNL d   1      28.572  16.472 -24.032  0.00  0.00     0.003 A 
ENDROOT
BRANCH   1  10
ATOM     10  C   UNL d   1      31.567  16.954 -24.052  0.00  0.00     0.035 A 
ATOM     11  C   UNL d   1      31.798  17.659 -23.640  0.00  0.00     0.004 A 
ATOM     12  C   UNL d   1      32.343  18.181 -23.952  0.00  0.00     0.011 A 
ATOM     13  C   UNL d   1      32.665  18.012 -24.675  0.00  0.00     0.058 A 
ATOM     14  C   UNL d   1      32.459  17.338 -25.096  0.00  0.00     0.011 A 
ATOM     15 CL   UNL d   1      33.238  18.571 -24.992  0.00  0.00    -0.082 Cl
ATOM     16  C   UNL d   1      31.912  16.810 -24.787  0.00  0.00     0.004 A 
ENDBRANCH   1  10
TORSDOF 1
ENDMDL
MODEL 2
REMARK VINA RESULT:      -3.0      0.993      1.761
REMARK  1 active torsions:
REMARK  status: ('A' for Active; 'I' for Inactive)
REMARK    1  A    between atoms: C_6  and  C_1 
ROOT
ATOM      1  C   UNL d   1      29.977  17.070 -24.383  0.00  0.00     0.148 A 
ATOM      2  N   UNL d   1      29.500  16.554 -23.949  0.00  0.00    -0.289 N 
ATOM      3  N   UNL d   1      29.515  17.674 -24.683  0.00  0.00    -0.225 NA
ATOM      4  C   UNL d   1      28.743  16.838 -23.979  0.00  0.00     0.085 A 
ATOM      5  C   UNL d   1      28.750  17.531 -24.432  0.00  0.00     0.118 A 
ATOM      6  C   UNL d   1      29.687  15.865 -23.537  0.00  0.00     0.082 A 
ATOM      7  C   UNL d   1      28.117  16.454 -23.599  0.00  0.00     0.019 A 
ATOM      8  C   UNL d   1      29.056  15.456 -23.141  0.00  0.00     0.019 A 
ATOM      9  C   UNL d   1      28.299  15.740 -23.171  0.00  0.00     0.003 A 
ENDROOT
BRANCH   1  10
ATOM     10  C   UNL d   1      30.786  16.915 -24.448  0.00  0.00     0.035 A 
ATOM     11  C   UNL d   1      31.102  16.393 -25.038  0.00  0.00     0.004 A 
ATOM     12  C   UNL d   1      31.902  16.243 -25.097  0.00  0.00     0.011 A 
ATOM     13  C   UNL d   1      32.400  16.608 -24.573  0.00  0.00     0.058 A 
ATOM     14  C   UNL d   1      32.121  17.118 -23.992  0.00  0.00     0.011 A 
ATOM     15 CL   UNL d   1      33.241  16.441 -24.647  0.00  0.00    -0.082 Cl
ATOM     16  C   UNL d   1      31.318  17.272 -23.929  0.00  0.00     0.004 A 
ENDBRANCH   1  10
TORSDOF 1
ENDMDL
MODEL 3
REMARK VINA RESULT:      -2.9      1.718      3.292
REMARK  1 active torsions:
REMARK  status: ('A' for Active; 'I' for Inactive)
REMARK    1  A    between atoms: C_6  and  C_1 
ROOT
ATOM      1  C   UNL d   1      31.109  16.003 -24.395  0.00  0.00     0.148 A 
ATOM      2  N   UNL d   1      31.715  16.494 -24.123  0.00  0.00    -0.289 N 
ATOM      3  N   UNL d   1      31.422  15.453 -24.913  0.00  0.00    -0.225 NA
ATOM      4  C   UNL d   1      32.403  16.248 -24.470  0.00  0.00     0.085 A 
ATOM      5  C   UNL d   1      32.224  15.604 -24.959  0.00  0.00     0.118 A 
ATOM      6  C   UNL d   1      31.699  17.130 -23.598  0.00  0.00     0.082 A 
ATOM      7  C   UNL d   1      33.126  16.620 -24.320  0.00  0.00     0.019 A 
ATOM      8  C   UNL d   1      32.433  17.525 -23.431  0.00  0.00     0.019 A 
ATOM      9  C   UNL d   1      33.121  17.279 -23.779  0.00  0.00     0.003 A 
ENDROOT
BRANCH   1  10
ATOM     10  C   UNL d   1      30.337  16.128 -24.129  0.00  0.00     0.035 A 
ATOM     11  C   UNL d   1      29.814  16.685 -24.498  0.00  0.00     0.004 A 
ATOM     12  C   UNL d   1      29.052  16.803 -24.229  0.00  0.00     0.011 A 
ATOM     13  C   UNL d   1      28.798  16.373 -23.592  0.00  0.00     0.058 A 
ATOM     14  C   UNL d   1      29.284  15.828 -23.216  0.00  0.00     0.011 A 
ATOM     15 CL   UNL d   1      27.993  16.509 -23.320  0.00  0.00    -0.082 Cl
ATOM     16  C   UNL d   1      30.050  15.705 -23.482  0.00  0.00     0.004 A 
ENDBRANCH   1  10
TORSDOF 1
ENDMDL
MODEL 4
REMARK VINA RESULT:      -2.3      2.316      3.971
REMARK  1 active torsions:
REMARK  status: ('A' for Active; 'I' for Inactive)
REMARK    1  A    between atoms: C_6  and  C_1 
ROOT
ATOM      1  C   UNL d   1      32.830  18.771 -23.895  0.00  0.00     0.148 A 
ATOM      2  N   UNL d   1      32.927  19.231 -23.215  0.00  0.00    -0.289 N 
ATOM      3  N   UNL d   1      32.950  19.240 -24.554  0.00  0.00    -0.225 NA
ATOM      4  C   UNL d   1      33.107  19.983 -23.452  0.00  0.00     0.085 A 
ATOM      5  C   UNL d   1      33.122  19.991 -24.280  0.00  0.00     0.118 A 
ATOM      6  C   UNL d   1      32.868  19.032 -22.417  0.00  0.00     0.082 A 
ATOM      7  C   UNL d   1      33.241  20.592 -22.909  0.00  0.00     0.019 A 
ATOM      8  C   UNL d   1      33.002  19.645 -21.844  0.00  0.00     0.019 A 
ATOM      9  C   UNL d   1      33.182  20.397 -22.081  0.00  0.00     0.003 A 
ENDROOT
BRANCH   1  10
ATOM     10  C   UNL d   1      32.641  17.971 -23.818  0.00  0.00     0.035 A 
ATOM     11  C   UNL d   1      31.841  17.688 -23.846  0.00  0.00     0.004 A 
ATOM     12  C   UNL d   1      31.662  16.896 -23.770  0.00  0.00     0.011 A 
ATOM     13  C   UNL d   1      32.271  16.373 -23.665  0.00  0.00     0.058 A 
ATOM     14  C   UNL d   1      33.054  16.619 -23.635  0.00  0.00     0.011 A 
ATOM     15 CL   UNL d   1      32.066  15.541 -23.586  0.00  0.00    -0.082 Cl
ATOM     16  C   UNL d   1      33.240  17.414 -23.711  0.00  0.00     0.004 A 
ENDBRANCH   1  10
TORSDOF 1
ENDMDL
MODEL 5
REMARK VINA RESULT:      -2.3      5.533      6.881
REMARK  1 active torsions:
REMARK  status: ('A' for Active; 'I' for Inactive)
REMARK    1  A    between atoms: C_6  and  C_1 
ROOT
ATOM      1  C   UNL d   1      32.308  22.410 -21.009  0.00  0.00     0.148 A 
ATOM      2  N   UNL d   1      32.578  22.609 -20.254  0.00  0.00    -0.289 N 
ATOM      3  N   UNL d   1      31.832  23.012 -21.291  0.00  0.00    -0.225 NA
ATOM      4  C   UNL d   1      32.269  23.333 -20.067  0.00  0.00     0.085 A 
ATOM      5  C   UNL d   1      31.807  23.585 -20.707  0.00  0.00     0.118 A 
ATOM      6  C   UNL d   1      33.067  22.201 -19.731  0.00  0.00     0.082 A 
ATOM      7  C   UNL d   1      32.426  23.702 -19.345  0.00  0.00     0.019 A 
ATOM      8  C   UNL d   1      33.241  22.565 -18.983  0.00  0.00     0.019 A 
ATOM      9  C   UNL d   1      32.932  23.289 -18.797  0.00  0.00     0.003 A 
ENDROOT
BRANCH   1  10
ATOM     10  C   UNL d   1      32.540  21.691 -21.345  0.00  0.00     0.035 A 
ATOM     11  C   UNL d   1      32.336  20.943 -20.999  0.00  0.00     0.004 A 
ATOM     12  C   UNL d   1      32.568  20.237 -21.336  0.00  0.00     0.011 A 
ATOM     13  C   UNL d   1      33.004  20.261 -22.018  0.00  0.00     0.058 A 
ATOM     14  C   UNL d   1      33.215  20.971 -22.373  0.00  0.00     0.011 A 
ATOM     15 CL   UNL d   1      33.241  19.508 -22.361  0.00  0.00    -0.082 Cl
ATOM     16  C   UNL d   1      32.984  21.684 -22.039  0.00  0.00     0.004 A 
ENDBRANCH   1  10
TORSDOF 1
ENDMDL
MODEL 6
REMARK VINA RESULT:      -2.0      1.733      2.736
REMARK  1 active torsions:
REMARK  status: ('A' for Active; 'I' for Inactive)
REMARK    1  A    between atoms: C_6  and  C_1 
ROOT
ATOM      1  C   UNL d   1      32.787  17.872 -24.041  0.00  0.00     0.148 A 
ATOM      2  N   UNL d   1      32.195  17.296 -24.011  0.00  0.00    -0.289 N 
ATOM      3  N   UNL d   1      33.240  17.756 -24.711  0.00  0.00    -0.225 NA
ATOM      4  C   UNL d   1      32.281  16.824 -24.663  0.00  0.00     0.085 A 
ATOM      5  C   UNL d   1      32.927  17.106 -25.097  0.00  0.00     0.118 A 
ATOM      6  C   UNL d   1      31.597  17.165 -23.459  0.00  0.00     0.082 A 
ATOM      7  C   UNL d   1      31.777  16.186 -24.809  0.00  0.00     0.019 A 
ATOM      8  C   UNL d   1      31.069  16.513 -23.593  0.00  0.00     0.019 A 
ATOM      9  C   UNL d   1      31.155  16.041 -24.244  0.00  0.00     0.003 A 
ENDROOT
BRANCH   1  10
ATOM     10  C   UNL d   1      32.832  18.436 -23.439  0.00  0.00     0.035 A 
ATOM     11  C   UNL d   1      33.188  18.269 -22.687  0.00  0.00     0.004 A 
ATOM     12  C   UNL d   1      33.230  18.831 -22.096  0.00  0.00     0.011 A 
ATOM     13  C   UNL d   1      32.920  19.565 -22.242  0.00  0.00     0.058 A 
ATOM     14  C   UNL d   1      32.570  19.753 -22.961  0.00  0.00     0.011 A 
ATOM     15 CL   UNL d   1      32.971  20.147 -21.610  0.00  0.00    -0.082 Cl
ATOM     16  C   UNL d   1      32.525  19.192 -23.558  0.00  0.00     0.004 A 
ENDBRANCH   1  10
TORSDOF 1
ENDMDL
MODEL 7
REMARK VINA RESULT:      -1.5      4.669      5.969
REMARK  1 active torsions:
REMARK  status: ('A' for Active; 'I' for Inactive)
REMARK    1  A    between atoms: C_6  and  C_1 
ROOT
ATOM      1  C   UNL d   1      32.818  20.827 -21.325  0.00  0.00     0.148 A 
ATOM      2  N   UNL d   1      32.960  20.845 -22.139  0.00  0.00    -0.289 N 
ATOM      3  N   UNL d   1      32.778  20.048 -21.078  0.00  0.00    -0.225 NA
ATOM      4  C   UNL d   1      33.009  20.079 -22.395  0.00  0.00     0.085 A 
ATOM      5  C   UNL d   1      32.896  19.585 -21.741  0.00  0.00     0.118 A 
ATOM      6  C   UNL d   1      33.048  21.480 -22.657  0.00  0.00     0.082 A 
ATOM      7  C   UNL d   1      33.148  19.891 -23.188  0.00  0.00     0.019 A 
ATOM      8  C   UNL d   1      33.192  21.307 -23.477  0.00  0.00     0.019 A 
ATOM      9  C   UNL d   1      33.241  20.541 -23.733  0.00  0.00     0.003 A 
ENDROOT
BRANCH   1  10
ATOM     10  C   UNL d   1      32.742  21.538 -20.912  0.00  0.00     0.035 A 
ATOM     11  C   UNL d   1      32.169  22.127 -21.125  0.00  0.00     0.004 A 
ATOM     12  C   UNL d   1      32.100  22.829 -20.712  0.00  0.00     0.011 A 
ATOM     13  C   UNL d   1      32.596  22.956 -20.085  0.00  0.00     0.058 A 
ATOM     14  C   UNL d   1      33.159  22.403 -19.858  0.00  0.00     0.011 A 
ATOM     15 CL   UNL d   1      32.511  23.699 -19.660  0.00  0.00    -0.082 Cl
ATOM     16  C   UNL d   1      33.233  21.697 -20.269  0.00  0.00     0.004 A 
ENDBRANCH   1  10
TORSDOF 1
ENDMDL
MODEL 8
REMARK VINA RESULT:      -1.4      4.393      5.876
REMARK  1 active torsions:
REMARK  status: ('A' for Active; 'I' for Inactive)
REMARK    1  A    between atoms: C_6  and  C_1 
ROOT
ATOM      1  C   UNL d   1      32.529  21.298 -21.356  0.00  0.00     0.148 A 
ATOM      2  N   UNL d   1      32.726  22.006 -21.735  0.00  0.00    -0.289 N 
ATOM      3  N   UNL d   1      32.180  21.468 -20.636  0.00  0.00    -0.225 NA
ATOM      4  C   UNL d   1      32.499  22.613 -21.250  0.00  0.00     0.085 A 
ATOM      5  C   UNL d   1      32.161  22.282 -20.570  0.00  0.00     0.118 A 
ATOM      6  C   UNL d   1      33.084  22.147 -22.463  0.00  0.00     0.082 A 
ATOM      7  C   UNL d   1      32.614  23.405 -21.458  0.00  0.00     0.019 A 
ATOM      8  C   UNL d   1      33.211  22.955 -22.695  0.00  0.00     0.019 A 
ATOM      9  C   UNL d   1      32.984  23.561 -22.210  0.00  0.00     0.003 A 
ENDROOT
BRANCH   1  10
ATOM     10  C   UNL d   1      32.699  20.581 -21.728  0.00  0.00     0.035 A 
ATOM     11  C   UNL d   1      32.503  20.433 -22.541  0.00  0.00     0.004 A 
ATOM     12  C   UNL d   1      32.674  19.722 -22.903  0.00  0.00     0.011 A 
ATOM     13  C   UNL d   1      33.040  19.147 -22.465  0.00  0.00     0.058 A 
ATOM     14  C   UNL d   1      33.241  19.263 -21.678  0.00  0.00     0.011 A 
ATOM     15 CL   UNL d   1      33.214  18.402 -22.860  0.00  0.00    -0.082 Cl
ATOM     16  C   UNL d   1      33.072  19.976 -21.309  0.00  0.00     0.004 A 
ENDBRANCH   1  10
TORSDOF 1
ENDMDL
MODEL 9
REMARK VINA RESULT:      -1.2      5.785      6.778
REMARK  1 active torsions:
REMARK  status: ('A' for Active; 'I' for Inactive)
REMARK    1  A    between atoms: C_6  and  C_1 
ROOT
ATOM      1  C   UNL d   1      32.884  23.123 -21.768  0.00  0.00     0.148 A 
ATOM      2  N   UNL d   1      32.804  22.397 -21.382  0.00  0.00    -0.289 N 
ATOM      3  N   UNL d   1      33.062  23.701 -21.218  0.00  0.00    -0.225 NA
ATOM      4  C   UNL d   1      32.932  22.525 -20.593  0.00  0.00     0.085 A 
ATOM      5  C   UNL d   1      33.091  23.331 -20.489  0.00  0.00     0.118 A 
ATOM      6  C   UNL d   1      32.629  21.647 -21.675  0.00  0.00     0.082 A 
ATOM      7  C   UNL d   1      32.895  21.912 -20.039  0.00  0.00     0.019 A 
ATOM      8  C   UNL d   1      32.586  21.004 -21.120  0.00  0.00     0.019 A 
ATOM      9  C   UNL d   1      32.715  21.132 -20.332  0.00  0.00     0.003 A 
ENDROOT
BRANCH   1  10
ATOM     10  C   UNL d   1      32.781  23.158 -22.587  0.00  0.00     0.035 A 
ATOM     11  C   UNL d   1      33.241  22.687 -23.122  0.00  0.00     0.004 A 
ATOM     12  C   UNL d   1      33.134  22.727 -23.931  0.00  0.00     0.011 A 
ATOM     13  C   UNL d   1      32.572  23.233 -24.220  0.00  0.00     0.058 A 
ATOM     14  C   UNL d   1      32.113  23.700 -23.724  0.00  0.00     0.011 A 
ATOM     15 CL   UNL d   1      32.471  23.264 -25.074  0.00  0.00    -0.082 Cl
ATOM     16  C   UNL d   1      32.216  23.664 -22.911  0.00  0.00     0.004 A 
ENDBRANCH   1  10
TORSDOF 1
ENDMDL
