MODEL 1
REMARK VINA RESULT:      -0.1      0.000      0.000
REMARK  6 active torsions:
REMARK  status: ('A' for Active; 'I' for Inactive)
REMARK    1  A    between atoms: C_9  and  C_1 
REMARK    2  A    between atoms: N_4  and  C_2 
REMARK       I    between atoms: C_5  and  N_4 
REMARK    3  A    between atoms: C_7  and  C_5 
REMARK    4  A    between atoms: O_13  and  C_9 
REMARK    5  A    between atoms: O_16  and  C_11 
REMARK    6  A    between atoms: C_19  and  O_13 
ROOT
ATOM      1  C   UNL d   1      58.645  -0.469  29.649  0.00  0.00     0.181 A 
ATOM      2  C   UNL d   1      59.104  -0.967  29.166  0.00  0.00     0.115 A 
ATOM      3  O   UNL d   1      59.081   0.228  29.761  0.00  0.00    -0.300 OA
ATOM      4  C   UNL d   1      59.802  -0.579  28.991  0.00  0.00     0.043 A 
ATOM      5  C   UNL d   1      59.791   0.162  29.358  0.00  0.00     0.102 A 
ATOM      6  C   UNL d   1      60.456  -0.803  28.539  0.00  0.00     0.004 A 
ATOM      7  C   UNL d   1      60.427   0.671  29.273  0.00  0.00     0.025 A 
ATOM      8  C   UNL d   1      61.098  -0.287  28.455  0.00  0.00     0.000 A 
ATOM      9  C   UNL d   1      61.078   0.453  28.826  0.00  0.00     0.002 A 
ENDROOT
BRANCH   2  10
ATOM     10  N   UNL d   1      58.885  -1.727  28.910  0.00  0.00    -0.206 NA
ATOM     11  C   UNL d   1      59.223  -2.391  29.263  0.00  0.00     0.281 C 
ATOM     12  O   UNL d   1      59.775  -2.305  29.868  0.00  0.00    -0.265 OA
BRANCH  11  13
ATOM     13  C   UNL d   1      59.006  -3.141  29.008  0.00  0.00     0.080 A 
ATOM     14  C   UNL d   1      59.551  -3.773  29.054  0.00  0.00     0.099 A 
ATOM     15  C   UNL d   1      59.324  -4.516  28.798  0.00  0.00     0.024 A 
ATOM     16  C   UNL d   1      58.559  -4.638  28.496  0.00  0.00     0.002 A 
ATOM     17  C   UNL d   1      58.033  -4.014  28.455  0.00  0.00     0.000 A 
ATOM     18  C   UNL d   1      58.252  -3.266  28.710  0.00  0.00     0.007 A 
BRANCH  14  19
ATOM     19  O   UNL d   1      60.301  -3.636  29.355  0.00  0.00    -0.328 OA
ATOM     20  C   UNL d   1      60.716  -4.272  29.678  0.00  0.00     0.181 C 
ENDBRANCH  14  19
ENDBRANCH  11  13
ENDBRANCH   2  10
BRANCH   1  21
ATOM     21  C   UNL d   1      57.898  -0.637  29.958  0.00  0.00     0.325 C 
ATOM     22  O   UNL d   1      57.228  -0.564  29.477  0.00  0.00    -0.257 OA
BRANCH  21  23
ATOM     23  O   UNL d   1      57.825  -0.876  30.737  0.00  0.00    -0.269 OA
BRANCH  23  24
ATOM     24  C   UNL d   1      57.255  -0.521  31.227  0.00  0.00     0.126 C 
ATOM     25  C   UNL d   1      57.219  -0.729  32.030  0.00  0.00     0.029 C 
ENDBRANCH  23  24
ENDBRANCH  21  23
ENDBRANCH   1  21
TORSDOF 6
ENDMDL
