MODEL 1
REMARK VINA RESULT:      -2.3      0.000      0.000
REMARK  5 active torsions:
REMARK  status: ('A' for Active; 'I' for Inactive)
REMARK    1  A    between atoms: N_12  and  C_5 
REMARK    2  A    between atoms: C_21  and  N_9 
REMARK    3  A    between atoms: C_10  and  S_20 
REMARK    4  A    between atoms: S_20  and  C_26 
REMARK    5  A    between atoms: C_26  and  C_21 
ROOT
ATOM      1  C   UNL d   1     -40.367  15.099  19.864  0.00  0.00     0.191 A 
ATOM      2  C   UNL d   1     -39.705  14.632  19.988  0.00  0.00     0.173 A 
ATOM      3  N   UNL d   1     -40.358  15.356  19.081  0.00  0.00    -0.042 NA
ATOM      4  N   UNL d   1     -40.895  15.233  20.479  0.00  0.00    -0.240 N 
ATOM      5  C   UNL d   1     -39.686  15.043  18.724  0.00  0.00     0.722 A 
ATOM      6  N   UNL d   1     -40.100  14.431  21.346  0.00  0.00    -0.223 N 
ATOM      7  C   UNL d   1     -40.762  14.899  21.222  0.00  0.00     0.343 A 
ATOM      8  C   UNL d   1     -39.567  14.296  20.727  0.00  0.00     0.288 A 
ATOM      9  N   UNL d   1     -39.277  14.593  19.283  0.00  0.00    -0.132 N 
ATOM     10  O   UNL d   1     -41.302  15.038  21.843  0.00  0.00    -0.245 OA
ATOM     11  O   UNL d   1     -38.898  13.823  20.852  0.00  0.00    -0.265 OA
ATOM     12  C   UNL d   1     -41.557  15.701  20.355  0.00  0.00     0.105 C 
ATOM     13  C   UNL d   1     -39.966  14.097  22.085  0.00  0.00     0.107 C 
ENDROOT
BRANCH   9  14
ATOM     14  C   UNL d   1     -38.574  14.183  19.156  0.00  0.00     0.105 C 
BRANCH  14  15
ATOM     15  C   UNL d   1     -38.583  13.441  18.784  0.00  0.00     0.057 C 
BRANCH  15  16
ATOM     16  S   UNL d   1     -37.940  12.922  18.886  0.00  0.00    -0.059 SA
BRANCH  16  17
ATOM     17  C   UNL d   1     -37.942  12.184  18.498  0.00  0.00     0.141 A 
ATOM     18  N   UNL d   1     -37.945  11.493  18.935  0.00  0.00    -0.232 NA
ATOM     19  C   UNL d   1     -37.947  10.864  18.418  0.00  0.00     0.088 A 
ATOM     20  C   UNL d   1     -37.951  10.046  18.554  0.00  0.00     0.020 A 
ATOM     21  C   UNL d   1     -37.945  11.151  17.660  0.00  0.00     0.049 A 
ATOM     22  C   UNL d   1     -37.952   9.522  17.912  0.00  0.00     0.002 A 
ATOM     23  C   UNL d   1     -37.950   9.813  17.155  0.00  0.00     0.001 A 
ATOM     24  C   UNL d   1     -37.946  10.633  17.024  0.00  0.00     0.008 A 
ATOM     25  S   UNL d   1     -37.942  11.990  17.707  0.00  0.00    -0.060 SA
ENDBRANCH  16  17
ENDBRANCH  15  16
ENDBRANCH  14  15
ENDBRANCH   9  14
BRANCH   5  26
ATOM     26  N   UNL d   1     -39.496  15.184  17.938  0.00  0.00    -0.139 N 
ATOM     27  C   UNL d   1     -39.978  14.911  17.337  0.00  0.00     0.098 A 
ATOM     28  C   UNL d   1     -39.785  15.054  16.540  0.00  0.00     0.020 A 
ATOM     29  C   UNL d   1     -39.092  15.480  16.361  0.00  0.00     0.003 A 
ATOM     30  C   UNL d   1     -38.611  15.752  16.965  0.00  0.00     0.020 A 
ATOM     31  C   UNL d   1     -38.901  15.621  15.571  0.00  0.00     0.000 C 
ATOM     32  C   UNL d   1     -38.813  15.604  17.752  0.00  0.00     0.098 A 
ENDBRANCH   5  26
TORSDOF 5
ENDMDL
MODEL 2
REMARK VINA RESULT:      -0.4      7.559      9.640
REMARK  5 active torsions:
REMARK  status: ('A' for Active; 'I' for Inactive)
REMARK    1  A    between atoms: N_12  and  C_5 
REMARK    2  A    between atoms: C_21  and  N_9 
REMARK    3  A    between atoms: C_10  and  S_20 
REMARK    4  A    between atoms: S_20  and  C_26 
REMARK    5  A    between atoms: C_26  and  C_21 
ROOT
ATOM      1  C   UNL d   1     -49.593  13.421  22.371  0.00  0.00     0.191 A 
ATOM      2  C   UNL d   1     -48.956  13.878  22.613  0.00  0.00     0.173 A 
ATOM      3  N   UNL d   1     -49.375  12.628  22.427  0.00  0.00    -0.042 NA
ATOM      4  N   UNL d   1     -50.290  13.783  22.131  0.00  0.00    -0.240 N 
ATOM      5  C   UNL d   1     -48.602  12.600  22.704  0.00  0.00     0.722 A 
ATOM      6  N   UNL d   1     -49.717  15.064  22.373  0.00  0.00    -0.223 N 
ATOM      7  C   UNL d   1     -50.354  14.606  22.132  0.00  0.00     0.343 A 
ATOM      8  C   UNL d   1     -49.014  14.699  22.615  0.00  0.00     0.288 A 
ATOM      9  N   UNL d   1     -48.337  13.374  22.821  0.00  0.00    -0.132 N 
ATOM     10  O   UNL d   1     -51.064  14.969  21.887  0.00  0.00    -0.245 OA
ATOM     11  O   UNL d   1     -48.371  15.162  22.860  0.00  0.00    -0.265 OA
ATOM     12  C   UNL d   1     -50.926  13.326  21.890  0.00  0.00     0.105 C 
ATOM     13  C   UNL d   1     -49.778  15.883  22.375  0.00  0.00     0.107 C 
ENDROOT
BRANCH   9  14
ATOM     14  C   UNL d   1     -47.592  13.597  23.095  0.00  0.00     0.105 C 
BRANCH  14  15
ATOM     15  C   UNL d   1     -46.948  13.634  22.572  0.00  0.00     0.057 C 
BRANCH  15  16
ATOM     16  S   UNL d   1     -46.199  13.856  22.860  0.00  0.00    -0.059 SA
BRANCH  16  17
ATOM     17  C   UNL d   1     -45.512  13.570  22.482  0.00  0.00     0.141 A 
ATOM     18  N   UNL d   1     -45.127  12.914  22.781  0.00  0.00    -0.232 NA
ATOM     19  C   UNL d   1     -44.483  12.759  22.307  0.00  0.00     0.088 A 
ATOM     20  C   UNL d   1     -43.904  12.167  22.349  0.00  0.00     0.020 A 
ATOM     21  C   UNL d   1     -44.458  13.311  21.714  0.00  0.00     0.049 A 
ATOM     22  C   UNL d   1     -43.299  12.141  21.783  0.00  0.00     0.002 A 
ATOM     23  C   UNL d   1     -43.278  12.695  21.191  0.00  0.00     0.001 A 
ATOM     24  C   UNL d   1     -43.860  13.286  21.153  0.00  0.00     0.008 A 
ATOM     25  S   UNL d   1     -45.111  13.828  21.822  0.00  0.00    -0.060 SA
ENDBRANCH  16  17
ENDBRANCH  15  16
ENDBRANCH  14  15
ENDBRANCH   9  14
BRANCH   5  26
ATOM     26  N   UNL d   1     -48.200  11.895  22.828  0.00  0.00    -0.139 N 
ATOM     27  C   UNL d   1     -47.922  11.700  23.571  0.00  0.00     0.098 A 
ATOM     28  C   UNL d   1     -47.514  10.984  23.698  0.00  0.00     0.020 A 
ATOM     29  C   UNL d   1     -47.394  10.469  23.055  0.00  0.00     0.003 A 
ATOM     30  C   UNL d   1     -47.674  10.667  22.312  0.00  0.00     0.020 A 
ATOM     31  C   UNL d   1     -46.990   9.760  23.180  0.00  0.00     0.000 C 
ATOM     32  C   UNL d   1     -48.076  11.379  22.199  0.00  0.00     0.098 A 
ENDBRANCH   5  26
TORSDOF 5
ENDMDL
