MODEL 1
REMARK VINA RESULT:      -2.2      0.000      0.000
REMARK  5 active torsions:
REMARK  status: ('A' for Active; 'I' for Inactive)
REMARK    1  A    between atoms: C_9  and  N_2 
REMARK    2  A    between atoms: C_7  and  O_10 
REMARK    3  A    between atoms: O_11  and  C_8 
REMARK    4  A    between atoms: C_12  and  C_9 
REMARK    5  A    between atoms: O_10  and  C_12 
ROOT
ATOM      1  C   UNL d   1      31.264  17.369 -24.388  0.00  0.00     0.110 C 
ENDROOT
BRANCH   1   2
ATOM      2  N   UNL d   1      30.744  16.803 -24.088  0.00  0.00    -0.266 N 
ATOM      3  C   UNL d   1      30.957  16.092 -23.734  0.00  0.00     0.296 A 
ATOM      4  S   UNL d   1      30.252  15.697 -23.514  0.00  0.00    -0.025 SA
ATOM      5  O   UNL d   1      31.721  15.814 -23.616  0.00  0.00    -0.259 OA
ATOM      6  C   UNL d   1      29.615  16.175 -23.738  0.00  0.00     0.050 A 
ATOM      7  C   UNL d   1      28.796  16.069 -23.661  0.00  0.00     0.008 A 
ATOM      8  C   UNL d   1      29.916  16.853 -24.089  0.00  0.00     0.074 A 
ATOM      9  C   UNL d   1      28.287  16.659 -23.945  0.00  0.00     0.001 A 
ATOM     10  C   UNL d   1      28.589  17.337 -24.296  0.00  0.00     0.002 A 
ATOM     11  C   UNL d   1      29.406  17.440 -24.371  0.00  0.00     0.018 A 
ENDBRANCH   1   2
BRANCH   1  12
ATOM     12  C   UNL d   1      31.605  17.928 -23.891  0.00  0.00     0.142 C 
BRANCH  12  13
ATOM     13  O   UNL d   1      32.193  18.442 -24.166  0.00  0.00    -0.302 OA
BRANCH  13  14
ATOM     14  C   UNL d   1      32.524  19.005 -23.660  0.00  0.00     0.122 A 
ATOM     15  C   UNL d   1      32.912  19.661 -23.974  0.00  0.00     0.117 A 
ATOM     16  C   UNL d   1      33.241  20.220 -23.471  0.00  0.00     0.026 A 
ATOM     17  C   UNL d   1      33.181  20.122 -22.654  0.00  0.00     0.002 A 
ATOM     18  C   UNL d   1      32.789  19.461 -22.342  0.00  0.00     0.002 A 
ATOM     19  C   UNL d   1      32.463  18.906 -22.853  0.00  0.00     0.027 A 
BRANCH  15  20
ATOM     20  O   UNL d   1      32.990  19.787 -24.791  0.00  0.00    -0.326 OA
ATOM     21  C   UNL d   1      33.051  20.559 -25.080  0.00  0.00     0.181 C 
ENDBRANCH  15  20
ENDBRANCH  13  14
ENDBRANCH  12  13
ENDBRANCH   1  12
TORSDOF 5
ENDMDL
MODEL 2
REMARK VINA RESULT:      -2.1      2.144      4.800
REMARK  5 active torsions:
REMARK  status: ('A' for Active; 'I' for Inactive)
REMARK    1  A    between atoms: C_9  and  N_2 
REMARK    2  A    between atoms: C_7  and  O_10 
REMARK    3  A    between atoms: O_11  and  C_8 
REMARK    4  A    between atoms: C_12  and  C_9 
REMARK    5  A    between atoms: O_10  and  C_12 
ROOT
ATOM      1  C   UNL d   1      33.239  19.159 -22.972  0.00  0.00     0.110 C 
ENDROOT
BRANCH   1   2
ATOM      2  N   UNL d   1      33.232  19.981 -22.895  0.00  0.00    -0.266 N 
ATOM      3  C   UNL d   1      33.233  20.523 -23.512  0.00  0.00     0.296 A 
ATOM      4  S   UNL d   1      33.224  21.291 -23.176  0.00  0.00    -0.025 SA
ATOM      5  O   UNL d   1      33.241  20.351 -24.315  0.00  0.00    -0.259 OA
ATOM      6  C   UNL d   1      33.217  21.205 -22.353  0.00  0.00     0.050 A 
ATOM      7  C   UNL d   1      33.208  21.767 -21.743  0.00  0.00     0.008 A 
ATOM      8  C   UNL d   1      33.222  20.402 -22.180  0.00  0.00     0.074 A 
ATOM      9  C   UNL d   1      33.203  21.505 -20.957  0.00  0.00     0.001 A 
ATOM     10  C   UNL d   1      33.208  20.702 -20.784  0.00  0.00     0.002 A 
ATOM     11  C   UNL d   1      33.218  20.143 -21.394  0.00  0.00     0.018 A 
ENDBRANCH   1   2
BRANCH   1  12
ATOM     12  C   UNL d   1      32.590  18.764 -23.285  0.00  0.00     0.142 C 
BRANCH  12  13
ATOM     13  O   UNL d   1      32.523  17.942 -23.229  0.00  0.00    -0.302 OA
BRANCH  13  14
ATOM     14  C   UNL d   1      32.041  17.526 -23.756  0.00  0.00     0.122 A 
ATOM     15  C   UNL d   1      32.170  16.721 -23.883  0.00  0.00     0.117 A 
ATOM     16  C   UNL d   1      31.690  16.309 -24.406  0.00  0.00     0.026 A 
ATOM     17  C   UNL d   1      31.082  16.702 -24.801  0.00  0.00     0.002 A 
ATOM     18  C   UNL d   1      30.956  17.511 -24.671  0.00  0.00     0.002 A 
ATOM     19  C   UNL d   1      31.440  17.916 -24.145  0.00  0.00     0.027 A 
BRANCH  15  20
ATOM     20  O   UNL d   1      32.773  16.298 -23.500  0.00  0.00    -0.326 OA
ATOM     21  C   UNL d   1      32.625  15.530 -23.233  0.00  0.00     0.181 C 
ENDBRANCH  15  20
ENDBRANCH  13  14
ENDBRANCH  12  13
ENDBRANCH   1  12
TORSDOF 5
ENDMDL
MODEL 3
REMARK VINA RESULT:      -2.1      3.194      5.430
REMARK  5 active torsions:
REMARK  status: ('A' for Active; 'I' for Inactive)
REMARK    1  A    between atoms: C_9  and  N_2 
REMARK    2  A    between atoms: C_7  and  O_10 
REMARK    3  A    between atoms: O_11  and  C_8 
REMARK    4  A    between atoms: C_12  and  C_9 
REMARK    5  A    between atoms: O_10  and  C_12 
ROOT
ATOM      1  C   UNL d   1      32.372  20.706 -21.353  0.00  0.00     0.110 C 
ENDROOT
BRANCH   1   2
ATOM      2  N   UNL d   1      32.656  21.242 -20.794  0.00  0.00    -0.266 N 
ATOM      3  C   UNL d   1      33.054  21.051 -20.100  0.00  0.00     0.296 A 
ATOM      4  S   UNL d   1      33.237  21.768 -19.706  0.00  0.00    -0.025 SA
ATOM      5  O   UNL d   1      33.241  20.297 -19.836  0.00  0.00    -0.259 OA
ATOM      6  C   UNL d   1      32.946  22.390 -20.169  0.00  0.00     0.050 A 
ATOM      7  C   UNL d   1      32.966  23.212 -20.056  0.00  0.00     0.008 A 
ATOM      8  C   UNL d   1      32.590  22.068 -20.835  0.00  0.00     0.074 A 
ATOM      9  C   UNL d   1      32.620  23.702 -20.629  0.00  0.00     0.001 A 
ATOM     10  C   UNL d   1      32.264  23.380 -21.295  0.00  0.00     0.002 A 
ATOM     11  C   UNL d   1      32.246  22.560 -21.404  0.00  0.00     0.018 A 
ENDBRANCH   1   2
BRANCH   1  12
ATOM     12  C   UNL d   1      32.869  20.407 -21.935  0.00  0.00     0.142 C 
BRANCH  12  13
ATOM     13  O   UNL d   1      32.735  19.663 -22.270  0.00  0.00    -0.302 OA
BRANCH  13  14
ATOM     14  C   UNL d   1      32.902  19.529 -23.068  0.00  0.00     0.122 A 
ATOM     15  C   UNL d   1      32.894  18.760 -23.366  0.00  0.00     0.117 A 
ATOM     16  C   UNL d   1      33.060  18.628 -24.159  0.00  0.00     0.026 A 
ATOM     17  C   UNL d   1      33.234  19.265 -24.653  0.00  0.00     0.002 A 
ATOM     18  C   UNL d   1      33.241  20.037 -24.350  0.00  0.00     0.002 A 
ATOM     19  C   UNL d   1      33.074  20.160 -23.554  0.00  0.00     0.027 A 
BRANCH  15  20
ATOM     20  O   UNL d   1      32.723  18.098 -22.894  0.00  0.00    -0.326 OA
ATOM     21  C   UNL d   1      32.514  17.385 -23.254  0.00  0.00     0.181 C 
ENDBRANCH  15  20
ENDBRANCH  13  14
ENDBRANCH  12  13
ENDBRANCH   1  12
TORSDOF 5
ENDMDL
MODEL 4
REMARK VINA RESULT:      -2.1      2.598      4.967
REMARK  5 active torsions:
REMARK  status: ('A' for Active; 'I' for Inactive)
REMARK    1  A    between atoms: C_9  and  N_2 
REMARK    2  A    between atoms: C_7  and  O_10 
REMARK    3  A    between atoms: O_11  and  C_8 
REMARK    4  A    between atoms: C_12  and  C_9 
REMARK    5  A    between atoms: O_10  and  C_12 
ROOT
ATOM      1  C   UNL d   1      33.211  20.013 -22.472  0.00  0.00     0.110 C 
ENDROOT
BRANCH   1   2
ATOM      2  N   UNL d   1      32.996  20.694 -22.058  0.00  0.00    -0.266 N 
ATOM      3  C   UNL d   1      32.724  20.722 -21.283  0.00  0.00     0.296 A 
ATOM      4  S   UNL d   1      32.574  21.525 -21.095  0.00  0.00    -0.025 SA
ATOM      5  O   UNL d   1      32.617  20.083 -20.779  0.00  0.00    -0.259 OA
ATOM      6  C   UNL d   1      32.758  21.978 -21.764  0.00  0.00     0.050 A 
ATOM      7  C   UNL d   1      32.718  22.795 -21.899  0.00  0.00     0.008 A 
ATOM      8  C   UNL d   1      33.016  21.469 -22.354  0.00  0.00     0.074 A 
ATOM      9  C   UNL d   1      32.944  23.089 -22.641  0.00  0.00     0.001 A 
ATOM     10  C   UNL d   1      33.202  22.580 -23.231  0.00  0.00     0.002 A 
ATOM     11  C   UNL d   1      33.240  21.765 -23.093  0.00  0.00     0.018 A 
ENDBRANCH   1   2
BRANCH   1  12
ATOM     12  C   UNL d   1      32.635  19.504 -22.764  0.00  0.00     0.142 C 
BRANCH  12  13
ATOM     13  O   UNL d   1      32.791  18.698 -22.868  0.00  0.00    -0.302 OA
BRANCH  13  14
ATOM     14  C   UNL d   1      32.418  18.276 -23.472  0.00  0.00     0.122 A 
ATOM     15  C   UNL d   1      32.495  17.455 -23.508  0.00  0.00     0.117 A 
ATOM     16  C   UNL d   1      32.124  17.037 -24.108  0.00  0.00     0.026 A 
ATOM     17  C   UNL d   1      31.676  17.439 -24.673  0.00  0.00     0.002 A 
ATOM     18  C   UNL d   1      31.601  18.263 -24.633  0.00  0.00     0.002 A 
ATOM     19  C   UNL d   1      31.976  18.675 -24.029  0.00  0.00     0.027 A 
BRANCH  15  20
ATOM     20  O   UNL d   1      32.939  17.023 -22.955  0.00  0.00    -0.326 OA
ATOM     21  C   UNL d   1      33.084  16.220 -23.089  0.00  0.00     0.181 C 
ENDBRANCH  15  20
ENDBRANCH  13  14
ENDBRANCH  12  13
ENDBRANCH   1  12
TORSDOF 5
ENDMDL
MODEL 5
REMARK VINA RESULT:      -1.6      2.427      3.209
REMARK  5 active torsions:
REMARK  status: ('A' for Active; 'I' for Inactive)
REMARK    1  A    between atoms: C_9  and  N_2 
REMARK    2  A    between atoms: C_7  and  O_10 
REMARK    3  A    between atoms: O_11  and  C_8 
REMARK    4  A    between atoms: C_12  and  C_9 
REMARK    5  A    between atoms: O_10  and  C_12 
ROOT
ATOM      1  C   UNL d   1      32.473  19.262 -23.428  0.00  0.00     0.110 C 
ENDROOT
BRANCH   1   2
ATOM      2  N   UNL d   1      32.696  18.681 -23.970  0.00  0.00    -0.266 N 
ATOM      3  C   UNL d   1      33.044  18.813 -24.702  0.00  0.00     0.296 A 
ATOM      4  S   UNL d   1      33.173  18.066 -25.060  0.00  0.00    -0.025 SA
ATOM      5  O   UNL d   1      33.234  19.541 -25.030  0.00  0.00    -0.259 OA
ATOM      6  C   UNL d   1      32.899  17.486 -24.537  0.00  0.00     0.050 A 
ATOM      7  C   UNL d   1      32.884  16.659 -24.595  0.00  0.00     0.008 A 
ATOM      8  C   UNL d   1      32.607  17.863 -23.869  0.00  0.00     0.074 A 
ATOM      9  C   UNL d   1      32.569  16.219 -23.967  0.00  0.00     0.001 A 
ATOM     10  C   UNL d   1      32.277  16.596 -23.298  0.00  0.00     0.002 A 
ATOM     11  C   UNL d   1      32.293  17.421 -23.243  0.00  0.00     0.018 A 
ENDBRANCH   1   2
BRANCH   1  12
ATOM     12  C   UNL d   1      33.033  19.616 -22.942  0.00  0.00     0.142 C 
BRANCH  12  13
ATOM     13  O   UNL d   1      33.007  20.427 -22.779  0.00  0.00    -0.302 OA
BRANCH  13  14
ATOM     14  C   UNL d   1      33.085  20.699 -22.003  0.00  0.00     0.122 A 
ATOM     15  C   UNL d   1      33.093  21.510 -21.852  0.00  0.00     0.117 A 
ATOM     16  C   UNL d   1      33.171  21.780 -21.080  0.00  0.00     0.026 A 
ATOM     17  C   UNL d   1      33.241  21.238 -20.461  0.00  0.00     0.002 A 
ATOM     18  C   UNL d   1      33.232  20.425 -20.618  0.00  0.00     0.002 A 
ATOM     19  C   UNL d   1      33.154  20.163 -21.393  0.00  0.00     0.027 A 
BRANCH  15  20
ATOM     20  O   UNL d   1      33.026  22.079 -22.452  0.00  0.00    -0.326 OA
ATOM     21  C   UNL d   1      33.010  22.881 -22.254  0.00  0.00     0.181 C 
ENDBRANCH  15  20
ENDBRANCH  13  14
ENDBRANCH  12  13
ENDBRANCH   1  12
TORSDOF 5
ENDMDL
MODEL 6
REMARK VINA RESULT:      -1.1      3.560      5.855
REMARK  5 active torsions:
REMARK  status: ('A' for Active; 'I' for Inactive)
REMARK    1  A    between atoms: C_9  and  N_2 
REMARK    2  A    between atoms: C_7  and  O_10 
REMARK    3  A    between atoms: O_11  and  C_8 
REMARK    4  A    between atoms: C_12  and  C_9 
REMARK    5  A    between atoms: O_10  and  C_12 
ROOT
ATOM      1  C   UNL d   1      32.545  21.332 -21.608  0.00  0.00     0.110 C 
ENDROOT
BRANCH   1   2
ATOM      2  N   UNL d   1      32.621  22.088 -21.286  0.00  0.00    -0.266 N 
ATOM      3  C   UNL d   1      32.494  22.796 -21.683  0.00  0.00     0.296 A 
ATOM      4  S   UNL d   1      32.635  23.420 -21.141  0.00  0.00    -0.025 SA
ATOM      5  O   UNL d   1      32.268  22.884 -22.467  0.00  0.00    -0.259 OA
ATOM      6  C   UNL d   1      32.849  23.081 -20.417  0.00  0.00     0.050 A 
ATOM      7  C   UNL d   1      33.049  23.424 -19.689  0.00  0.00     0.008 A 
ATOM      8  C   UNL d   1      32.840  22.264 -20.506  0.00  0.00     0.074 A 
ATOM      9  C   UNL d   1      33.241  22.928 -19.052  0.00  0.00     0.001 A 
ATOM     10  C   UNL d   1      33.232  22.112 -19.141  0.00  0.00     0.002 A 
ATOM     11  C   UNL d   1      33.032  21.773 -19.868  0.00  0.00     0.018 A 
ENDBRANCH   1   2
BRANCH   1  12
ATOM     12  C   UNL d   1      33.136  21.021 -22.088  0.00  0.00     0.142 C 
BRANCH  12  13
ATOM     13  O   UNL d   1      33.224  20.205 -22.183  0.00  0.00    -0.302 OA
BRANCH  13  14
ATOM     14  C   UNL d   1      33.219  19.870 -22.937  0.00  0.00     0.122 A 
ATOM     15  C   UNL d   1      33.193  19.050 -23.022  0.00  0.00     0.117 A 
ATOM     16  C   UNL d   1      33.188  18.717 -23.773  0.00  0.00     0.026 A 
ATOM     17  C   UNL d   1      33.210  19.206 -24.438  0.00  0.00     0.002 A 
ATOM     18  C   UNL d   1      33.237  20.029 -24.348  0.00  0.00     0.002 A 
ATOM     19  C   UNL d   1      33.241  20.354 -23.593  0.00  0.00     0.027 A 
BRANCH  15  20
ATOM     20  O   UNL d   1      33.170  18.532 -22.374  0.00  0.00    -0.326 OA
ATOM     21  C   UNL d   1      32.958  17.742 -22.490  0.00  0.00     0.181 C 
ENDBRANCH  15  20
ENDBRANCH  13  14
ENDBRANCH  12  13
ENDBRANCH   1  12
TORSDOF 5
ENDMDL
