MODEL 1
REMARK VINA RESULT:      -7.0      0.000      0.000
REMARK  1 active torsions:
REMARK  status: ('A' for Active; 'I' for Inactive)
REMARK    1  A    between atoms: C_5  and  C_2 
ROOT
ATOM      1  N   UNL d   1      53.683  31.332  53.733  0.00  0.00    -0.217 NA
ATOM      2  C   UNL d   1      53.641  32.140  53.790  0.00  0.00     0.113 A 
ATOM      3  C   UNL d   1      53.092  31.082  53.209  0.00  0.00     0.215 A 
ATOM      4  S   UNL d   1      52.686  31.768  52.948  0.00  0.00    -0.045 SA
ATOM      5  C   UNL d   1      53.023  32.418  53.304  0.00  0.00     0.060 A 
ATOM      6  N   UNL d   1      52.933  30.289  52.986  0.00  0.00    -0.120 N 
ENDROOT
BRANCH   2   7
ATOM      7  C   UNL d   1      54.128  32.650  54.257  0.00  0.00     0.118 A 
ATOM      8  O   UNL d   1      54.807  33.078  54.011  0.00  0.00    -0.304 OA
ATOM      9  C   UNL d   1      55.089  33.499  54.678  0.00  0.00     0.123 A 
ATOM     10  C   UNL d   1      54.590  33.328  55.312  0.00  0.00     0.029 A 
ATOM     11  C   UNL d   1      54.007  32.814  55.057  0.00  0.00     0.028 A 
ENDBRANCH   2   7
TORSDOF 1
ENDMDL
MODEL 2
REMARK VINA RESULT:      -6.5      1.657      2.773
REMARK  1 active torsions:
REMARK  status: ('A' for Active; 'I' for Inactive)
REMARK    1  A    between atoms: C_5  and  C_2 
ROOT
ATOM      1  N   UNL d   1      54.423  32.669  54.455  0.00  0.00    -0.217 NA
ATOM      2  C   UNL d   1      53.697  32.609  54.099  0.00  0.00     0.113 A 
ATOM      3  C   UNL d   1      54.472  33.416  54.812  0.00  0.00     0.215 A 
ATOM      4  S   UNL d   1      53.748  33.810  54.660  0.00  0.00    -0.045 SA
ATOM      5  C   UNL d   1      53.272  33.316  54.222  0.00  0.00     0.060 A 
ATOM      6  N   UNL d   1      55.127  33.715  55.243  0.00  0.00    -0.120 N 
ENDROOT
BRANCH   2   7
ATOM      7  C   UNL d   1      53.387  31.952  53.665  0.00  0.00     0.118 A 
ATOM      8  O   UNL d   1      52.783  31.962  53.082  0.00  0.00    -0.304 OA
ATOM      9  C   UNL d   1      52.681  31.172  52.821  0.00  0.00     0.123 A 
ATOM     10  C   UNL d   1      53.212  30.699  53.237  0.00  0.00     0.029 A 
ATOM     11  C   UNL d   1      53.641  31.172  53.749  0.00  0.00     0.028 A 
ENDBRANCH   2   7
TORSDOF 1
ENDMDL
MODEL 3
REMARK VINA RESULT:      -6.4      2.054      2.962
REMARK  1 active torsions:
REMARK  status: ('A' for Active; 'I' for Inactive)
REMARK    1  A    between atoms: C_5  and  C_2 
ROOT
ATOM      1  N   UNL d   1      53.244  33.434  54.476  0.00  0.00    -0.217 NA
ATOM      2  C   UNL d   1      52.919  33.253  53.755  0.00  0.00     0.113 A 
ATOM      3  C   UNL d   1      53.954  33.012  54.549  0.00  0.00     0.215 A 
ATOM      4  S   UNL d   1      54.050  32.567  53.844  0.00  0.00    -0.045 SA
ATOM      5  C   UNL d   1      53.415  32.715  53.357  0.00  0.00     0.060 A 
ATOM      6  N   UNL d   1      54.474  33.032  55.206  0.00  0.00    -0.120 N 
ENDROOT
BRANCH   2   7
ATOM      7  C   UNL d   1      52.195  33.545  53.427  0.00  0.00     0.118 A 
ATOM      8  O   UNL d   1      51.432  33.203  53.485  0.00  0.00    -0.304 OA
ATOM      9  C   UNL d   1      50.905  33.704  53.067  0.00  0.00     0.123 A 
ATOM     10  C   UNL d   1      51.344  34.333  52.764  0.00  0.00     0.029 A 
ATOM     11  C   UNL d   1      52.126  34.237  52.983  0.00  0.00     0.028 A 
ENDBRANCH   2   7
TORSDOF 1
ENDMDL
MODEL 4
REMARK VINA RESULT:      -6.1      1.893      2.078
REMARK  1 active torsions:
REMARK  status: ('A' for Active; 'I' for Inactive)
REMARK    1  A    between atoms: C_5  and  C_2 
ROOT
ATOM      1  N   UNL d   1      52.162  33.263  53.732  0.00  0.00    -0.217 NA
ATOM      2  C   UNL d   1      52.839  33.709  53.740  0.00  0.00     0.113 A 
ATOM      3  C   UNL d   1      51.577  33.693  53.333  0.00  0.00     0.215 A 
ATOM      4  S   UNL d   1      51.922  34.420  53.097  0.00  0.00    -0.045 SA
ATOM      5  C   UNL d   1      52.697  34.430  53.347  0.00  0.00     0.060 A 
ATOM      6  N   UNL d   1      50.789  33.442  53.195  0.00  0.00    -0.120 N 
ENDROOT
BRANCH   2   7
ATOM      7  C   UNL d   1      53.587  33.508  54.082  0.00  0.00     0.118 A 
ATOM      8  O   UNL d   1      54.226  33.107  53.716  0.00  0.00    -0.304 OA
ATOM      9  C   UNL d   1      54.837  33.045  54.287  0.00  0.00     0.123 A 
ATOM     10  C   UNL d   1      54.569  33.401  54.981  0.00  0.00     0.029 A 
ATOM     11  C   UNL d   1      53.811  33.682  54.856  0.00  0.00     0.028 A 
ENDBRANCH   2   7
TORSDOF 1
ENDMDL
MODEL 5
REMARK VINA RESULT:      -6.0      1.829      2.724
REMARK  1 active torsions:
REMARK  status: ('A' for Active; 'I' for Inactive)
REMARK    1  A    between atoms: C_5  and  C_2 
ROOT
ATOM      1  N   UNL d   1      52.245  32.745  52.654  0.00  0.00    -0.217 NA
ATOM      2  C   UNL d   1      52.761  32.423  53.191  0.00  0.00     0.113 A 
ATOM      3  C   UNL d   1      52.185  33.556  52.813  0.00  0.00     0.215 A 
ATOM      4  S   UNL d   1      52.683  33.718  53.468  0.00  0.00    -0.045 SA
ATOM      5  C   UNL d   1      53.037  33.022  53.700  0.00  0.00     0.060 A 
ATOM      6  N   UNL d   1      51.711  34.107  52.394  0.00  0.00    -0.120 N 
ENDROOT
BRANCH   2   7
ATOM      7  C   UNL d   1      53.002  31.614  53.253  0.00  0.00     0.118 A 
ATOM      8  O   UNL d   1      53.654  31.306  53.683  0.00  0.00    -0.304 OA
ATOM      9  C   UNL d   1      53.654  30.476  53.568  0.00  0.00     0.123 A 
ATOM     10  C   UNL d   1      53.016  30.290  53.079  0.00  0.00     0.029 A 
ATOM     11  C   UNL d   1      52.621  30.980  52.888  0.00  0.00     0.028 A 
ENDBRANCH   2   7
TORSDOF 1
ENDMDL
MODEL 6
REMARK VINA RESULT:      -4.9      1.709      2.794
REMARK  1 active torsions:
REMARK  status: ('A' for Active; 'I' for Inactive)
REMARK    1  A    between atoms: C_5  and  C_2 
ROOT
ATOM      1  N   UNL d   1      53.301  32.777  53.631  0.00  0.00    -0.217 NA
ATOM      2  C   UNL d   1      53.783  32.128  53.699  0.00  0.00     0.113 A 
ATOM      3  C   UNL d   1      53.766  33.454  53.741  0.00  0.00     0.215 A 
ATOM      4  S   UNL d   1      54.552  33.194  53.879  0.00  0.00    -0.045 SA
ATOM      5  C   UNL d   1      54.562  32.381  53.854  0.00  0.00     0.060 A 
ATOM      6  N   UNL d   1      53.495  34.247  53.718  0.00  0.00    -0.120 N 
ENDROOT
BRANCH   2   7
ATOM      7  C   UNL d   1      53.565  31.313  53.631  0.00  0.00     0.118 A 
ATOM      8  O   UNL d   1      53.101  30.860  54.162  0.00  0.00    -0.304 OA
ATOM      9  C   UNL d   1      53.047  30.086  53.845  0.00  0.00     0.123 A 
ATOM     10  C   UNL d   1      53.470  30.075  53.137  0.00  0.00     0.029 A 
ATOM     11  C   UNL d   1      53.785  30.819  53.007  0.00  0.00     0.028 A 
ENDBRANCH   2   7
TORSDOF 1
ENDMDL
MODEL 7
REMARK VINA RESULT:      -4.3      1.483      1.763
REMARK  1 active torsions:
REMARK  status: ('A' for Active; 'I' for Inactive)
REMARK    1  A    between atoms: C_5  and  C_2 
ROOT
ATOM      1  N   UNL d   1      52.993  30.990  54.031  0.00  0.00    -0.217 NA
ATOM      2  C   UNL d   1      53.253  31.503  53.459  0.00  0.00     0.113 A 
ATOM      3  C   UNL d   1      53.282  30.236  53.847  0.00  0.00     0.215 A 
ATOM      4  S   UNL d   1      53.728  30.307  53.140  0.00  0.00    -0.045 SA
ATOM      5  C   UNL d   1      53.710  31.085  52.902  0.00  0.00     0.060 A 
ATOM      6  N   UNL d   1      53.149  29.535  54.289  0.00  0.00    -0.120 N 
ENDROOT
BRANCH   2   7
ATOM      7  C   UNL d   1      53.103  32.335  53.405  0.00  0.00     0.118 A 
ATOM      8  O   UNL d   1      53.642  32.963  53.543  0.00  0.00    -0.304 OA
ATOM      9  C   UNL d   1      53.225  33.678  53.417  0.00  0.00     0.123 A 
ATOM     10  C   UNL d   1      52.451  33.484  53.207  0.00  0.00     0.029 A 
ATOM     11  C   UNL d   1      52.378  32.669  53.200  0.00  0.00     0.028 A 
ENDBRANCH   2   7
TORSDOF 1
ENDMDL
MODEL 8
REMARK VINA RESULT:      -4.1     10.185     10.514
REMARK  1 active torsions:
REMARK  status: ('A' for Active; 'I' for Inactive)
REMARK    1  A    between atoms: C_5  and  C_2 
ROOT
ATOM      1  N   UNL d   1      45.106  29.503  59.237  0.00  0.00    -0.217 NA
ATOM      2  C   UNL d   1      45.120  29.412  58.431  0.00  0.00     0.113 A 
ATOM      3  C   UNL d   1      45.005  30.308  59.402  0.00  0.00     0.215 A 
ATOM      4  S   UNL d   1      44.957  30.707  58.665  0.00  0.00    -0.045 SA
ATOM      5  C   UNL d   1      45.028  30.157  58.069  0.00  0.00     0.060 A 
ATOM      6  N   UNL d   1      44.959  30.654  60.165  0.00  0.00    -0.120 N 
ENDROOT
BRANCH   2   7
ATOM      7  C   UNL d   1      45.212  28.693  57.994  0.00  0.00     0.118 A 
ATOM      8  O   UNL d   1      45.535  27.967  58.263  0.00  0.00    -0.304 OA
ATOM      9  C   UNL d   1      45.501  27.429  57.621  0.00  0.00     0.123 A 
ATOM     10  C   UNL d   1      45.165  27.825  56.980  0.00  0.00     0.029 A 
ATOM     11  C   UNL d   1      44.990  28.591  57.206  0.00  0.00     0.028 A 
ENDBRANCH   2   7
TORSDOF 1
ENDMDL
MODEL 9
REMARK VINA RESULT:      -4.1     10.097     10.247
REMARK  1 active torsions:
REMARK  status: ('A' for Active; 'I' for Inactive)
REMARK    1  A    between atoms: C_5  and  C_2 
ROOT
ATOM      1  N   UNL d   1      45.394  28.272  57.426  0.00  0.00    -0.217 NA
ATOM      2  C   UNL d   1      45.173  28.604  58.132  0.00  0.00     0.113 A 
ATOM      3  C   UNL d   1      45.370  27.448  57.513  0.00  0.00     0.215 A 
ATOM      4  S   UNL d   1      45.126  27.289  58.299  0.00  0.00    -0.045 SA
ATOM      5  C   UNL d   1      45.005  27.999  58.679  0.00  0.00     0.060 A 
ATOM      6  N   UNL d   1      45.557  26.884  56.920  0.00  0.00    -0.120 N 
ENDROOT
BRANCH   2   7
ATOM      7  C   UNL d   1      45.112  29.427  58.318  0.00  0.00     0.118 A 
ATOM      8  O   UNL d   1      45.425  29.826  58.986  0.00  0.00    -0.304 OA
ATOM      9  C   UNL d   1      45.213  30.633  58.914  0.00  0.00     0.123 A 
ATOM     10  C   UNL d   1      44.781  30.718  58.216  0.00  0.00     0.029 A 
ATOM     11  C   UNL d   1      44.719  29.986  57.855  0.00  0.00     0.028 A 
ENDBRANCH   2   7
TORSDOF 1
ENDMDL
