MODEL 1
REMARK VINA RESULT:      26.0      0.000      0.000
REMARK  2 active torsions:
REMARK  status: ('A' for Active; 'I' for Inactive)
REMARK    1  A    between atoms: C_11  and  C_2 
REMARK    2  A    between atoms: C_9  and  C_6 
ROOT
ATOM      1  C   UNL d   1     -57.925 -98.773 -44.369  0.00  0.00     0.045 A 
ATOM      2  C   UNL d   1     -57.195 -98.781 -44.002  0.00  0.00     0.127 A 
ATOM      3  C   UNL d   1     -58.138 -98.773 -45.166  0.00  0.00     0.010 A 
ATOM      4  O   UNL d   1     -57.312 -98.777 -43.192  0.00  0.00    -0.211 OA
ATOM      5  N   UNL d   1     -58.127 -98.767 -43.050  0.00  0.00    -0.126 NA
ATOM      6  C   UNL d   1     -58.935 -98.764 -45.378  0.00  0.00     0.065 A 
ATOM      7  C   UNL d   1     -58.509 -98.765 -43.784  0.00  0.00     0.110 A 
ATOM      8  C   UNL d   1     -59.519 -98.756 -44.793  0.00  0.00     0.008 A 
ATOM      9  C   UNL d   1     -59.306 -98.756 -43.996  0.00  0.00     0.022 A 
ENDROOT
BRANCH   2  10
ATOM     10  C   UNL d   1     -56.455 -98.790 -44.377  0.00  0.00     0.025 A 
ATOM     11  C   UNL d   1     -55.768 -98.797 -43.917  0.00  0.00     0.002 A 
ATOM     12  C   UNL d   1     -55.026 -98.807 -44.283  0.00  0.00     0.000 A 
ATOM     13  C   UNL d   1     -54.975 -98.809 -45.111  0.00  0.00     0.000 A 
ATOM     14  C   UNL d   1     -55.666 -98.801 -45.567  0.00  0.00     0.000 A 
ATOM     15  C   UNL d   1     -56.404 -98.792 -45.200  0.00  0.00     0.002 A 
ENDBRANCH   2  10
BRANCH   6  16
ATOM     16  C   UNL d   1     -59.149 -98.764 -46.175  0.00  0.00     0.211 C 
ATOM     17  O   UNL d   1     -58.567 -98.762 -46.763  0.00  0.00    -0.644 OA
ATOM     18  O   UNL d   1     -59.952 -98.765 -46.381  0.00  0.00    -0.644 OA
ENDBRANCH   6  16
TORSDOF 2
ENDMDL
