MODEL 1
REMARK VINA RESULT:      -6.8      0.000      0.000
REMARK  5 active torsions:
REMARK  status: ('A' for Active; 'I' for Inactive)
REMARK    1  A    between atoms: C_16  and  N_5 
REMARK    2  A    between atoms: C_15  and  C_6 
REMARK    3  A    between atoms: C_19  and  C_16 
REMARK    4  A    between atoms: O_20  and  C_17 
REMARK    5  A    between atoms: C_22  and  C_19 
ROOT
ATOM      1  O   UNL d   1     -41.891  15.828  16.453  0.00  0.00    -0.326 OA
ATOM      2  C   UNL d   1     -41.353  15.918  17.080  0.00  0.00     0.118 C 
ATOM      3  C   UNL d   1     -42.428  15.742  15.829  0.00  0.00     0.181 C 
ENDROOT
BRANCH   2   4
ATOM      4  C   UNL d   1     -40.794  15.420  17.440  0.00  0.00     0.045 C 
BRANCH   4   5
ATOM      5  C   UNL d   1     -39.963  15.345  17.405  0.00  0.00     0.086 C 
BRANCH   5   6
ATOM      6  N   UNL d   1     -39.565  14.929  18.011  0.00  0.00    -0.258 N 
ATOM      7  C   UNL d   1     -39.843  14.956  18.784  0.00  0.00     0.272 A 
ATOM      8  C   UNL d   1     -39.447  14.544  19.378  0.00  0.00     0.137 A 
ATOM      9  O   UNL d   1     -40.516  15.394  18.967  0.00  0.00    -0.266 OA
ATOM     10  C   UNL d   1     -38.770  14.103  19.199  0.00  0.00     0.192 A 
ATOM     11  C   UNL d   1     -39.725  14.571  20.155  0.00  0.00     0.205 A 
ATOM     12  N   UNL d   1     -38.491  14.074  18.430  0.00  0.00    -0.204 NA
ATOM     13  O   UNL d   1     -38.380  13.695  19.794  0.00  0.00    -0.289 OA
ATOM     14  C   UNL d   1     -38.888  14.489  17.828  0.00  0.00     0.152 A 
ATOM     15  C   UNL d   1     -38.662  13.725  20.568  0.00  0.00     0.107 A 
ATOM     16  C   UNL d   1     -39.335  14.164  20.743  0.00  0.00     0.062 A 
ATOM     17  C   UNL d   1     -38.264  13.310  21.169  0.00  0.00     0.049 A 
ATOM     18  C   UNL d   1     -39.617  14.194  21.520  0.00  0.00     0.007 A 
ATOM     19  C   UNL d   1     -39.219  13.781  22.114  0.00  0.00     0.024 A 
ATOM     20  C   UNL d   1     -38.547  13.342  21.940  0.00  0.00     0.096 A 
ATOM     21  O   UNL d   1     -40.398  15.010  20.330  0.00  0.00    -0.286 OA
BRANCH  14  22
ATOM     22  C   UNL d   1     -38.606  14.459  17.053  0.00  0.00     0.035 A 
ATOM     23  C   UNL d   1     -38.717  13.771  16.609  0.00  0.00     0.003 A 
ATOM     24  C   UNL d   1     -38.436  13.743  15.839  0.00  0.00     0.000 A 
ATOM     25  C   UNL d   1     -38.048  14.391  15.510  0.00  0.00     0.000 A 
ATOM     26  C   UNL d   1     -37.940  15.076  15.957  0.00  0.00     0.000 A 
ATOM     27  C   UNL d   1     -38.219  15.106  16.726  0.00  0.00     0.003 A 
ENDBRANCH  14  22
BRANCH  20  28
ATOM     28  O   UNL d   1     -38.163  12.938  22.537  0.00  0.00    -0.328 OA
ATOM     29  C   UNL d   1     -38.022  13.313  23.256  0.00  0.00     0.181 C 
ENDBRANCH  20  28
ENDBRANCH   5   6
ENDBRANCH   4   5
ENDBRANCH   2   4
TORSDOF 5
ENDMDL
MODEL 2
REMARK VINA RESULT:      -6.7      7.812      9.231
REMARK  5 active torsions:
REMARK  status: ('A' for Active; 'I' for Inactive)
REMARK    1  A    between atoms: C_16  and  N_5 
REMARK    2  A    between atoms: C_15  and  C_6 
REMARK    3  A    between atoms: C_19  and  C_16 
REMARK    4  A    between atoms: O_20  and  C_17 
REMARK    5  A    between atoms: C_22  and  C_19 
ROOT
ATOM      1  O   UNL d   1     -50.097  11.541  23.694  0.00  0.00    -0.326 OA
ATOM      2  C   UNL d   1     -49.266  11.509  23.698  0.00  0.00     0.118 C 
ATOM      3  C   UNL d   1     -50.923  11.570  23.693  0.00  0.00     0.181 C 
ENDROOT
BRANCH   2   4
ATOM      4  C   UNL d   1     -48.668  11.934  23.309  0.00  0.00     0.045 C 
BRANCH   4   5
ATOM      5  C   UNL d   1     -48.336  12.696  23.394  0.00  0.00     0.086 C 
BRANCH   5   6
ATOM      6  N   UNL d   1     -47.602  12.865  23.031  0.00  0.00    -0.258 N 
ATOM      7  C   UNL d   1     -46.958  12.368  23.149  0.00  0.00     0.272 A 
ATOM      8  C   UNL d   1     -46.237  12.539  22.788  0.00  0.00     0.137 A 
ATOM      9  O   UNL d   1     -47.032  11.700  23.625  0.00  0.00    -0.266 OA
ATOM     10  C   UNL d   1     -46.159  13.209  22.309  0.00  0.00     0.192 A 
ATOM     11  C   UNL d   1     -45.588  12.040  22.905  0.00  0.00     0.205 A 
ATOM     12  N   UNL d   1     -46.799  13.705  22.191  0.00  0.00    -0.204 NA
ATOM     13  O   UNL d   1     -45.438  13.374  21.953  0.00  0.00    -0.289 OA
ATOM     14  C   UNL d   1     -47.528  13.536  22.553  0.00  0.00     0.152 A 
ATOM     15  C   UNL d   1     -44.794  12.873  22.073  0.00  0.00     0.107 A 
ATOM     16  C   UNL d   1     -44.875  12.208  22.550  0.00  0.00     0.062 A 
ATOM     17  C   UNL d   1     -44.065  13.043  21.711  0.00  0.00     0.049 A 
ATOM     18  C   UNL d   1     -44.229  11.706  22.670  0.00  0.00     0.007 A 
ATOM     19  C   UNL d   1     -43.506  11.878  22.309  0.00  0.00     0.024 A 
ATOM     20  C   UNL d   1     -43.425  12.542  21.832  0.00  0.00     0.096 A 
ATOM     21  O   UNL d   1     -45.670  11.376  23.382  0.00  0.00    -0.286 OA
BRANCH  14  22
ATOM     22  C   UNL d   1     -48.173  14.037  22.432  0.00  0.00     0.035 A 
ATOM     23  C   UNL d   1     -48.309  14.654  22.965  0.00  0.00     0.003 A 
ATOM     24  C   UNL d   1     -48.951  15.151  22.844  0.00  0.00     0.000 A 
ATOM     25  C   UNL d   1     -49.453  15.039  22.201  0.00  0.00     0.000 A 
ATOM     26  C   UNL d   1     -49.313  14.422  21.672  0.00  0.00     0.000 A 
ATOM     27  C   UNL d   1     -48.674  13.924  21.791  0.00  0.00     0.003 A 
ENDBRANCH  14  22
BRANCH  20  28
ATOM     28  O   UNL d   1     -42.705  12.701  21.481  0.00  0.00    -0.328 OA
ATOM     29  C   UNL d   1     -42.592  13.417  21.092  0.00  0.00     0.181 C 
ENDBRANCH  20  28
ENDBRANCH   5   6
ENDBRANCH   4   5
ENDBRANCH   2   4
TORSDOF 5
ENDMDL
MODEL 3
REMARK VINA RESULT:      -6.0      1.793      4.660
REMARK  5 active torsions:
REMARK  status: ('A' for Active; 'I' for Inactive)
REMARK    1  A    between atoms: C_16  and  N_5 
REMARK    2  A    between atoms: C_15  and  C_6 
REMARK    3  A    between atoms: C_19  and  C_16 
REMARK    4  A    between atoms: O_20  and  C_17 
REMARK    5  A    between atoms: C_22  and  C_19 
ROOT
ATOM      1  O   UNL d   1     -42.774  13.134  21.422  0.00  0.00    -0.326 OA
ATOM      2  C   UNL d   1     -41.970  13.344  21.404  0.00  0.00     0.118 C 
ATOM      3  C   UNL d   1     -43.573  12.923  21.444  0.00  0.00     0.181 C 
ENDROOT
BRANCH   2   4
ATOM      4  C   UNL d   1     -41.504  13.810  20.899  0.00  0.00     0.045 C 
BRANCH   4   5
ATOM      5  C   UNL d   1     -40.925  14.401  21.010  0.00  0.00     0.086 C 
BRANCH   5   6
ATOM      6  N   UNL d   1     -40.360  14.539  20.409  0.00  0.00    -0.258 N 
ATOM      7  C   UNL d   1     -40.541  14.369  19.625  0.00  0.00     0.272 A 
ATOM      8  C   UNL d   1     -39.981  14.507  19.036  0.00  0.00     0.137 A 
ATOM      9  O   UNL d   1     -41.279  14.064  19.427  0.00  0.00    -0.266 OA
ATOM     10  C   UNL d   1     -39.238  14.813  19.231  0.00  0.00     0.192 A 
ATOM     11  C   UNL d   1     -40.161  14.337  18.248  0.00  0.00     0.205 A 
ATOM     12  N   UNL d   1     -39.055  14.983  20.011  0.00  0.00    -0.204 NA
ATOM     13  O   UNL d   1     -38.684  14.948  18.640  0.00  0.00    -0.289 OA
ATOM     14  C   UNL d   1     -39.618  14.846  20.608  0.00  0.00     0.152 A 
ATOM     15  C   UNL d   1     -38.869  14.777  17.855  0.00  0.00     0.107 A 
ATOM     16  C   UNL d   1     -39.608  14.472  17.665  0.00  0.00     0.062 A 
ATOM     17  C   UNL d   1     -38.306  14.914  17.259  0.00  0.00     0.049 A 
ATOM     18  C   UNL d   1     -39.793  14.301  16.876  0.00  0.00     0.007 A 
ATOM     19  C   UNL d   1     -39.232  14.438  16.287  0.00  0.00     0.024 A 
ATOM     20  C   UNL d   1     -38.492  14.743  16.477  0.00  0.00     0.096 A 
ATOM     21  O   UNL d   1     -40.900  14.032  18.058  0.00  0.00    -0.286 OA
BRANCH  14  22
ATOM     22  C   UNL d   1     -39.434  15.017  21.393  0.00  0.00     0.035 A 
ATOM     23  C   UNL d   1     -39.064  14.440  21.856  0.00  0.00     0.003 A 
ATOM     24  C   UNL d   1     -38.881  14.612  22.637  0.00  0.00     0.000 A 
ATOM     25  C   UNL d   1     -39.062  15.348  22.959  0.00  0.00     0.000 A 
ATOM     26  C   UNL d   1     -39.431  15.920  22.493  0.00  0.00     0.000 A 
ATOM     27  C   UNL d   1     -39.614  15.752  21.713  0.00  0.00     0.003 A 
ENDBRANCH  14  22
BRANCH  20  28
ATOM     28  O   UNL d   1     -37.946  14.874  15.884  0.00  0.00    -0.328 OA
ATOM     29  C   UNL d   1     -38.005  15.552  15.421  0.00  0.00     0.181 C 
ENDBRANCH  20  28
ENDBRANCH   5   6
ENDBRANCH   4   5
ENDBRANCH   2   4
TORSDOF 5
ENDMDL
MODEL 4
REMARK VINA RESULT:      -5.8      8.716      9.962
REMARK  5 active torsions:
REMARK  status: ('A' for Active; 'I' for Inactive)
REMARK    1  A    between atoms: C_16  and  N_5 
REMARK    2  A    between atoms: C_15  and  C_6 
REMARK    3  A    between atoms: C_19  and  C_16 
REMARK    4  A    between atoms: O_20  and  C_17 
REMARK    5  A    between atoms: C_22  and  C_19 
ROOT
ATOM      1  O   UNL d   1     -50.070  15.646  22.959  0.00  0.00    -0.326 OA
ATOM      2  C   UNL d   1     -49.285  15.382  23.034  0.00  0.00     0.118 C 
ATOM      3  C   UNL d   1     -50.849  15.911  22.885  0.00  0.00     0.181 C 
ENDROOT
BRANCH   2   4
ATOM      4  C   UNL d   1     -48.924  14.634  23.058  0.00  0.00     0.045 C 
BRANCH   4   5
ATOM      5  C   UNL d   1     -48.919  13.966  22.557  0.00  0.00     0.086 C 
BRANCH   5   6
ATOM      6  N   UNL d   1     -48.369  13.353  22.698  0.00  0.00    -0.258 N 
ATOM      7  C   UNL d   1     -47.561  13.504  22.656  0.00  0.00     0.272 A 
ATOM      8  C   UNL d   1     -47.023  12.895  22.796  0.00  0.00     0.137 A 
ATOM      9  O   UNL d   1     -47.290  14.259  22.473  0.00  0.00    -0.266 OA
ATOM     10  C   UNL d   1     -47.291  12.135  22.980  0.00  0.00     0.192 A 
ATOM     11  C   UNL d   1     -46.211  13.045  22.754  0.00  0.00     0.205 A 
ATOM     12  N   UNL d   1     -48.094  11.983  23.023  0.00  0.00    -0.204 NA
ATOM     13  O   UNL d   1     -46.750  11.534  23.118  0.00  0.00    -0.289 OA
ATOM     14  C   UNL d   1     -48.641  12.594  22.882  0.00  0.00     0.152 A 
ATOM     15  C   UNL d   1     -45.942  11.689  23.075  0.00  0.00     0.107 A 
ATOM     16  C   UNL d   1     -45.678  12.446  22.892  0.00  0.00     0.062 A 
ATOM     17  C   UNL d   1     -45.396  11.077  23.216  0.00  0.00     0.049 A 
ATOM     18  C   UNL d   1     -44.866  12.600  22.848  0.00  0.00     0.007 A 
ATOM     19  C   UNL d   1     -44.327  11.991  22.989  0.00  0.00     0.024 A 
ATOM     20  C   UNL d   1     -44.590  11.234  23.172  0.00  0.00     0.096 A 
ATOM     21  O   UNL d   1     -45.948  13.802  22.571  0.00  0.00    -0.286 OA
BRANCH  14  22
ATOM     22  C   UNL d   1     -49.450  12.439  22.926  0.00  0.00     0.035 A 
ATOM     23  C   UNL d   1     -49.888  12.377  22.227  0.00  0.00     0.003 A 
ATOM     24  C   UNL d   1     -50.693  12.223  22.273  0.00  0.00     0.000 A 
ATOM     25  C   UNL d   1     -51.062  12.132  23.003  0.00  0.00     0.000 A 
ATOM     26  C   UNL d   1     -50.621  12.195  23.697  0.00  0.00     0.000 A 
ATOM     27  C   UNL d   1     -49.818  12.348  23.655  0.00  0.00     0.003 A 
ENDBRANCH  14  22
BRANCH  20  28
ATOM     28  O   UNL d   1     -44.047  10.640  23.309  0.00  0.00    -0.328 OA
ATOM     29  C   UNL d   1     -44.299   9.923  23.623  0.00  0.00     0.181 C 
ENDBRANCH  20  28
ENDBRANCH   5   6
ENDBRANCH   4   5
ENDBRANCH   2   4
TORSDOF 5
ENDMDL
