MODEL 1
REMARK VINA RESULT:      -3.1      0.000      0.000
REMARK  3 active torsions:
REMARK  status: ('A' for Active; 'I' for Inactive)
REMARK    1  A    between atoms: C_4  and  N_1 
REMARK    2  A    between atoms: S_5  and  C_6 
REMARK    3  A    between atoms: C_9  and  S_5 
ROOT
ATOM      1  C   UNL d   1      31.658  16.284 -24.300  0.00  0.00     0.078 A 
ATOM      2  C   UNL d   1      32.201  16.885 -24.096  0.00  0.00     0.080 A 
ATOM      3  C   UNL d   1      31.911  15.637 -24.744  0.00  0.00     0.018 A 
ATOM      4  C   UNL d   1      32.988  16.825 -24.341  0.00  0.00     0.010 A 
ATOM      5  C   UNL d   1      32.696  15.580 -24.987  0.00  0.00     0.002 A 
ATOM      6  C   UNL d   1      33.238  16.177 -24.785  0.00  0.00     0.001 A 
ENDROOT
BRANCH   1   7
ATOM      7  N   UNL d   1      30.875  16.339 -24.058  0.00  0.00    -0.241 N 
ATOM      8  C   UNL d   1      30.538  15.959 -23.408  0.00  0.00     0.267 A 
ATOM      9  C   UNL d   1      29.745  16.172 -23.374  0.00  0.00     0.061 A 
ATOM     10  O   UNL d   1      30.929  15.453 -22.885  0.00  0.00    -0.267 OA
ATOM     11  C   UNL d   1      29.147  15.964 -22.853  0.00  0.00     0.005 A 
ATOM     12  C   UNL d   1      29.586  16.682 -23.997  0.00  0.00     0.061 A 
ATOM     13  C   UNL d   1      28.385  16.268 -22.954  0.00  0.00     0.000 A 
ATOM     14  C   UNL d   1      28.233  16.784 -23.587  0.00  0.00     0.000 A 
ATOM     15  C   UNL d   1      28.834  16.988 -24.105  0.00  0.00     0.005 A 
ATOM     16  C   UNL d   1      30.285  16.789 -24.424  0.00  0.00     0.267 A 
ATOM     17  O   UNL d   1      30.380  17.260 -25.097  0.00  0.00    -0.267 OA
ENDBRANCH   1   7
BRANCH   2  18
ATOM     18  S   UNL d   1      31.950  17.533 -23.651  0.00  0.00     0.160 S 
ATOM     19  O   UNL d   1      31.487  18.031 -23.326  0.00  0.00    -0.244 OA
BRANCH  18  20
ATOM     20  C   UNL d   1      32.506  18.015 -23.280  0.00  0.00     0.477 C 
ATOM     21  F   UNL d   1      32.880  17.926 -22.504  0.00  0.00    -0.158 F 
ATOM     22  F   UNL d   1      32.871  18.747 -23.563  0.00  0.00    -0.158 F 
ATOM     23  F   UNL d   1      33.012  18.454 -22.942  0.00  0.00    -0.158 F 
ENDBRANCH  18  20
ENDBRANCH   2  18
TORSDOF 3
ENDMDL
MODEL 2
REMARK VINA RESULT:      -2.8      1.863      3.483
REMARK  3 active torsions:
REMARK  status: ('A' for Active; 'I' for Inactive)
REMARK    1  A    between atoms: C_4  and  N_1 
REMARK    2  A    between atoms: S_5  and  C_6 
REMARK    3  A    between atoms: C_9  and  S_5 
ROOT
ATOM      1  C   UNL d   1      32.613  16.883 -24.318  0.00  0.00     0.078 A 
ATOM      2  C   UNL d   1      31.827  16.630 -24.442  0.00  0.00     0.080 A 
ATOM      3  C   UNL d   1      33.241  16.421 -24.584  0.00  0.00     0.018 A 
ATOM      4  C   UNL d   1      31.686  15.914 -24.832  0.00  0.00     0.010 A 
ATOM      5  C   UNL d   1      33.097  15.708 -24.972  0.00  0.00     0.002 A 
ATOM      6  C   UNL d   1      32.316  15.453 -25.097  0.00  0.00     0.001 A 
ENDROOT
BRANCH   1   7
ATOM      7  N   UNL d   1      32.758  17.594 -23.931  0.00  0.00    -0.241 N 
ATOM      8  C   UNL d   1      32.827  18.336 -24.285  0.00  0.00     0.267 A 
ATOM      9  C   UNL d   1      32.971  18.886 -23.691  0.00  0.00     0.061 A 
ATOM     10  O   UNL d   1      32.764  18.496 -25.093  0.00  0.00    -0.267 OA
ATOM     11  C   UNL d   1      33.086  19.698 -23.717  0.00  0.00     0.005 A 
ATOM     12  C   UNL d   1      32.991  18.492 -22.972  0.00  0.00     0.061 A 
ATOM     13  C   UNL d   1      33.222  20.119 -23.020  0.00  0.00     0.000 A 
ATOM     14  C   UNL d   1      33.241  19.713 -22.296  0.00  0.00     0.000 A 
ATOM     15  C   UNL d   1      33.126  18.903 -22.276  0.00  0.00     0.005 A 
ATOM     16  C   UNL d   1      32.860  17.691 -23.116  0.00  0.00     0.267 A 
ATOM     17  O   UNL d   1      32.834  17.089 -22.549  0.00  0.00    -0.267 OA
ENDBRANCH   1   7
BRANCH   2  18
ATOM     18  S   UNL d   1      31.198  17.092 -24.176  0.00  0.00     0.160 S 
ATOM     19  O   UNL d   1      30.826  17.670 -23.867  0.00  0.00    -0.244 OA
BRANCH  18  20
ATOM     20  C   UNL d   1      30.425  16.822 -24.268  0.00  0.00     0.477 C 
ATOM     21  F   UNL d   1      29.970  16.275 -23.773  0.00  0.00    -0.158 F 
ATOM     22  F   UNL d   1      29.849  17.011 -24.886  0.00  0.00    -0.158 F 
ATOM     23  F   UNL d   1      29.720  16.576 -24.351  0.00  0.00    -0.158 F 
ENDBRANCH  18  20
ENDBRANCH   2  18
TORSDOF 3
ENDMDL
MODEL 3
REMARK VINA RESULT:      -2.0      2.075      3.625
REMARK  3 active torsions:
REMARK  status: ('A' for Active; 'I' for Inactive)
REMARK    1  A    between atoms: C_4  and  N_1 
REMARK    2  A    between atoms: S_5  and  C_6 
REMARK    3  A    between atoms: C_9  and  S_5 
ROOT
ATOM      1  C   UNL d   1      30.046  17.114 -24.396  0.00  0.00     0.078 A 
ATOM      2  C   UNL d   1      29.351  16.766 -24.091  0.00  0.00     0.080 A 
ATOM      3  C   UNL d   1      29.993  17.767 -24.896  0.00  0.00     0.018 A 
ATOM      4  C   UNL d   1      28.614  17.080 -24.294  0.00  0.00     0.010 A 
ATOM      5  C   UNL d   1      29.257  18.078 -25.097  0.00  0.00     0.002 A 
ATOM      6  C   UNL d   1      28.563  17.734 -24.795  0.00  0.00     0.001 A 
ENDROOT
BRANCH   1   7
ATOM      7  N   UNL d   1      30.781  16.804 -24.197  0.00  0.00    -0.241 N 
ATOM      8  C   UNL d   1      31.127  16.128 -24.517  0.00  0.00     0.267 A 
ATOM      9  C   UNL d   1      31.860  16.025 -24.157  0.00  0.00     0.061 A 
ATOM     10  O   UNL d   1      30.797  15.641 -25.097  0.00  0.00    -0.267 OA
ATOM     11  C   UNL d   1      32.439  15.453 -24.256  0.00  0.00     0.005 A 
ATOM     12  C   UNL d   1      31.970  16.632 -23.616  0.00  0.00     0.061 A 
ATOM     13  C   UNL d   1      33.134  15.487 -23.811  0.00  0.00     0.000 A 
ATOM     14  C   UNL d   1      33.239  16.104 -23.266  0.00  0.00     0.000 A 
ATOM     15  C   UNL d   1      32.657  16.673 -23.171  0.00  0.00     0.005 A 
ATOM     16  C   UNL d   1      31.304  17.117 -23.637  0.00  0.00     0.267 A 
ATOM     17  O   UNL d   1      31.178  17.796 -23.182  0.00  0.00    -0.267 OA
ENDBRANCH   1   7
BRANCH   2  18
ATOM     18  S   UNL d   1      29.403  16.112 -23.590  0.00  0.00     0.160 S 
ATOM     19  O   UNL d   1      29.667  15.478 -23.280  0.00  0.00    -0.244 OA
BRANCH  18  20
ATOM     20  C   UNL d   1      28.825  15.989 -23.016  0.00  0.00     0.477 C 
ATOM     21  F   UNL d   1      28.071  15.568 -23.076  0.00  0.00    -0.158 F 
ATOM     22  F   UNL d   1      28.810  16.249 -22.190  0.00  0.00    -0.158 F 
ATOM     23  F   UNL d   1      28.298  15.878 -22.492  0.00  0.00    -0.158 F 
ENDBRANCH  18  20
ENDBRANCH   2  18
TORSDOF 3
ENDMDL
MODEL 4
REMARK VINA RESULT:      -1.2      1.272      1.706
REMARK  3 active torsions:
REMARK  status: ('A' for Active; 'I' for Inactive)
REMARK    1  A    between atoms: C_4  and  N_1 
REMARK    2  A    between atoms: S_5  and  C_6 
REMARK    3  A    between atoms: C_9  and  S_5 
ROOT
ATOM      1  C   UNL d   1      31.220  17.419 -24.446  0.00  0.00     0.078 A 
ATOM      2  C   UNL d   1      31.890  17.183 -24.008  0.00  0.00     0.080 A 
ATOM      3  C   UNL d   1      31.279  18.038 -24.986  0.00  0.00     0.018 A 
ATOM      4  C   UNL d   1      32.610  17.574 -24.120  0.00  0.00     0.010 A 
ATOM      5  C   UNL d   1      31.998  18.426 -25.096  0.00  0.00     0.002 A 
ATOM      6  C   UNL d   1      32.667  18.194 -24.662  0.00  0.00     0.001 A 
ENDROOT
BRANCH   1   7
ATOM      7  N   UNL d   1      30.503  17.032 -24.337  0.00  0.00    -0.241 N 
ATOM      8  C   UNL d   1      30.299  16.291 -24.635  0.00  0.00     0.267 A 
ATOM      9  C   UNL d   1      29.532  16.123 -24.391  0.00  0.00     0.061 A 
ATOM     10  O   UNL d   1      30.780  15.804 -25.097  0.00  0.00    -0.267 OA
ATOM     11  C   UNL d   1      29.049  15.473 -24.520  0.00  0.00     0.005 A 
ATOM     12  C   UNL d   1      29.258  16.754 -23.943  0.00  0.00     0.061 A 
ATOM     13  C   UNL d   1      28.287  15.453 -24.201  0.00  0.00     0.000 A 
ATOM     14  C   UNL d   1      28.017  16.095 -23.750  0.00  0.00     0.000 A 
ATOM     15  C   UNL d   1      28.504  16.742 -23.623  0.00  0.00     0.005 A 
ATOM     16  C   UNL d   1      29.857  17.320 -23.907  0.00  0.00     0.267 A 
ATOM     17  O   UNL d   1      29.821  18.047 -23.513  0.00  0.00    -0.267 OA
ENDBRANCH   1   7
BRANCH   2  18
ATOM     18  S   UNL d   1      31.832  16.563 -23.466  0.00  0.00     0.160 S 
ATOM     19  O   UNL d   1      31.524  16.024 -23.038  0.00  0.00    -0.244 OA
BRANCH  18  20
ATOM     20  C   UNL d   1      32.511  16.274 -23.100  0.00  0.00     0.477 C 
ATOM     21  F   UNL d   1      32.977  15.568 -23.283  0.00  0.00    -0.158 F 
ATOM     22  F   UNL d   1      32.949  16.598 -22.427  0.00  0.00    -0.158 F 
ATOM     23  F   UNL d   1      33.130  16.011 -22.766  0.00  0.00    -0.158 F 
ENDBRANCH  18  20
ENDBRANCH   2  18
TORSDOF 3
ENDMDL
