MODEL 1
REMARK VINA RESULT:      34.5      0.000      0.000
REMARK  5 active torsions:
REMARK  status: ('A' for Active; 'I' for Inactive)
REMARK    1  A    between atoms: C_9  and  S_1 
REMARK    2  A    between atoms: C_2  and  C_10 
REMARK       I    between atoms: C_8  and  N_15 
REMARK    3  A    between atoms: C_10  and  C_8 
REMARK    4  A    between atoms: N_15  and  C_22 
REMARK    5  A    between atoms: O_26  and  C_21 
ROOT
ATOM      1  C   UNL d   1     -54.721-102.436 -40.058  0.00  0.00     0.063 C 
ENDROOT
BRANCH   1   2
ATOM      2  C   UNL d   1     -55.422-102.583 -39.655  0.00  0.00     0.012 A 
ATOM      3  C   UNL d   1     -55.418-102.656 -38.833  0.00  0.00     0.023 A 
ATOM      4  C   UNL d   1     -56.126-102.804 -38.433  0.00  0.00     0.105 A 
ATOM      5  C   UNL d   1     -54.713-102.581 -38.419  0.00  0.00     0.004 A 
ATOM      6  C   UNL d   1     -56.128-102.878 -37.607  0.00  0.00     0.049 A 
ATOM      7  O   UNL d   1     -56.837-102.880 -38.843  0.00  0.00    -0.273 OA
ATOM      8  C   UNL d   1     -55.416-102.801 -37.197  0.00  0.00     0.096 A 
ATOM      9  C   UNL d   1     -54.712-102.653 -37.602  0.00  0.00     0.024 A 
ATOM     10  C   UNL d   1     -56.839-102.806 -39.676  0.00  0.00     0.300 A 
ATOM     11  C   UNL d   1     -56.134-102.658 -40.081  0.00  0.00     0.069 A 
ATOM     12  O   UNL d   1     -57.539-102.880 -40.093  0.00  0.00    -0.259 OA
BRANCH   8  13
ATOM     13  O   UNL d   1     -55.410-102.873 -36.381  0.00  0.00    -0.328 OA
ATOM     14  C   UNL d   1     -54.925-102.383 -35.931  0.00  0.00     0.181 C 
ENDBRANCH   8  13
ENDBRANCH   1   2
BRANCH   1  15
ATOM     15  C   UNL d   1     -54.720-101.987 -40.750  0.00  0.00     0.279 C 
ATOM     16  N   UNL d   1     -54.717-102.352 -41.486  0.00  0.00    -0.208 NA
ATOM     17  O   UNL d   1     -54.723-101.167 -40.698  0.00  0.00    -0.265 OA
BRANCH  16  18
ATOM     18  C   UNL d   1     -54.716-101.899 -42.171  0.00  0.00     0.085 A 
ATOM     19  C   UNL d   1     -54.720-102.278 -42.905  0.00  0.00     0.020 A 
ATOM     20  C   UNL d   1     -54.719-101.817 -43.594  0.00  0.00     0.015 A 
ATOM     21  C   UNL d   1     -54.715-100.998 -43.551  0.00  0.00     0.107 A 
ATOM     22  C   UNL d   1     -54.711-100.624 -42.818  0.00  0.00     0.015 A 
ATOM     23  C   UNL d   1     -54.712-101.074 -42.126  0.00  0.00     0.020 A 
BRANCH  21  24
ATOM     24  S   UNL d   1     -54.714-100.546 -44.239  0.00  0.00     0.302 S 
ATOM     25  O   UNL d   1     -54.713-100.280 -45.010  0.00  0.00    -0.197 OA
ATOM     26  O   UNL d   1     -54.712-101.318 -44.492  0.00  0.00    -0.197 OA
ATOM     27  N   UNL d   1     -54.716 -99.725 -44.182  0.00  0.00    -0.043 N 
ENDBRANCH  21  24
ENDBRANCH  16  18
ENDBRANCH   1  15
TORSDOF 5
ENDMDL
