MODEL 1
REMARK VINA RESULT:     -10.6      0.000      0.000
REMARK  1 active torsions:
REMARK  status: ('A' for Active; 'I' for Inactive)
REMARK    1  A    between atoms: C_7  and  C_5 
ROOT
ATOM      1  C   UNL d   1      52.935  32.619  53.448  0.00  0.00     0.110 A 
ATOM      2  C   UNL d   1      52.025  33.459  52.937  0.00  0.00     0.332 A 
ATOM      3  C   UNL d   1      52.422  32.186  52.970  0.00  0.00     0.060 A 
ATOM      4  S   UNL d   1      51.861  32.701  52.654  0.00  0.00    -0.018 SA
ATOM      5  C   UNL d   1      53.559  32.251  53.842  0.00  0.00     0.027 A 
ATOM      6  O   UNL d   1      52.689  33.409  53.428  0.00  0.00    -0.268 OA
ATOM      7  C   UNL d   1      52.543  31.361  52.888  0.00  0.00     0.051 A 
ATOM      8  C   UNL d   1      53.675  31.438  53.760  0.00  0.00     0.044 A 
ATOM      9  O   UNL d   1      51.604  34.149  52.763  0.00  0.00    -0.251 OA
ATOM     10  C   UNL d   1      53.167  30.993  53.283  0.00  0.00     0.196 A 
ATOM     11  O   UNL d   1      53.286  30.178  53.202  0.00  0.00    -0.286 OA
ENDROOT
BRANCH   5  12
ATOM     12  C   UNL d   1      54.067  32.696  54.319  0.00  0.00     0.004 A 
ATOM     13  C   UNL d   1      54.747  33.033  53.997  0.00  0.00     0.030 A 
ATOM     14  C   UNL d   1      55.255  33.478  54.474  0.00  0.00     0.140 A 
ATOM     15  F   UNL d   1      55.938  33.818  54.154  0.00  0.00    -0.204 F 
ATOM     16  C   UNL d   1      55.082  33.586  55.273  0.00  0.00     0.030 A 
ATOM     17  C   UNL d   1      54.402  33.249  55.596  0.00  0.00     0.002 A 
ATOM     18  C   UNL d   1      53.894  32.804  55.119  0.00  0.00     0.000 A 
ENDBRANCH   5  12
TORSDOF 1
ENDMDL
MODEL 2
REMARK VINA RESULT:     -10.5      1.727      2.970
REMARK  1 active torsions:
REMARK  status: ('A' for Active; 'I' for Inactive)
REMARK    1  A    between atoms: C_7  and  C_5 
ROOT
ATOM      1  C   UNL d   1      53.192  33.056  53.930  0.00  0.00     0.110 A 
ATOM      2  C   UNL d   1      53.908  33.785  54.795  0.00  0.00     0.332 A 
ATOM      3  C   UNL d   1      53.811  32.591  54.210  0.00  0.00     0.060 A 
ATOM      4  S   UNL d   1      54.254  33.037  54.742  0.00  0.00    -0.018 SA
ATOM      5  C   UNL d   1      52.650  32.757  53.384  0.00  0.00     0.027 A 
ATOM      6  O   UNL d   1      53.251  33.797  54.293  0.00  0.00    -0.268 OA
ATOM      7  C   UNL d   1      53.886  31.804  53.930  0.00  0.00     0.051 A 
ATOM      8  C   UNL d   1      52.726  31.982  53.111  0.00  0.00     0.044 A 
ATOM      9  O   UNL d   1      54.168  34.414  55.265  0.00  0.00    -0.251 OA
ATOM     10  C   UNL d   1      53.344  31.506  53.385  0.00  0.00     0.196 A 
ATOM     11  O   UNL d   1      53.419  30.728  53.109  0.00  0.00    -0.286 OA
ENDROOT
BRANCH   5  12
ATOM     12  C   UNL d   1      52.032  33.234  53.111  0.00  0.00     0.004 A 
ATOM     13  C   UNL d   1      52.144  33.718  52.453  0.00  0.00     0.030 A 
ATOM     14  C   UNL d   1      51.526  34.195  52.179  0.00  0.00     0.140 A 
ATOM     15  F   UNL d   1      51.634  34.682  51.520  0.00  0.00    -0.204 F 
ATOM     16  C   UNL d   1      50.797  34.186  52.565  0.00  0.00     0.030 A 
ATOM     17  C   UNL d   1      50.685  33.702  53.223  0.00  0.00     0.002 A 
ATOM     18  C   UNL d   1      51.303  33.225  53.496  0.00  0.00     0.000 A 
ENDBRANCH   5  12
TORSDOF 1
ENDMDL
MODEL 3
REMARK VINA RESULT:     -10.3      0.692      1.967
REMARK  1 active torsions:
REMARK  status: ('A' for Active; 'I' for Inactive)
REMARK    1  A    between atoms: C_7  and  C_5 
ROOT
ATOM      1  C   UNL d   1      53.200  31.979  53.555  0.00  0.00     0.110 A 
ATOM      2  C   UNL d   1      53.331  30.654  53.410  0.00  0.00     0.332 A 
ATOM      3  C   UNL d   1      52.616  31.717  53.038  0.00  0.00     0.060 A 
ATOM      4  S   UNL d   1      52.694  30.902  52.946  0.00  0.00    -0.018 SA
ATOM      5  C   UNL d   1      53.263  32.777  53.755  0.00  0.00     0.027 A 
ATOM      6  O   UNL d   1      53.645  31.320  53.787  0.00  0.00    -0.268 OA
ATOM      7  C   UNL d   1      52.081  32.275  52.714  0.00  0.00     0.051 A 
ATOM      8  C   UNL d   1      52.734  33.324  53.435  0.00  0.00     0.044 A 
ATOM      9  O   UNL d   1      53.610  29.880  53.487  0.00  0.00    -0.251 OA
ATOM     10  C   UNL d   1      52.143  33.072  52.914  0.00  0.00     0.196 A 
ATOM     11  O   UNL d   1      51.614  33.623  52.593  0.00  0.00    -0.286 OA
ENDROOT
BRANCH   5  12
ATOM     12  C   UNL d   1      53.854  33.029  54.276  0.00  0.00     0.004 A 
ATOM     13  C   UNL d   1      54.599  33.233  53.987  0.00  0.00     0.030 A 
ATOM     14  C   UNL d   1      55.190  33.484  54.508  0.00  0.00     0.140 A 
ATOM     15  F   UNL d   1      55.939  33.690  54.223  0.00  0.00    -0.204 F 
ATOM     16  C   UNL d   1      55.035  33.531  55.317  0.00  0.00     0.030 A 
ATOM     17  C   UNL d   1      54.290  33.327  55.606  0.00  0.00     0.002 A 
ATOM     18  C   UNL d   1      53.699  33.076  55.085  0.00  0.00     0.000 A 
ENDBRANCH   5  12
TORSDOF 1
ENDMDL
MODEL 4
REMARK VINA RESULT:     -10.3      1.707      3.262
REMARK  1 active torsions:
REMARK  status: ('A' for Active; 'I' for Inactive)
REMARK    1  A    between atoms: C_7  and  C_5 
ROOT
ATOM      1  C   UNL d   1      52.937  32.409  53.482  0.00  0.00     0.110 A 
ATOM      2  C   UNL d   1      53.042  31.128  53.105  0.00  0.00     0.332 A 
ATOM      3  C   UNL d   1      53.601  32.085  53.846  0.00  0.00     0.060 A 
ATOM      4  S   UNL d   1      53.668  31.297  53.616  0.00  0.00    -0.018 SA
ATOM      5  C   UNL d   1      52.726  33.196  53.608  0.00  0.00     0.027 A 
ATOM      6  O   UNL d   1      52.589  31.815  53.022  0.00  0.00    -0.268 OA
ATOM      7  C   UNL d   1      54.064  32.570  54.349  0.00  0.00     0.051 A 
ATOM      8  C   UNL d   1      53.183  33.670  54.105  0.00  0.00     0.044 A 
ATOM      9  O   UNL d   1      52.889  30.402  52.739  0.00  0.00    -0.251 OA
ATOM     10  C   UNL d   1      53.852  33.357  54.475  0.00  0.00     0.196 A 
ATOM     11  O   UNL d   1      54.310  33.835  54.974  0.00  0.00    -0.286 OA
ENDROOT
BRANCH   5  12
ATOM     12  C   UNL d   1      52.056  33.510  53.237  0.00  0.00     0.004 A 
ATOM     13  C   UNL d   1      52.121  33.856  52.491  0.00  0.00     0.030 A 
ATOM     14  C   UNL d   1      51.452  34.169  52.121  0.00  0.00     0.140 A 
ATOM     15  F   UNL d   1      51.513  34.518  51.372  0.00  0.00    -0.204 F 
ATOM     16  C   UNL d   1      50.718  34.136  52.496  0.00  0.00     0.030 A 
ATOM     17  C   UNL d   1      50.653  33.790  53.242  0.00  0.00     0.002 A 
ATOM     18  C   UNL d   1      51.323  33.477  53.613  0.00  0.00     0.000 A 
ENDBRANCH   5  12
TORSDOF 1
ENDMDL
MODEL 5
REMARK VINA RESULT:      -9.6      1.651      2.851
REMARK  1 active torsions:
REMARK  status: ('A' for Active; 'I' for Inactive)
REMARK    1  A    between atoms: C_7  and  C_5 
ROOT
ATOM      1  C   UNL d   1      52.916  32.628  53.637  0.00  0.00     0.110 A 
ATOM      2  C   UNL d   1      51.777  33.308  53.448  0.00  0.00     0.332 A 
ATOM      3  C   UNL d   1      53.063  33.425  53.783  0.00  0.00     0.060 A 
ATOM      4  S   UNL d   1      52.364  33.846  53.668  0.00  0.00    -0.018 SA
ATOM      5  C   UNL d   1      53.515  32.066  53.707  0.00  0.00     0.027 A 
ATOM      6  O   UNL d   1      52.118  32.555  53.429  0.00  0.00    -0.268 OA
ATOM      7  C   UNL d   1      53.835  33.660  54.007  0.00  0.00     0.051 A 
ATOM      8  C   UNL d   1      54.275  32.301  53.928  0.00  0.00     0.044 A 
ATOM      9  O   UNL d   1      50.988  33.485  53.277  0.00  0.00    -0.251 OA
ATOM     10  C   UNL d   1      54.435  33.098  54.078  0.00  0.00     0.196 A 
ATOM     11  O   UNL d   1      55.198  33.331  54.300  0.00  0.00    -0.286 OA
ENDROOT
BRANCH   5  12
ATOM     12  C   UNL d   1      53.355  31.269  53.557  0.00  0.00     0.004 A 
ATOM     13  C   UNL d   1      53.329  30.729  54.180  0.00  0.00     0.030 A 
ATOM     14  C   UNL d   1      53.169  29.931  54.030  0.00  0.00     0.140 A 
ATOM     15  F   UNL d   1      53.141  29.386  54.652  0.00  0.00    -0.204 F 
ATOM     16  C   UNL d   1      53.035  29.675  53.258  0.00  0.00     0.030 A 
ATOM     17  C   UNL d   1      53.062  30.215  52.635  0.00  0.00     0.002 A 
ATOM     18  C   UNL d   1      53.222  31.013  52.785  0.00  0.00     0.000 A 
ENDBRANCH   5  12
TORSDOF 1
ENDMDL
MODEL 6
REMARK VINA RESULT:      -9.1      1.873      3.279
REMARK  1 active torsions:
REMARK  status: ('A' for Active; 'I' for Inactive)
REMARK    1  A    between atoms: C_7  and  C_5 
ROOT
ATOM      1  C   UNL d   1      53.330  32.941  53.976  0.00  0.00     0.110 A 
ATOM      2  C   UNL d   1      54.095  33.262  55.028  0.00  0.00     0.332 A 
ATOM      3  C   UNL d   1      53.277  33.753  54.097  0.00  0.00     0.060 A 
ATOM      4  S   UNL d   1      53.746  33.954  54.744  0.00  0.00    -0.018 SA
ATOM      5  C   UNL d   1      52.917  32.575  53.363  0.00  0.00     0.027 A 
ATOM      6  O   UNL d   1      53.839  32.635  54.554  0.00  0.00    -0.268 OA
ATOM      7  C   UNL d   1      52.793  34.208  53.586  0.00  0.00     0.051 A 
ATOM      8  C   UNL d   1      52.442  33.025  52.861  0.00  0.00     0.044 A 
ATOM      9  O   UNL d   1      54.611  33.200  55.672  0.00  0.00    -0.251 OA
ATOM     10  C   UNL d   1      52.380  33.843  52.973  0.00  0.00     0.196 A 
ATOM     11  O   UNL d   1      51.902  34.293  52.468  0.00  0.00    -0.286 OA
ENDROOT
BRANCH   5  12
ATOM     12  C   UNL d   1      52.980  31.758  53.252  0.00  0.00     0.004 A 
ATOM     13  C   UNL d   1      52.332  31.270  53.404  0.00  0.00     0.030 A 
ATOM     14  C   UNL d   1      52.395  30.453  53.292  0.00  0.00     0.140 A 
ATOM     15  F   UNL d   1      51.748  29.960  53.444  0.00  0.00    -0.204 F 
ATOM     16  C   UNL d   1      53.104  30.125  53.029  0.00  0.00     0.030 A 
ATOM     17  C   UNL d   1      53.751  30.613  52.876  0.00  0.00     0.002 A 
ATOM     18  C   UNL d   1      53.689  31.430  52.988  0.00  0.00     0.000 A 
ENDBRANCH   5  12
TORSDOF 1
ENDMDL
