MODEL 1
REMARK VINA RESULT:      52.3      0.000      0.000
REMARK  11 active torsions:
REMARK  status: ('A' for Active; 'I' for Inactive)
REMARK    1  A    between atoms: C_2  and  N_1 
REMARK    2  A    between atoms: C_4  and  C_2 
REMARK    3  A    between atoms: C_5  and  C_2 
REMARK    4  A    between atoms: C_3  and  N_6 
REMARK    5  A    between atoms: N_15  and  C_3 
REMARK    6  A    between atoms: N_6  and  C_4 
REMARK    7  A    between atoms: C_16  and  N_7 
REMARK    8  A    between atoms: C_20  and  N_15 
REMARK    9  A    between atoms: C_19  and  C_16 
REMARK   10  A    between atoms: C_23  and  C_20 
REMARK   11  A    between atoms: C_22  and  C_23 
ROOT
ATOM      1  C   UNL d   1      45.868 -18.340  41.969  0.00  0.00     0.088 C 
ENDROOT
BRANCH   1   2
ATOM      2  N   UNL d   1      45.764 -18.219  41.160  0.00  0.00    -0.300 N 
ATOM      3  C   UNL d   1      46.421 -18.195  40.660  0.00  0.00     0.100 A 
ATOM      4  C   UNL d   1      46.317 -18.074  39.851  0.00  0.00     0.100 A 
ATOM      5  N   UNL d   1      45.562 -17.976  39.539  0.00  0.00    -0.300 N 
ATOM      6  C   UNL d   1      44.908 -18.000  40.038  0.00  0.00     0.100 A 
ATOM      7  C   UNL d   1      45.013 -18.121  40.847  0.00  0.00     0.100 A 
BRANCH   5   8
ATOM      8  C   UNL d   1      45.461 -17.855  38.729  0.00  0.00     0.080 C 
BRANCH   8   9
ATOM      9  C   UNL d   1      45.073 -17.173  38.460  0.00  0.00     0.018 A 
ATOM     10  C   UNL d   1      45.093 -16.490  38.900  0.00  0.00     0.002 A 
ATOM     11  C   UNL d   1      44.708 -15.808  38.636  0.00  0.00     0.000 A 
ATOM     12  C   UNL d   1      44.305 -15.835  37.922  0.00  0.00     0.000 A 
ATOM     13  C   UNL d   1      44.279 -16.528  37.467  0.00  0.00     0.000 A 
ATOM     14  C   UNL d   1      44.672 -17.200  37.750  0.00  0.00     0.002 A 
ENDBRANCH   8   9
ENDBRANCH   5   8
ENDBRANCH   1   2
BRANCH   1  15
ATOM     15  C   UNL d   1      45.982 -17.705  42.475  0.00  0.00     0.100 C 
ATOM     16  C   UNL d   1      46.647 -17.239  42.396  0.00  0.00     0.022 C 
BRANCH  15  17
ATOM     17  N   UNL d   1      45.427 -17.549  43.051  0.00  0.00    -0.216 NA
BRANCH  17  18
ATOM     18  C   UNL d   1      45.628 -17.080  43.704  0.00  0.00     0.221 C 
ATOM     19  S   UNL d   1      46.361 -17.187  44.064  0.00  0.00    -0.037 SA
BRANCH  18  20
ATOM     20  N   UNL d   1      45.104 -16.521  43.981  0.00  0.00    -0.216 NA
BRANCH  20  21
ATOM     21  C   UNL d   1      45.368 -15.863  44.394  0.00  0.00     0.102 C 
BRANCH  21  22
ATOM     22  C   UNL d   1      44.881 -15.194  44.438  0.00  0.00     0.021 C 
BRANCH  22  23
ATOM     23  C   UNL d   1      45.224 -14.456  44.494  0.00  0.00     0.002 A 
ATOM     24  C   UNL d   1      44.855 -13.809  44.138  0.00  0.00     0.000 A 
ATOM     25  C   UNL d   1      45.200 -13.061  44.193  0.00  0.00     0.000 A 
ATOM     26  C   UNL d   1      45.902 -12.959  44.598  0.00  0.00     0.000 A 
ATOM     27  C   UNL d   1      46.269 -13.615  44.955  0.00  0.00     0.000 A 
ATOM     28  C   UNL d   1      45.927 -14.352  44.899  0.00  0.00     0.000 A 
ENDBRANCH  22  23
ENDBRANCH  21  22
ENDBRANCH  20  21
ENDBRANCH  18  20
ENDBRANCH  17  18
ENDBRANCH  15  17
ENDBRANCH   1  15
BRANCH   1  29
ATOM     29  C   UNL d   1      45.859 -19.108  42.270  0.00  0.00     0.047 A 
ATOM     30  S   UNL d   1      45.204 -19.614  42.296  0.00  0.00    -0.085 SA
ATOM     31  C   UNL d   1      45.443 -20.319  42.638  0.00  0.00     0.035 A 
ATOM     32  C   UNL d   1      46.244 -20.257  42.826  0.00  0.00     0.007 A 
ATOM     33  C   UNL d   1      46.501 -19.506  42.597  0.00  0.00     0.009 A 
ENDBRANCH   1  29
TORSDOF 11
ENDMDL
