MODEL 1
REMARK VINA RESULT:      -8.9      0.000      0.000
REMARK  5 active torsions:
REMARK  status: ('A' for Active; 'I' for Inactive)
REMARK       I    between atoms: C_8  and  N_1 
REMARK    1  A    between atoms: C_7  and  C_3 
REMARK    2  A    between atoms: S_4  and  N_9 
REMARK    3  A    between atoms: C_21  and  S_4 
REMARK    4  A    between atoms: C_11  and  C_5 
REMARK    5  A    between atoms: N_9  and  C_20 
ROOT
ATOM      1  N   UNL d   1      52.851  32.368  53.326  0.00  0.00    -0.194 N 
ATOM      2  N   UNL d   1      52.137  32.525  52.906  0.00  0.00    -0.163 NA
ATOM      3  C   UNL d   1      53.100  33.051  53.672  0.00  0.00     0.093 A 
ATOM      4  C   UNL d   1      51.961  33.320  53.008  0.00  0.00     0.103 A 
ATOM      5  C   UNL d   1      52.554  33.662  53.484  0.00  0.00     0.041 A 
ATOM      6  C   UNL d   1      53.228  31.643  53.373  0.00  0.00     0.281 C 
ATOM      7  O   UNL d   1      53.924  31.567  53.803  0.00  0.00    -0.265 OA
ATOM      8  C   UNL d   1      52.909  30.984  52.988  0.00  0.00     0.068 C 
ENDROOT
BRANCH   4   9
ATOM      9  C   UNL d   1      51.324  33.743  52.709  0.00  0.00     0.019 A 
ATOM     10  C   UNL d   1      50.622  33.787  53.149  0.00  0.00     0.003 A 
ATOM     11  C   UNL d   1      49.988  34.207  52.852  0.00  0.00     0.020 A 
ATOM     12  C   UNL d   1      50.041  34.587  52.122  0.00  0.00     0.094 A 
ATOM     13  C   UNL d   1      50.738  34.542  51.687  0.00  0.00     0.020 A 
ATOM     14  C   UNL d   1      51.385  34.119  51.979  0.00  0.00     0.003 A 
BRANCH  12  15
ATOM     15  N   UNL d   1      49.400  35.017  51.812  0.00  0.00    -0.158 NA
BRANCH  15  16
ATOM     16  S   UNL d   1      48.841  34.636  51.357  0.00  0.00     0.286 S 
ATOM     17  O   UNL d   1      48.250  34.251  50.898  0.00  0.00    -0.198 OA
ATOM     18  O   UNL d   1      49.439  34.303  50.890  0.00  0.00    -0.198 OA
BRANCH  16  19
ATOM     19  C   UNL d   1      48.234  34.971  51.825  0.00  0.00     0.117 C 
ATOM     20  C   UNL d   1      47.577  35.312  51.475  0.00  0.00     0.014 C 
ENDBRANCH  16  19
ENDBRANCH  15  16
ENDBRANCH  12  15
ENDBRANCH   4   9
BRANCH   3  21
ATOM     21  C   UNL d   1      53.773  33.134  54.130  0.00  0.00     0.047 A 
ATOM     22  S   UNL d   1      53.812  33.083  54.956  0.00  0.00    -0.085 SA
ATOM     23  C   UNL d   1      54.594  33.202  55.184  0.00  0.00     0.035 A 
ATOM     24  C   UNL d   1      55.043  33.326  54.505  0.00  0.00     0.007 A 
ATOM     25  C   UNL d   1      54.538  33.285  53.854  0.00  0.00     0.009 A 
ENDBRANCH   3  21
TORSDOF 5
ENDMDL
MODEL 2
REMARK VINA RESULT:      -7.8      0.809      1.789
REMARK  5 active torsions:
REMARK  status: ('A' for Active; 'I' for Inactive)
REMARK       I    between atoms: C_8  and  N_1 
REMARK    1  A    between atoms: C_7  and  C_3 
REMARK    2  A    between atoms: S_4  and  N_9 
REMARK    3  A    between atoms: C_21  and  S_4 
REMARK    4  A    between atoms: C_11  and  C_5 
REMARK    5  A    between atoms: N_9  and  C_20 
ROOT
ATOM      1  N   UNL d   1      53.231  32.509  53.441  0.00  0.00    -0.194 N 
ATOM      2  N   UNL d   1      52.805  33.224  53.304  0.00  0.00    -0.163 NA
ATOM      3  C   UNL d   1      52.760  31.888  53.242  0.00  0.00     0.093 A 
ATOM      4  C   UNL d   1      52.065  33.017  53.017  0.00  0.00     0.103 A 
ATOM      5  C   UNL d   1      52.022  32.186  52.973  0.00  0.00     0.041 A 
ATOM      6  C   UNL d   1      53.997  32.457  53.728  0.00  0.00     0.281 C 
ATOM      7  O   UNL d   1      54.347  31.722  53.836  0.00  0.00    -0.265 OA
ATOM      8  C   UNL d   1      54.418  33.144  53.910  0.00  0.00     0.068 C 
ENDROOT
BRANCH   4   9
ATOM      9  C   UNL d   1      51.446  33.512  52.800  0.00  0.00     0.019 A 
ATOM     10  C   UNL d   1      51.489  33.929  52.085  0.00  0.00     0.003 A 
ATOM     11  C   UNL d   1      50.874  34.421  51.869  0.00  0.00     0.020 A 
ATOM     12  C   UNL d   1      50.214  34.506  52.356  0.00  0.00     0.094 A 
ATOM     13  C   UNL d   1      50.173  34.092  53.067  0.00  0.00     0.020 A 
ATOM     14  C   UNL d   1      50.791  33.591  53.293  0.00  0.00     0.003 A 
BRANCH  12  15
ATOM     15  N   UNL d   1      49.583  35.005  52.144  0.00  0.00    -0.158 NA
BRANCH  15  16
ATOM     16  S   UNL d   1      48.999  34.728  51.648  0.00  0.00     0.286 S 
ATOM     17  O   UNL d   1      48.383  34.449  51.147  0.00  0.00    -0.198 OA
ATOM     18  O   UNL d   1      49.571  34.375  51.162  0.00  0.00    -0.198 OA
BRANCH  16  19
ATOM     19  C   UNL d   1      48.419  35.082  52.136  0.00  0.00     0.117 C 
ATOM     20  C   UNL d   1      47.749  35.419  51.808  0.00  0.00     0.014 C 
ENDBRANCH  16  19
ENDBRANCH  15  16
ENDBRANCH  12  15
ENDBRANCH   4   9
BRANCH   3  21
ATOM     21  C   UNL d   1      52.968  31.098  53.294  0.00  0.00     0.047 A 
ATOM     22  S   UNL d   1      52.947  30.630  53.977  0.00  0.00    -0.085 SA
ATOM     23  C   UNL d   1      53.200  29.872  53.778  0.00  0.00     0.035 A 
ATOM     24  C   UNL d   1      53.379  29.865  52.974  0.00  0.00     0.007 A 
ATOM     25  C   UNL d   1      53.236  30.621  52.674  0.00  0.00     0.009 A 
ENDBRANCH   3  21
TORSDOF 5
ENDMDL
MODEL 3
REMARK VINA RESULT:      -7.6      1.303      5.263
REMARK  5 active torsions:
REMARK  status: ('A' for Active; 'I' for Inactive)
REMARK       I    between atoms: C_8  and  N_1 
REMARK    1  A    between atoms: C_7  and  C_3 
REMARK    2  A    between atoms: S_4  and  N_9 
REMARK    3  A    between atoms: C_21  and  S_4 
REMARK    4  A    between atoms: C_11  and  C_5 
REMARK    5  A    between atoms: N_9  and  C_20 
ROOT
ATOM      1  N   UNL d   1      48.886  34.851  51.949  0.00  0.00    -0.194 N 
ATOM      2  N   UNL d   1      49.597  34.409  51.857  0.00  0.00    -0.163 NA
ATOM      3  C   UNL d   1      48.895  35.207  52.670  0.00  0.00     0.093 A 
ATOM      4  C   UNL d   1      50.037  34.506  52.543  0.00  0.00     0.103 A 
ATOM      5  C   UNL d   1      49.611  35.003  53.061  0.00  0.00     0.041 A 
ATOM      6  C   UNL d   1      48.285  34.909  51.394  0.00  0.00     0.281 C 
ATOM      7  O   UNL d   1      47.619  35.361  51.555  0.00  0.00    -0.265 OA
ATOM      8  C   UNL d   1      48.348  34.512  50.672  0.00  0.00     0.068 C 
ENDROOT
BRANCH   4   9
ATOM      9  C   UNL d   1      50.771  34.188  52.727  0.00  0.00     0.019 A 
ATOM     10  C   UNL d   1      50.829  33.608  53.316  0.00  0.00     0.003 A 
ATOM     11  C   UNL d   1      51.559  33.292  53.499  0.00  0.00     0.020 A 
ATOM     12  C   UNL d   1      52.237  33.545  53.104  0.00  0.00     0.094 A 
ATOM     13  C   UNL d   1      52.178  34.122  52.519  0.00  0.00     0.020 A 
ATOM     14  C   UNL d   1      51.443  34.447  52.327  0.00  0.00     0.003 A 
BRANCH  12  15
ATOM     15  N   UNL d   1      52.985  33.229  53.283  0.00  0.00    -0.158 NA
BRANCH  15  16
ATOM     16  S   UNL d   1      53.100  32.422  53.249  0.00  0.00     0.286 S 
ATOM     17  O   UNL d   1      53.226  31.590  53.231  0.00  0.00    -0.198 OA
ATOM     18  O   UNL d   1      52.801  32.406  52.475  0.00  0.00    -0.198 OA
BRANCH  16  19
ATOM     19  C   UNL d   1      53.402  32.434  54.028  0.00  0.00     0.117 C 
ATOM     20  C   UNL d   1      54.041  31.964  54.235  0.00  0.00     0.014 C 
ENDBRANCH  16  19
ENDBRANCH  15  16
ENDBRANCH  12  15
ENDBRANCH   4   9
BRANCH   3  21
ATOM     21  C   UNL d   1      48.305  35.687  52.972  0.00  0.00     0.047 A 
ATOM     22  S   UNL d   1      47.835  35.527  53.634  0.00  0.00    -0.085 SA
ATOM     23  C   UNL d   1      47.315  36.157  53.740  0.00  0.00     0.035 A 
ATOM     24  C   UNL d   1      47.459  36.710  53.146  0.00  0.00     0.007 A 
ATOM     25  C   UNL d   1      48.070  36.421  52.672  0.00  0.00     0.009 A 
ENDBRANCH   3  21
TORSDOF 5
ENDMDL
MODEL 4
REMARK VINA RESULT:      -7.5      2.050      5.156
REMARK  5 active torsions:
REMARK  status: ('A' for Active; 'I' for Inactive)
REMARK       I    between atoms: C_8  and  N_1 
REMARK    1  A    between atoms: C_7  and  C_3 
REMARK    2  A    between atoms: S_4  and  N_9 
REMARK    3  A    between atoms: C_21  and  S_4 
REMARK    4  A    between atoms: C_11  and  C_5 
REMARK    5  A    between atoms: N_9  and  C_20 
ROOT
ATOM      1  N   UNL d   1      52.250  34.055  53.313  0.00  0.00    -0.194 N 
ATOM      2  N   UNL d   1      52.804  33.450  53.506  0.00  0.00    -0.163 NA
ATOM      3  C   UNL d   1      51.582  33.709  53.028  0.00  0.00     0.093 A 
ATOM      4  C   UNL d   1      52.453  32.730  53.330  0.00  0.00     0.103 A 
ATOM      5  C   UNL d   1      51.688  32.876  53.030  0.00  0.00     0.041 A 
ATOM      6  C   UNL d   1      52.372  34.860  53.401  0.00  0.00     0.281 C 
ATOM      7  O   UNL d   1      51.783  35.392  53.191  0.00  0.00    -0.265 OA
ATOM      8  C   UNL d   1      53.089  35.140  53.703  0.00  0.00     0.068 C 
ENDROOT
BRANCH   4   9
ATOM      9  C   UNL d   1      52.765  31.975  53.418  0.00  0.00     0.019 A 
ATOM     10  C   UNL d   1      52.535  31.375  52.895  0.00  0.00     0.003 A 
ATOM     11  C   UNL d   1      52.846  30.624  52.983  0.00  0.00     0.020 A 
ATOM     12  C   UNL d   1      53.384  30.461  53.586  0.00  0.00     0.094 A 
ATOM     13  C   UNL d   1      53.611  31.059  54.105  0.00  0.00     0.020 A 
ATOM     14  C   UNL d   1      53.302  31.821  54.023  0.00  0.00     0.003 A 
BRANCH  12  15
ATOM     15  N   UNL d   1      53.705  29.700  53.683  0.00  0.00    -0.158 NA
BRANCH  15  16
ATOM     16  S   UNL d   1      53.239  29.101  53.982  0.00  0.00     0.286 S 
ATOM     17  O   UNL d   1      52.769  28.482  54.305  0.00  0.00    -0.198 OA
ATOM     18  O   UNL d   1      52.762  29.126  53.304  0.00  0.00    -0.198 OA
BRANCH  16  19
ATOM     19  C   UNL d   1      53.717  29.072  54.666  0.00  0.00     0.117 C 
ATOM     20  C   UNL d   1      53.688  28.425  55.169  0.00  0.00     0.014 C 
ENDBRANCH  16  19
ENDBRANCH  15  16
ENDBRANCH  12  15
ENDBRANCH   4   9
BRANCH   3  21
ATOM     21  C   UNL d   1      50.911  34.105  52.777  0.00  0.00     0.047 A 
ATOM     22  S   UNL d   1      50.293  34.374  53.259  0.00  0.00    -0.085 SA
ATOM     23  C   UNL d   1      49.733  34.741  52.779  0.00  0.00     0.035 A 
ATOM     24  C   UNL d   1      49.999  34.702  52.000  0.00  0.00     0.007 A 
ATOM     25  C   UNL d   1      50.726  34.310  51.997  0.00  0.00     0.009 A 
ENDBRANCH   3  21
TORSDOF 5
ENDMDL
MODEL 5
REMARK VINA RESULT:      -7.1      1.274      1.808
REMARK  5 active torsions:
REMARK  status: ('A' for Active; 'I' for Inactive)
REMARK       I    between atoms: C_8  and  N_1 
REMARK    1  A    between atoms: C_7  and  C_3 
REMARK    2  A    between atoms: S_4  and  N_9 
REMARK    3  A    between atoms: C_21  and  S_4 
REMARK    4  A    between atoms: C_11  and  C_5 
REMARK    5  A    between atoms: N_9  and  C_20 
ROOT
ATOM      1  N   UNL d   1      52.657  34.616  53.821  0.00  0.00    -0.194 N 
ATOM      2  N   UNL d   1      51.920  34.927  53.553  0.00  0.00    -0.163 NA
ATOM      3  C   UNL d   1      52.705  33.844  53.598  0.00  0.00     0.093 A 
ATOM      4  C   UNL d   1      51.525  34.323  53.164  0.00  0.00     0.103 A 
ATOM      5  C   UNL d   1      52.003  33.640  53.184  0.00  0.00     0.041 A 
ATOM      6  C   UNL d   1      53.228  35.030  54.237  0.00  0.00     0.281 C 
ATOM      7  O   UNL d   1      53.923  34.658  54.465  0.00  0.00    -0.265 OA
ATOM      8  C   UNL d   1      53.104  35.825  54.430  0.00  0.00     0.068 C 
ENDROOT
BRANCH   4   9
ATOM      9  C   UNL d   1      50.788  34.346  52.803  0.00  0.00     0.019 A 
ATOM     10  C   UNL d   1      50.720  34.152  52.000  0.00  0.00     0.003 A 
ATOM     11  C   UNL d   1      49.986  34.175  51.642  0.00  0.00     0.020 A 
ATOM     12  C   UNL d   1      49.316  34.389  52.072  0.00  0.00     0.094 A 
ATOM     13  C   UNL d   1      49.385  34.581  52.870  0.00  0.00     0.020 A 
ATOM     14  C   UNL d   1      50.124  34.560  53.240  0.00  0.00     0.003 A 
BRANCH  12  15
ATOM     15  N   UNL d   1      48.565  34.415  51.715  0.00  0.00    -0.158 NA
BRANCH  15  16
ATOM     16  S   UNL d   1      48.369  35.042  51.232  0.00  0.00     0.286 S 
ATOM     17  O   UNL d   1      48.155  35.695  50.747  0.00  0.00    -0.198 OA
ATOM     18  O   UNL d   1      48.931  34.796  50.674  0.00  0.00    -0.198 OA
BRANCH  16  19
ATOM     19  C   UNL d   1      47.802  35.294  51.792  0.00  0.00     0.117 C 
ATOM     20  C   UNL d   1      47.105  35.649  51.549  0.00  0.00     0.014 C 
ENDBRANCH  16  19
ENDBRANCH  15  16
ENDBRANCH  12  15
ENDBRANCH   4   9
BRANCH   3  21
ATOM     21  C   UNL d   1      53.334  33.343  53.752  0.00  0.00     0.047 A 
ATOM     22  S   UNL d   1      53.413  32.844  54.408  0.00  0.00    -0.085 SA
ATOM     23  C   UNL d   1      54.128  32.440  54.339  0.00  0.00     0.035 A 
ATOM     24  C   UNL d   1      54.494  32.685  53.643  0.00  0.00     0.007 A 
ATOM     25  C   UNL d   1      54.005  33.242  53.279  0.00  0.00     0.009 A 
ENDBRANCH   3  21
TORSDOF 5
ENDMDL
