MODEL 1
REMARK VINA RESULT:      -0.7      0.000      0.000
REMARK  5 active torsions:
REMARK  status: ('A' for Active; 'I' for Inactive)
REMARK    1  A    between atoms: N_9  and  C_2 
REMARK    2  A    between atoms: N_12  and  C_6 
REMARK    3  A    between atoms: C_13  and  N_11 
REMARK    4  A    between atoms: C_18  and  N_12 
REMARK    5  A    between atoms: O_28  and  C_23 
ROOT
ATOM      1  N   UNL d   1      32.621  17.613 -22.995  0.00  0.00    -0.041 NA
ATOM      2  C   UNL d   1      32.314  18.234 -23.351  0.00  0.00     0.738 A 
ATOM      3  C   UNL d   1      32.494  16.899 -23.279  0.00  0.00     0.187 A 
ATOM      4  N   UNL d   1      31.877  18.140 -23.996  0.00  0.00    -0.041 NA
ATOM      5  C   UNL d   1      32.057  16.801 -23.924  0.00  0.00     0.094 A 
ATOM      6  C   UNL d   1      31.745  17.426 -24.287  0.00  0.00     0.185 A 
ATOM      7  N   UNL d   1      32.675  15.549 -23.206  0.00  0.00    -0.162 NA
ATOM      8  N   UNL d   1      32.806  16.275 -22.916  0.00  0.00    -0.208 N 
ATOM      9  C   UNL d   1      32.238  15.455 -23.851  0.00  0.00     0.127 A 
ATOM     10  C   UNL d   1      33.241  16.369 -22.274  0.00  0.00     0.123 C 
ENDROOT
BRANCH   2  11
ATOM     11  N   UNL d   1      32.447  18.992 -23.053  0.00  0.00    -0.134 N 
ATOM     12  C   UNL d   1      32.927  19.522 -23.466  0.00  0.00     0.117 A 
ATOM     13  C   UNL d   1      33.055  20.280 -23.160  0.00  0.00     0.100 A 
ATOM     14  N   UNL d   1      32.705  20.507 -22.444  0.00  0.00    -0.301 N 
ATOM     15  C   UNL d   1      32.228  19.976 -22.035  0.00  0.00     0.100 A 
ATOM     16  C   UNL d   1      32.098  19.220 -22.337  0.00  0.00     0.117 A 
BRANCH  14  17
ATOM     17  C   UNL d   1      32.837  21.267 -22.142  0.00  0.00     0.064 A 
ATOM     18  C   UNL d   1      33.056  21.878 -22.662  0.00  0.00     0.020 A 
ATOM     19  C   UNL d   1      33.187  22.637 -22.360  0.00  0.00     0.031 A 
ATOM     20  C   UNL d   1      33.099  22.783 -21.542  0.00  0.00     0.140 A 
ATOM     21  C   UNL d   1      32.878  22.154 -21.039  0.00  0.00     0.031 A 
ATOM     22  F   UNL d   1      33.229  23.539 -21.239  0.00  0.00    -0.204 F 
ATOM     23  C   UNL d   1      32.749  21.401 -21.342  0.00  0.00     0.020 A 
ENDBRANCH  14  17
ENDBRANCH   2  11
BRANCH   6  24
ATOM     24  N   UNL d   1      31.290  17.335 -24.958  0.00  0.00    -0.226 NA
BRANCH  24  25
ATOM     25  C   UNL d   1      30.473  17.347 -24.907  0.00  0.00     0.085 A 
ATOM     26  C   UNL d   1      30.038  16.642 -24.898  0.00  0.00     0.043 A 
ATOM     27  C   UNL d   1      29.219  16.652 -24.847  0.00  0.00     0.096 A 
ATOM     28  C   UNL d   1      28.824  17.378 -24.803  0.00  0.00     0.024 A 
ATOM     29  C   UNL d   1      29.248  18.077 -24.812  0.00  0.00     0.004 A 
ATOM     30  C   UNL d   1      30.075  18.062 -24.864  0.00  0.00     0.019 A 
BRANCH  27  31
ATOM     31  O   UNL d   1      28.791  15.952 -24.838  0.00  0.00    -0.328 OA
ATOM     32  C   UNL d   1      28.342  15.564 -24.264  0.00  0.00     0.181 C 
ENDBRANCH  27  31
ENDBRANCH  24  25
ENDBRANCH   6  24
TORSDOF 5
ENDMDL
