MODEL 1
REMARK VINA RESULT:      -9.7      0.000      0.000
REMARK  5 active torsions:
REMARK  status: ('A' for Active; 'I' for Inactive)
REMARK    1  A    between atoms: C_8  and  C_1 
REMARK    2  A    between atoms: C_6  and  O_10 
REMARK       I    between atoms: N_7  and  C_6 
REMARK    3  A    between atoms: C_15  and  C_8 
REMARK    4  A    between atoms: O_10  and  C_12 
REMARK    5  A    between atoms: C_27  and  C_18 
ROOT
ATOM      1  C   UNL d   1      53.150  32.650  53.191  0.00  0.00     0.139 A 
ATOM      2  C   UNL d   1      52.550  33.849  53.267  0.00  0.00     0.064 A 
ATOM      3  C   UNL d   1      53.277  33.461  53.284  0.00  0.00     0.220 A 
ATOM      4  C   UNL d   1      51.963  33.284  53.163  0.00  0.00     0.105 A 
ATOM      5  O   UNL d   1      52.328  32.533  53.114  0.00  0.00    -0.304 OA
ATOM      6  C   UNL d   1      51.175  33.510  53.125  0.00  0.00     0.050 A 
ATOM      7  C   UNL d   1      52.353  34.646  53.334  0.00  0.00     0.007 A 
ATOM      8  C   UNL d   1      50.980  34.297  53.191  0.00  0.00     0.107 A 
ATOM      9  O   UNL d   1      54.026  33.818  53.380  0.00  0.00    -0.284 OA
ATOM     10  C   UNL d   1      51.561  34.870  53.295  0.00  0.00     0.025 A 
ENDROOT
BRANCH   1  11
ATOM     11  C   UNL d   1      53.724  32.057  53.174  0.00  0.00     0.028 C 
BRANCH  11  12
ATOM     12  C   UNL d   1      53.537  31.295  53.427  0.00  0.00     0.002 A 
ATOM     13  C   UNL d   1      53.256  30.741  52.888  0.00  0.00     0.000 A 
ATOM     14  C   UNL d   1      53.065  29.973  53.130  0.00  0.00     0.000 A 
ATOM     15  C   UNL d   1      53.160  29.766  53.928  0.00  0.00     0.000 A 
ATOM     16  C   UNL d   1      53.444  30.325  54.472  0.00  0.00     0.000 A 
ATOM     17  C   UNL d   1      53.631  31.090  54.217  0.00  0.00     0.000 A 
BRANCH  15  18
ATOM     18  C   UNL d   1      52.972  29.001  54.179  0.00  0.00     0.000 C 
ATOM     19  C   UNL d   1      53.393  28.651  54.792  0.00  0.00     0.000 C 
ENDBRANCH  15  18
ENDBRANCH  11  12
ENDBRANCH   1  11
BRANCH   8  20
ATOM     20  O   UNL d   1      50.186  34.531  53.153  0.00  0.00    -0.259 OA
BRANCH  20  21
ATOM     21  C   UNL d   1      49.799  34.598  52.420  0.00  0.00     0.378 C 
ATOM     22  N   UNL d   1      49.089  35.004  52.362  0.00  0.00    -0.247 N 
ATOM     23  C   UNL d   1      48.750  35.352  53.042  0.00  0.00     0.112 A 
ATOM     24  C   UNL d   1      48.703  35.074  51.644  0.00  0.00     0.112 A 
ATOM     25  C   UNL d   1      48.035  35.763  52.991  0.00  0.00     0.142 A 
ATOM     26  O   UNL d   1      47.652  35.826  52.251  0.00  0.00    -0.300 OA
ATOM     27  C   UNL d   1      47.986  35.483  51.583  0.00  0.00     0.142 A 
ATOM     28  O   UNL d   1      50.133  34.255  51.751  0.00  0.00    -0.237 OA
ENDBRANCH  20  21
ENDBRANCH   8  20
TORSDOF 5
ENDMDL
MODEL 2
REMARK VINA RESULT:      -7.9      1.676      2.366
REMARK  5 active torsions:
REMARK  status: ('A' for Active; 'I' for Inactive)
REMARK    1  A    between atoms: C_8  and  C_1 
REMARK    2  A    between atoms: C_6  and  O_10 
REMARK       I    between atoms: N_7  and  C_6 
REMARK    3  A    between atoms: C_15  and  C_8 
REMARK    4  A    between atoms: O_10  and  C_12 
REMARK    5  A    between atoms: C_27  and  C_18 
ROOT
ATOM      1  C   UNL d   1      52.186  32.912  53.327  0.00  0.00     0.139 A 
ATOM      2  C   UNL d   1      51.357  33.605  52.530  0.00  0.00     0.064 A 
ATOM      3  C   UNL d   1      51.982  33.067  52.542  0.00  0.00     0.220 A 
ATOM      4  C   UNL d   1      51.166  33.789  53.308  0.00  0.00     0.105 A 
ATOM      5  O   UNL d   1      51.679  33.362  53.811  0.00  0.00    -0.304 OA
ATOM      6  C   UNL d   1      50.558  34.316  53.468  0.00  0.00     0.050 A 
ATOM      7  C   UNL d   1      50.940  33.947  51.907  0.00  0.00     0.007 A 
ATOM      8  C   UNL d   1      50.147  34.654  52.853  0.00  0.00     0.107 A 
ATOM      9  O   UNL d   1      52.355  32.729  51.875  0.00  0.00    -0.284 OA
ATOM     10  C   UNL d   1      50.330  34.475  52.072  0.00  0.00     0.025 A 
ENDROOT
BRANCH   1  11
ATOM     11  C   UNL d   1      52.783  32.407  53.593  0.00  0.00     0.028 C 
BRANCH  11  12
ATOM     12  C   UNL d   1      53.429  32.712  54.004  0.00  0.00     0.002 A 
ATOM     13  C   UNL d   1      54.139  32.847  53.612  0.00  0.00     0.000 A 
ATOM     14  C   UNL d   1      54.794  33.153  54.015  0.00  0.00     0.000 A 
ATOM     15  C   UNL d   1      54.726  33.323  54.825  0.00  0.00     0.000 A 
ATOM     16  C   UNL d   1      54.010  33.186  55.220  0.00  0.00     0.000 A 
ATOM     17  C   UNL d   1      53.362  32.880  54.806  0.00  0.00     0.000 A 
BRANCH  15  18
ATOM     18  C   UNL d   1      55.376  33.629  55.235  0.00  0.00     0.000 C 
ATOM     19  C   UNL d   1      55.561  34.428  55.180  0.00  0.00     0.000 C 
ENDBRANCH  15  18
ENDBRANCH  11  12
ENDBRANCH   1  11
BRANCH   8  20
ATOM     20  O   UNL d   1      49.532  35.187  53.011  0.00  0.00    -0.259 OA
BRANCH  20  21
ATOM     21  C   UNL d   1      48.846  35.193  52.541  0.00  0.00     0.378 C 
ATOM     22  N   UNL d   1      48.223  35.694  52.725  0.00  0.00    -0.247 N 
ATOM     23  C   UNL d   1      48.275  36.202  53.386  0.00  0.00     0.112 A 
ATOM     24  C   UNL d   1      47.545  35.706  52.267  0.00  0.00     0.112 A 
ATOM     25  C   UNL d   1      47.652  36.709  53.576  0.00  0.00     0.142 A 
ATOM     26  O   UNL d   1      46.966  36.709  53.100  0.00  0.00    -0.300 OA
ATOM     27  C   UNL d   1      46.915  36.210  52.449  0.00  0.00     0.142 A 
ATOM     28  O   UNL d   1      48.794  34.693  51.891  0.00  0.00    -0.237 OA
ENDBRANCH  20  21
ENDBRANCH   8  20
TORSDOF 5
ENDMDL
MODEL 3
REMARK VINA RESULT:      -7.3      1.975      6.111
REMARK  5 active torsions:
REMARK  status: ('A' for Active; 'I' for Inactive)
REMARK    1  A    between atoms: C_8  and  C_1 
REMARK    2  A    between atoms: C_6  and  O_10 
REMARK       I    between atoms: N_7  and  C_6 
REMARK    3  A    between atoms: C_15  and  C_8 
REMARK    4  A    between atoms: O_10  and  C_12 
REMARK    5  A    between atoms: C_27  and  C_18 
ROOT
ATOM      1  C   UNL d   1      48.954  35.232  52.420  0.00  0.00     0.139 A 
ATOM      2  C   UNL d   1      50.026  34.463  52.163  0.00  0.00     0.064 A 
ATOM      3  C   UNL d   1      49.366  34.829  51.829  0.00  0.00     0.220 A 
ATOM      4  C   UNL d   1      50.030  34.636  52.967  0.00  0.00     0.105 A 
ATOM      5  O   UNL d   1      49.366  35.115  53.136  0.00  0.00    -0.304 OA
ATOM      6  C   UNL d   1      50.628  34.344  53.446  0.00  0.00     0.050 A 
ATOM      7  C   UNL d   1      50.619  33.997  51.834  0.00  0.00     0.007 A 
ATOM      8  C   UNL d   1      51.215  33.883  53.122  0.00  0.00     0.107 A 
ATOM      9  O   UNL d   1      49.141  34.801  51.025  0.00  0.00    -0.284 OA
ATOM     10  C   UNL d   1      51.217  33.705  52.319  0.00  0.00     0.025 A 
ENDROOT
BRANCH   1  11
ATOM     11  C   UNL d   1      48.262  35.672  52.330  0.00  0.00     0.028 C 
BRANCH  11  12
ATOM     12  C   UNL d   1      47.827  35.897  52.993  0.00  0.00     0.002 A 
ATOM     13  C   UNL d   1      47.102  35.541  53.149  0.00  0.00     0.000 A 
ATOM     14  C   UNL d   1      46.657  35.759  53.812  0.00  0.00     0.000 A 
ATOM     15  C   UNL d   1      46.951  36.345  54.321  0.00  0.00     0.000 A 
ATOM     16  C   UNL d   1      47.683  36.704  54.163  0.00  0.00     0.000 A 
ATOM     17  C   UNL d   1      48.118  36.477  53.497  0.00  0.00     0.000 A 
BRANCH  15  18
ATOM     18  C   UNL d   1      46.513  36.569  54.986  0.00  0.00     0.000 C 
ATOM     19  C   UNL d   1      45.733  36.321  55.069  0.00  0.00     0.000 C 
ENDBRANCH  15  18
ENDBRANCH  11  12
ENDBRANCH   1  11
BRANCH   8  20
ATOM     20  O   UNL d   1      51.820  33.586  53.602  0.00  0.00    -0.259 OA
BRANCH  20  21
ATOM     21  C   UNL d   1      52.493  34.045  53.768  0.00  0.00     0.378 C 
ATOM     22  N   UNL d   1      53.139  33.711  54.149  0.00  0.00    -0.247 N 
ATOM     23  C   UNL d   1      53.123  32.907  54.373  0.00  0.00     0.112 A 
ATOM     24  C   UNL d   1      53.804  34.157  54.315  0.00  0.00     0.112 A 
ATOM     25  C   UNL d   1      53.769  32.565  54.756  0.00  0.00     0.142 A 
ATOM     26  O   UNL d   1      54.441  33.032  54.919  0.00  0.00    -0.300 OA
ATOM     27  C   UNL d   1      54.457  33.824  54.699  0.00  0.00     0.142 A 
ATOM     28  O   UNL d   1      52.509  34.837  53.548  0.00  0.00    -0.237 OA
ENDBRANCH  20  21
ENDBRANCH   8  20
TORSDOF 5
ENDMDL
MODEL 4
REMARK VINA RESULT:      -6.9      1.905      5.463
REMARK  5 active torsions:
REMARK  status: ('A' for Active; 'I' for Inactive)
REMARK    1  A    between atoms: C_8  and  C_1 
REMARK    2  A    between atoms: C_6  and  O_10 
REMARK       I    between atoms: N_7  and  C_6 
REMARK    3  A    between atoms: C_15  and  C_8 
REMARK    4  A    between atoms: O_10  and  C_12 
REMARK    5  A    between atoms: C_27  and  C_18 
ROOT
ATOM      1  C   UNL d   1      52.113  34.252  53.400  0.00  0.00     0.139 A 
ATOM      2  C   UNL d   1      53.272  33.641  53.693  0.00  0.00     0.064 A 
ATOM      3  C   UNL d   1      52.911  34.373  53.575  0.00  0.00     0.220 A 
ATOM      4  C   UNL d   1      52.702  33.058  53.593  0.00  0.00     0.105 A 
ATOM      5  O   UNL d   1      51.976  33.430  53.410  0.00  0.00    -0.304 OA
ATOM      6  C   UNL d   1      52.903  32.267  53.677  0.00  0.00     0.050 A 
ATOM      7  C   UNL d   1      54.048  33.436  53.879  0.00  0.00     0.007 A 
ATOM      8  C   UNL d   1      53.669  32.065  53.861  0.00  0.00     0.107 A 
ATOM      9  O   UNL d   1      53.282  35.120  53.622  0.00  0.00    -0.284 OA
ATOM     10  C   UNL d   1      54.246  32.641  53.963  0.00  0.00     0.025 A 
ENDROOT
BRANCH   1  11
ATOM     11  C   UNL d   1      51.547  34.833  53.244  0.00  0.00     0.028 C 
BRANCH  11  12
ATOM     12  C   UNL d   1      50.924  34.673  52.729  0.00  0.00     0.002 A 
ATOM     13  C   UNL d   1      50.151  34.662  53.009  0.00  0.00     0.000 A 
ATOM     14  C   UNL d   1      49.518  34.503  52.501  0.00  0.00     0.000 A 
ATOM     15  C   UNL d   1      49.671  34.352  51.700  0.00  0.00     0.000 A 
ATOM     16  C   UNL d   1      50.451  34.362  51.416  0.00  0.00     0.000 A 
ATOM     17  C   UNL d   1      51.076  34.523  51.935  0.00  0.00     0.000 A 
BRANCH  15  18
ATOM     18  C   UNL d   1      49.044  34.191  51.185  0.00  0.00     0.000 C 
ATOM     19  C   UNL d   1      48.503  34.780  50.996  0.00  0.00     0.000 C 
ENDBRANCH  15  18
ENDBRANCH  11  12
ENDBRANCH   1  11
BRANCH   8  20
ATOM     20  O   UNL d   1      53.876  31.267  53.947  0.00  0.00    -0.259 OA
BRANCH  20  21
ATOM     21  C   UNL d   1      53.510  30.682  53.484  0.00  0.00     0.378 C 
ATOM     22  N   UNL d   1      53.370  29.936  53.795  0.00  0.00    -0.247 N 
ATOM     23  C   UNL d   1      53.595  29.760  54.579  0.00  0.00     0.112 A 
ATOM     24  C   UNL d   1      53.009  29.355  53.345  0.00  0.00     0.112 A 
ATOM     25  C   UNL d   1      53.457  29.011  54.899  0.00  0.00     0.142 A 
ATOM     26  O   UNL d   1      53.088  28.429  54.427  0.00  0.00    -0.300 OA
ATOM     27  C   UNL d   1      52.866  28.601  53.655  0.00  0.00     0.142 A 
ATOM     28  O   UNL d   1      53.288  30.854  52.712  0.00  0.00    -0.237 OA
ENDBRANCH  20  21
ENDBRANCH   8  20
TORSDOF 5
ENDMDL
