MODEL 1
REMARK VINA RESULT:      -6.4      0.000      0.000
REMARK  5 active torsions:
REMARK  status: ('A' for Active; 'I' for Inactive)
REMARK    1  A    between atoms: C_2  and  S_1 
REMARK    2  A    between atoms: N_3  and  C_14 
REMARK    3  A    between atoms: C_9  and  N_3 
REMARK    4  A    between atoms: N_8  and  C_7 
REMARK    5  A    between atoms: C_15  and  C_9 
ROOT
ATOM      1  N   UNL d   1     -47.788  13.103  22.802  0.00  0.00    -0.244 NA
ENDROOT
BRANCH   1   2
ATOM      2  C   UNL d   1     -48.393  13.671  22.830  0.00  0.00     0.082 A 
ATOM      3  C   UNL d   1     -49.145  13.435  23.074  0.00  0.00     0.020 A 
ATOM      4  C   UNL d   1     -49.744  14.002  23.101  0.00  0.00     0.015 A 
ATOM      5  C   UNL d   1     -49.597  14.773  22.891  0.00  0.00     0.107 A 
ATOM      6  C   UNL d   1     -48.845  15.009  22.647  0.00  0.00     0.015 A 
ATOM      7  C   UNL d   1     -48.246  14.443  22.620  0.00  0.00     0.020 A 
BRANCH   5   8
ATOM      8  S   UNL d   1     -50.207  15.342  22.920  0.00  0.00     0.302 S 
ATOM      9  O   UNL d   1     -50.556  14.996  22.252  0.00  0.00    -0.197 OA
ATOM     10  O   UNL d   1     -50.817  15.901  22.939  0.00  0.00    -0.197 OA
ATOM     11  N   UNL d   1     -49.860  15.683  23.582  0.00  0.00    -0.043 N 
ENDBRANCH   5   8
ENDBRANCH   1   2
BRANCH   1  12
ATOM     12  C   UNL d   1     -47.127  13.178  23.269  0.00  0.00     0.099 C 
BRANCH  12  13
ATOM     13  C   UNL d   1     -46.547  12.588  23.288  0.00  0.00     0.019 A 
ATOM     14  C   UNL d   1     -46.677  11.864  23.694  0.00  0.00     0.003 A 
ATOM     15  C   UNL d   1     -46.082  11.299  23.695  0.00  0.00     0.018 A 
ATOM     16  C   UNL d   1     -45.374  11.419  23.315  0.00  0.00     0.064 A 
ATOM     17  C   UNL d   1     -45.245  12.143  22.909  0.00  0.00     0.018 A 
ATOM     18  C   UNL d   1     -45.826  12.733  22.890  0.00  0.00     0.003 A 
BRANCH  16  19
ATOM     19  N   UNL d   1     -44.806  10.823  23.343  0.00  0.00    -0.301 N 
ATOM     20  C   UNL d   1     -44.053  10.952  23.011  0.00  0.00     0.100 C 
ATOM     21  C   UNL d   1     -45.002  10.116  23.698  0.00  0.00     0.100 C 
ENDBRANCH  16  19
ENDBRANCH  12  13
ENDBRANCH   1  12
TORSDOF 5
ENDMDL
MODEL 2
REMARK VINA RESULT:      -6.1      2.917      5.367
REMARK  5 active torsions:
REMARK  status: ('A' for Active; 'I' for Inactive)
REMARK    1  A    between atoms: C_2  and  S_1 
REMARK    2  A    between atoms: N_3  and  C_14 
REMARK    3  A    between atoms: C_9  and  N_3 
REMARK    4  A    between atoms: N_8  and  C_7 
REMARK    5  A    between atoms: C_15  and  C_9 
ROOT
ATOM      1  N   UNL d   1     -47.278  13.016  23.236  0.00  0.00    -0.244 NA
ENDROOT
BRANCH   1   2
ATOM      2  C   UNL d   1     -46.651  12.474  23.270  0.00  0.00     0.082 A 
ATOM      3  C   UNL d   1     -45.933  12.679  22.916  0.00  0.00     0.020 A 
ATOM      4  C   UNL d   1     -45.311  12.139  22.951  0.00  0.00     0.015 A 
ATOM      5  C   UNL d   1     -45.401  11.423  23.325  0.00  0.00     0.107 A 
ATOM      6  C   UNL d   1     -46.118  11.218  23.679  0.00  0.00     0.015 A 
ATOM      7  C   UNL d   1     -46.741  11.758  23.644  0.00  0.00     0.020 A 
BRANCH   5   8
ATOM      8  S   UNL d   1     -44.768  10.881  23.358  0.00  0.00     0.302 S 
ATOM      9  O   UNL d   1     -44.269  11.449  23.016  0.00  0.00    -0.197 OA
ATOM     10  O   UNL d   1     -44.132  10.351  23.385  0.00  0.00    -0.197 OA
ATOM     11  N   UNL d   1     -45.263  10.319  23.696  0.00  0.00    -0.043 N 
ENDBRANCH   5   8
ENDBRANCH   1   2
BRANCH   1  12
ATOM     12  C   UNL d   1     -47.719  13.098  22.557  0.00  0.00     0.099 C 
BRANCH  12  13
ATOM     13  C   UNL d   1     -48.445  13.493  22.563  0.00  0.00     0.019 A 
ATOM     14  C   UNL d   1     -48.517  14.266  22.886  0.00  0.00     0.003 A 
ATOM     15  C   UNL d   1     -49.251  14.632  22.877  0.00  0.00     0.018 A 
ATOM     16  C   UNL d   1     -49.909  14.270  22.567  0.00  0.00     0.064 A 
ATOM     17  C   UNL d   1     -49.837  13.497  22.245  0.00  0.00     0.018 A 
ATOM     18  C   UNL d   1     -49.110  13.102  22.239  0.00  0.00     0.003 A 
BRANCH  16  19
ATOM     19  N   UNL d   1     -50.626  14.676  22.580  0.00  0.00    -0.301 N 
ATOM     20  C   UNL d   1     -50.887  15.032  23.287  0.00  0.00     0.100 C 
ATOM     21  C   UNL d   1     -51.060  14.718  21.892  0.00  0.00     0.100 C 
ENDBRANCH  16  19
ENDBRANCH  12  13
ENDBRANCH   1  12
TORSDOF 5
ENDMDL
MODEL 3
REMARK VINA RESULT:      -5.9      2.993      5.268
REMARK  5 active torsions:
REMARK  status: ('A' for Active; 'I' for Inactive)
REMARK    1  A    between atoms: C_2  and  S_1 
REMARK    2  A    between atoms: N_3  and  C_14 
REMARK    3  A    between atoms: C_9  and  N_3 
REMARK    4  A    between atoms: N_8  and  C_7 
REMARK    5  A    between atoms: C_15  and  C_9 
ROOT
ATOM      1  N   UNL d   1     -47.018  13.502  23.001  0.00  0.00    -0.244 NA
ENDROOT
BRANCH   1   2
ATOM      2  C   UNL d   1     -46.276  13.226  22.751  0.00  0.00     0.082 A 
ATOM      3  C   UNL d   1     -45.759  13.758  22.390  0.00  0.00     0.020 A 
ATOM      4  C   UNL d   1     -45.022  13.481  22.142  0.00  0.00     0.015 A 
ATOM      5  C   UNL d   1     -44.811  12.704  22.252  0.00  0.00     0.107 A 
ATOM      6  C   UNL d   1     -45.328  12.173  22.613  0.00  0.00     0.015 A 
ATOM      7  C   UNL d   1     -46.065  12.449  22.860  0.00  0.00     0.020 A 
BRANCH   5   8
ATOM      8  S   UNL d   1     -44.064  12.430  21.999  0.00  0.00     0.302 S 
ATOM      9  O   UNL d   1     -44.111  11.808  22.547  0.00  0.00    -0.197 OA
ATOM     10  O   UNL d   1     -43.324  12.149  21.757  0.00  0.00    -0.197 OA
ATOM     11  N   UNL d   1     -44.019  13.046  21.458  0.00  0.00    -0.043 N 
ENDBRANCH   5   8
ENDBRANCH   1   2
BRANCH   1  12
ATOM     12  C   UNL d   1     -47.531  13.846  22.473  0.00  0.00     0.099 C 
BRANCH  12  13
ATOM     13  C   UNL d   1     -48.295  14.068  22.701  0.00  0.00     0.019 A 
ATOM     14  C   UNL d   1     -48.924  13.512  22.713  0.00  0.00     0.003 A 
ATOM     15  C   UNL d   1     -49.670  13.763  22.944  0.00  0.00     0.018 A 
ATOM     16  C   UNL d   1     -49.818  14.531  23.160  0.00  0.00     0.064 A 
ATOM     17  C   UNL d   1     -49.189  15.088  23.148  0.00  0.00     0.018 A 
ATOM     18  C   UNL d   1     -48.425  14.865  22.920  0.00  0.00     0.003 A 
BRANCH  16  19
ATOM     19  N   UNL d   1     -50.583  14.738  23.385  0.00  0.00    -0.301 N 
ATOM     20  C   UNL d   1     -50.846  15.522  23.290  0.00  0.00     0.100 C 
ATOM     21  C   UNL d   1     -51.064  14.159  23.698  0.00  0.00     0.100 C 
ENDBRANCH  16  19
ENDBRANCH  12  13
ENDBRANCH   1  12
TORSDOF 5
ENDMDL
