MODEL 1
REMARK VINA RESULT:      66.4      0.000      0.000
REMARK  3 active torsions:
REMARK  status: ('A' for Active; 'I' for Inactive)
REMARK    1  A    between atoms: C_9  and  C_1 
REMARK    2  A    between atoms: C_11  and  N_5 
REMARK    3  A    between atoms: N_8  and  C_9 
ROOT
ATOM      1  N   UNL d   1     -48.434  28.256  34.750  0.00  0.00    -0.301 N 
ATOM      2  N   UNL d   1     -49.040  27.050  33.792  0.00  0.00    -0.300 N 
ATOM      3  C   UNL d   1     -48.848  27.621  35.090  0.00  0.00     0.100 A 
ATOM      4  C   UNL d   1     -48.324  28.284  33.929  0.00  0.00     0.100 A 
ATOM      5  C   UNL d   1     -49.156  27.011  34.608  0.00  0.00     0.100 A 
ATOM      6  C   UNL d   1     -48.627  27.684  33.465  0.00  0.00     0.100 A 
ENDROOT
BRANCH   2   7
ATOM      7  C   UNL d   1     -49.341  26.450  33.306  0.00  0.00     0.084 C 
BRANCH   7   8
ATOM      8  C   UNL d   1     -50.150  26.314  33.307  0.00  0.00     0.059 A 
ATOM      9  C   UNL d   1     -50.420  25.531  33.308  0.00  0.00     0.214 A 
ATOM     10  C   UNL d   1     -51.241  25.385  33.308  0.00  0.00     0.121 A 
ATOM     11  O   UNL d   1     -49.896  24.904  33.308  0.00  0.00    -0.285 OA
ATOM     12  N   UNL d   1     -51.511  24.602  33.309  0.00  0.00    -0.241 NA
ATOM     13  C   UNL d   1     -51.776  26.013  33.307  0.00  0.00     0.032 A 
ATOM     14  C   UNL d   1     -52.329  24.458  33.309  0.00  0.00     0.099 A 
ATOM     15  C   UNL d   1     -52.864  25.086  33.309  0.00  0.00     0.021 A 
ATOM     16  C   UNL d   1     -52.581  25.858  33.308  0.00  0.00     0.004 A 
ATOM     17  C   UNL d   1     -51.496  26.782  33.307  0.00  0.00     0.059 A 
ATOM     18  C   UNL d   1     -50.685  26.942  33.306  0.00  0.00     0.016 A 
ATOM     19 CL   UNL d   1     -52.036  27.416  33.306  0.00  0.00    -0.082 Cl
ENDBRANCH   7   8
ENDBRANCH   2   7
BRANCH   1  20
ATOM     20  C   UNL d   1     -48.136  28.848  35.227  0.00  0.00     0.064 A 
ATOM     21  C   UNL d   1     -48.125  29.624  34.951  0.00  0.00     0.020 A 
ATOM     22  C   UNL d   1     -47.824  30.232  35.429  0.00  0.00     0.031 A 
ATOM     23  C   UNL d   1     -47.534  30.055  36.190  0.00  0.00     0.140 A 
ATOM     24  C   UNL d   1     -47.550  29.274  36.457  0.00  0.00     0.031 A 
ATOM     25  F   UNL d   1     -47.238  30.657  36.660  0.00  0.00    -0.204 F 
ATOM     26  C   UNL d   1     -47.851  28.674  35.976  0.00  0.00     0.020 A 
ENDBRANCH   1  20
TORSDOF 3
ENDMDL
