MODEL 1
REMARK VINA RESULT:      -4.9      0.000      0.000
REMARK  3 active torsions:
REMARK  status: ('A' for Active; 'I' for Inactive)
REMARK    1  A    between atoms: C_8  and  S_1 
REMARK    2  A    between atoms: N_10  and  S_1 
REMARK    3  A    between atoms: C_17  and  N_10 
ROOT
ATOM      1  C   UNL d   1      58.892  -0.875  29.931  0.00  0.00     0.043 A 
ATOM      2  C   UNL d   1      58.937  -1.652  29.663  0.00  0.00     0.196 A 
ATOM      3  C   UNL d   1      60.192  -0.615  29.398  0.00  0.00     0.196 A 
ATOM      4  C   UNL d   1      59.520  -0.356  29.799  0.00  0.00     0.042 A 
ATOM      5  C   UNL d   1      59.609  -1.913  29.260  0.00  0.00     0.042 A 
ATOM      6  C   UNL d   1      60.237  -1.395  29.128  0.00  0.00     0.042 A 
ATOM      7  C   UNL d   1      58.177   0.160  30.600  0.00  0.00     0.105 A 
ATOM      8  C   UNL d   1      58.222  -0.617  30.331  0.00  0.00     0.016 A 
ATOM      9  C   UNL d   1      59.477   0.421  30.066  0.00  0.00     0.004 A 
ATOM     10  O   UNL d   1      58.309  -2.171  29.795  0.00  0.00    -0.287 OA
ATOM     11  O   UNL d   1      60.819  -0.096  29.265  0.00  0.00    -0.287 OA
ATOM     12  C   UNL d   1      58.805   0.679  30.467  0.00  0.00     0.013 A 
ATOM     13  C   UNL d   1      59.654  -2.691  28.992  0.00  0.00     0.003 A 
ATOM     14  C   UNL d   1      60.909  -1.653  28.727  0.00  0.00     0.003 A 
ATOM     15  C   UNL d   1      60.956  -2.437  28.455  0.00  0.00     0.000 A 
ATOM     16  C   UNL d   1      60.329  -2.956  28.587  0.00  0.00     0.000 A 
ENDROOT
BRANCH   7  17
ATOM     17  S   UNL d   1      57.493   0.423  31.008  0.00  0.00     0.285 S 
ATOM     18  O   UNL d   1      57.016   0.179  30.367  0.00  0.00    -0.198 OA
ATOM     19  O   UNL d   1      57.974   0.663  31.643  0.00  0.00    -0.198 OA
BRANCH  17  20
ATOM     20  N   UNL d   1      56.814   0.682  31.411  0.00  0.00    -0.158 NA
BRANCH  20  21
ATOM     21  C   UNL d   1      56.554   0.281  32.086  0.00  0.00     0.094 A 
ATOM     22  C   UNL d   1      56.584   0.660  32.822  0.00  0.00     0.020 A 
ATOM     23  C   UNL d   1      56.324   0.262  33.505  0.00  0.00     0.002 A 
ATOM     24  C   UNL d   1      56.035  -0.513  33.449  0.00  0.00     0.000 A 
ATOM     25  C   UNL d   1      56.007  -0.891  32.701  0.00  0.00     0.002 A 
ATOM     26  C   UNL d   1      56.266  -0.490  32.030  0.00  0.00     0.020 A 
ENDBRANCH  20  21
ENDBRANCH  17  20
ENDBRANCH   7  17
TORSDOF 3
ENDMDL
MODEL 2
REMARK VINA RESULT:      -3.1      0.873      1.766
REMARK  3 active torsions:
REMARK  status: ('A' for Active; 'I' for Inactive)
REMARK    1  A    between atoms: C_8  and  S_1 
REMARK    2  A    between atoms: N_10  and  S_1 
REMARK    3  A    between atoms: C_17  and  N_10 
ROOT
ATOM      1  C   UNL d   1      58.385  -0.462  30.342  0.00  0.00     0.043 A 
ATOM      2  C   UNL d   1      59.034  -0.149  29.944  0.00  0.00     0.196 A 
ATOM      3  C   UNL d   1      58.637  -1.739  29.752  0.00  0.00     0.196 A 
ATOM      4  C   UNL d   1      58.186  -1.257  30.246  0.00  0.00     0.042 A 
ATOM      5  C   UNL d   1      59.487  -0.630  29.448  0.00  0.00     0.042 A 
ATOM      6  C   UNL d   1      59.288  -1.425  29.352  0.00  0.00     0.042 A 
ATOM      7  C   UNL d   1      57.286  -0.295  31.234  0.00  0.00     0.105 A 
ATOM      8  C   UNL d   1      57.935   0.018  30.836  0.00  0.00     0.016 A 
ATOM      9  C   UNL d   1      57.538  -1.572  30.644  0.00  0.00     0.004 A 
ATOM     10  O   UNL d   1      59.233   0.646  30.040  0.00  0.00    -0.287 OA
ATOM     11  O   UNL d   1      58.438  -2.534  29.656  0.00  0.00    -0.287 OA
ATOM     12  C   UNL d   1      57.087  -1.090  31.138  0.00  0.00     0.013 A 
ATOM     13  C   UNL d   1      60.136  -0.316  29.050  0.00  0.00     0.003 A 
ATOM     14  C   UNL d   1      59.739  -1.906  28.858  0.00  0.00     0.003 A 
ATOM     15  C   UNL d   1      60.394  -1.593  28.455  0.00  0.00     0.000 A 
ATOM     16  C   UNL d   1      60.593  -0.798  28.551  0.00  0.00     0.000 A 
ENDROOT
BRANCH   7  17
ATOM     17  S   UNL d   1      56.828   0.196  31.736  0.00  0.00     0.285 S 
ATOM     18  O   UNL d   1      56.165   0.087  31.242  0.00  0.00    -0.198 OA
ATOM     19  O   UNL d   1      57.493   0.300  32.226  0.00  0.00    -0.198 OA
BRANCH  17  20
ATOM     20  N   UNL d   1      56.373   0.682  32.234  0.00  0.00    -0.158 NA
BRANCH  20  21
ATOM     21  C   UNL d   1      56.117   0.401  32.968  0.00  0.00     0.094 A 
ATOM     22  C   UNL d   1      55.467  -0.111  33.006  0.00  0.00     0.020 A 
ATOM     23  C   UNL d   1      55.205  -0.398  33.742  0.00  0.00     0.002 A 
ATOM     24  C   UNL d   1      55.595  -0.171  34.438  0.00  0.00     0.000 A 
ATOM     25  C   UNL d   1      56.252   0.347  34.393  0.00  0.00     0.002 A 
ATOM     26  C   UNL d   1      56.505   0.626  33.660  0.00  0.00     0.020 A 
ENDBRANCH  20  21
ENDBRANCH  17  20
ENDBRANCH   7  17
TORSDOF 3
ENDMDL
