MODEL 1
REMARK VINA RESULT:     139.0      0.000      0.000
REMARK  9 active torsions:
REMARK  status: ('A' for Active; 'I' for Inactive)
REMARK    1  A    between atoms: C_2  and  C_1 
REMARK    2  A    between atoms: C_3  and  C_1 
REMARK    3  A    between atoms: C_12  and  C_1 
REMARK    4  A    between atoms: C_13  and  N_4 
REMARK    5  A    between atoms: C_14  and  N_5 
REMARK    6  A    between atoms: C_17  and  C_12 
REMARK    7  A    between atoms: N_16  and  C_15 
REMARK    8  A    between atoms: C_32  and  N_16 
REMARK    9  A    between atoms: C_33  and  N_16 
ROOT
ATOM      1  C   UNL d   1     -54.978-101.000 -41.212  0.00  0.00     0.075 C 
ENDROOT
BRANCH   1   2
ATOM      2  C   UNL d   1     -54.958-100.180 -41.131  0.00  0.00     0.191 A 
ATOM      3  N   UNL d   1     -55.178 -99.636 -41.697  0.00  0.00    -0.192 N 
ATOM      4  N   UNL d   1     -55.070 -98.885 -41.385  0.00  0.00    -0.039 NA
ATOM      5  N   UNL d   1     -54.783 -98.969 -40.625  0.00  0.00    -0.022 NA
ATOM      6  N   UNL d   1     -54.713 -99.758 -40.466  0.00  0.00    -0.108 NA
BRANCH   3   7
ATOM      7  C   UNL d   1     -55.463 -99.767 -42.459  0.00  0.00     0.086 A 
ATOM      8  C   UNL d   1     -55.105-100.304 -42.960  0.00  0.00     0.019 A 
ATOM      9  C   UNL d   1     -55.396-100.430 -43.721  0.00  0.00     0.002 A 
ATOM     10  C   UNL d   1     -56.045-100.019 -43.980  0.00  0.00     0.000 A 
ATOM     11  C   UNL d   1     -56.419 -99.473 -43.488  0.00  0.00     0.002 A 
ATOM     12  C   UNL d   1     -56.340-100.146 -44.753  0.00  0.00     0.000 C 
ATOM     13  C   UNL d   1     -56.128 -99.347 -42.727  0.00  0.00     0.019 A 
ENDBRANCH   3   7
ENDBRANCH   1   2
BRANCH   1  14
ATOM     14  C   UNL d   1     -55.126-101.324 -41.949  0.00  0.00     0.191 A 
ATOM     15  N   UNL d   1     -55.743-101.847 -42.041  0.00  0.00    -0.192 N 
ATOM     16  N   UNL d   1     -55.761-102.078 -42.823  0.00  0.00    -0.039 NA
ATOM     17  N   UNL d   1     -55.165-101.707 -43.219  0.00  0.00    -0.022 NA
ATOM     18  N   UNL d   1     -54.766-101.235 -42.676  0.00  0.00    -0.108 NA
BRANCH  15  19
ATOM     19  C   UNL d   1     -56.249-102.093 -41.454  0.00  0.00     0.086 A 
ATOM     20  C   UNL d   1     -56.017-102.062 -40.666  0.00  0.00     0.019 A 
ATOM     21  C   UNL d   1     -56.518-102.306 -40.068  0.00  0.00     0.002 A 
ATOM     22  C   UNL d   1     -57.271-102.589 -40.270  0.00  0.00     0.000 A 
ATOM     23  C   UNL d   1     -57.508-102.623 -41.054  0.00  0.00     0.002 A 
ATOM     24  C   UNL d   1     -57.793-102.843 -39.663  0.00  0.00     0.000 C 
ATOM     25  C   UNL d   1     -56.996-102.374 -41.648  0.00  0.00     0.019 A 
ENDBRANCH  15  19
ENDBRANCH   1  14
BRANCH   1  26
ATOM     26  C   UNL d   1     -54.846-101.709 -40.535  0.00  0.00     0.006 C 
BRANCH  26  27
ATOM     27  C   UNL d   1     -54.917-101.891 -39.721  0.00  0.00     0.000 A 
ATOM     28  C   UNL d   1     -54.885-102.661 -39.297  0.00  0.00     0.002 A 
ATOM     29  C   UNL d   1     -54.978-102.689 -38.419  0.00  0.00     0.018 A 
ATOM     30  C   UNL d   1     -55.105-101.942 -37.958  0.00  0.00     0.064 A 
ATOM     31  C   UNL d   1     -55.137-101.163 -38.390  0.00  0.00     0.018 A 
ATOM     32  C   UNL d   1     -55.045-101.136 -39.260  0.00  0.00     0.002 A 
BRANCH  30  33
ATOM     33  N   UNL d   1     -55.199-101.974 -37.075  0.00  0.00    -0.304 N 
BRANCH  33  34
ATOM     34  C   UNL d   1     -55.771-102.543 -36.717  0.00  0.00     0.080 C 
ATOM     35  C   UNL d   1     -56.043-102.434 -35.880  0.00  0.00     0.021 C 
ENDBRANCH  33  34
BRANCH  33  36
ATOM     36  C   UNL d   1     -54.720-101.437 -36.560  0.00  0.00     0.080 C 
ATOM     37  C   UNL d   1     -54.980-101.267 -35.732  0.00  0.00     0.021 C 
ENDBRANCH  33  36
ENDBRANCH  30  33
ENDBRANCH  26  27
ENDBRANCH   1  26
TORSDOF 9
ENDMDL
