MODEL 1
REMARK VINA RESULT:      -6.7      0.000      0.000
REMARK  5 active torsions:
REMARK  status: ('A' for Active; 'I' for Inactive)
REMARK    1  A    between atoms: C_6  and  N_1 
REMARK    2  A    between atoms: O_9  and  C_6 
REMARK    3  A    between atoms: C_8  and  O_9 
REMARK    4  A    between atoms: C_12  and  C_8 
REMARK    5  A    between atoms: C_14  and  C_12 
ROOT
ATOM      1  N   UNL d   1     -41.716-122.684 -50.776  0.00  0.00    -0.150 N 
ATOM      2  N   UNL d   1     -41.123-123.228 -50.595  0.00  0.00    -0.055 NA
ATOM      3  C   UNL d   1     -42.315-122.511 -50.229  0.00  0.00     0.285 A 
ATOM      4  N   UNL d   1     -41.123-123.604 -49.865  0.00  0.00    -0.130 NA
ATOM      5  C   UNL d   1     -42.301-122.897 -49.500  0.00  0.00     0.077 A 
ATOM      6  C   UNL d   1     -41.708-123.441 -49.319  0.00  0.00     0.109 A 
ATOM      7  O   UNL d   1     -42.902-121.972 -50.409  0.00  0.00    -0.265 OA
ATOM      8  C   UNL d   1     -42.892-122.732 -48.950  0.00  0.00     0.006 A 
ATOM      9  C   UNL d   1     -41.708-123.817 -48.588  0.00  0.00     0.021 A 
ATOM     10  C   UNL d   1     -42.891-123.108 -48.220  0.00  0.00     0.000 A 
ATOM     11  C   UNL d   1     -42.295-123.655 -48.038  0.00  0.00     0.002 A 
ENDROOT
BRANCH   1  12
ATOM     12  C   UNL d   1     -41.717-122.304 -51.511  0.00  0.00     0.233 C 
BRANCH  12  13
ATOM     13  O   UNL d   1     -41.618-122.743 -52.201  0.00  0.00    -0.251 OA
BRANCH  13  14
ATOM     14  C   UNL d   1     -41.351-122.372 -52.886  0.00  0.00     0.302 C 
ATOM     15  O   UNL d   1     -41.128-121.578 -52.868  0.00  0.00    -0.259 OA
BRANCH  14  16
ATOM     16  C   UNL d   1     -41.307-122.797 -53.591  0.00  0.00     0.069 C 
BRANCH  16  17
ATOM     17  C   UNL d   1     -41.613-122.503 -54.230  0.00  0.00     0.005 A 
ATOM     18  C   UNL d   1     -42.361-122.154 -54.221  0.00  0.00     0.000 A 
ATOM     19  C   UNL d   1     -42.693-121.835 -54.912  0.00  0.00     0.000 A 
ATOM     20  C   UNL d   1     -42.265-121.867 -55.626  0.00  0.00     0.000 A 
ATOM     21  C   UNL d   1     -41.513-122.216 -55.644  0.00  0.00     0.000 A 
ATOM     22  C   UNL d   1     -41.178-122.538 -54.948  0.00  0.00     0.000 A 
ENDBRANCH  16  17
ENDBRANCH  14  16
ENDBRANCH  13  14
ENDBRANCH  12  13
ENDBRANCH   1  12
TORSDOF 5
ENDMDL
MODEL 2
REMARK VINA RESULT:      -6.7      1.229      5.163
REMARK  5 active torsions:
REMARK  status: ('A' for Active; 'I' for Inactive)
REMARK    1  A    between atoms: C_6  and  N_1 
REMARK    2  A    between atoms: O_9  and  C_6 
REMARK    3  A    between atoms: C_8  and  O_9 
REMARK    4  A    between atoms: C_12  and  C_8 
REMARK    5  A    between atoms: C_14  and  C_12 
ROOT
ATOM      1  N   UNL d   1     -41.501-122.554 -52.865  0.00  0.00    -0.150 N 
ATOM      2  N   UNL d   1     -41.793-121.782 -52.865  0.00  0.00    -0.055 NA
ATOM      3  C   UNL d   1     -41.467-122.995 -53.566  0.00  0.00     0.285 A 
ATOM      4  N   UNL d   1     -42.053-121.445 -53.567  0.00  0.00    -0.130 NA
ATOM      5  C   UNL d   1     -41.732-122.642 -54.263  0.00  0.00     0.077 A 
ATOM      6  C   UNL d   1     -42.024-121.870 -54.264  0.00  0.00     0.109 A 
ATOM      7  O   UNL d   1     -41.178-123.759 -53.565  0.00  0.00    -0.265 OA
ATOM      8  C   UNL d   1     -41.702-123.072 -54.965  0.00  0.00     0.006 A 
ATOM      9  C   UNL d   1     -42.284-121.533 -54.966  0.00  0.00     0.021 A 
ATOM     10  C   UNL d   1     -41.962-122.734 -55.667  0.00  0.00     0.000 A 
ATOM     11  C   UNL d   1     -42.255-121.959 -55.667  0.00  0.00     0.002 A 
ENDROOT
BRANCH   1  12
ATOM     12  C   UNL d   1     -41.239-122.895 -52.159  0.00  0.00     0.233 C 
BRANCH  12  13
ATOM     13  O   UNL d   1     -41.528-122.623 -51.437  0.00  0.00    -0.251 OA
BRANCH  13  14
ATOM     14  C   UNL d   1     -41.336-123.021 -50.742  0.00  0.00     0.302 C 
ATOM     15  O   UNL d   1     -41.123-123.817 -50.767  0.00  0.00    -0.259 OA
BRANCH  14  16
ATOM     16  C   UNL d   1     -41.356-122.621 -50.022  0.00  0.00     0.069 C 
BRANCH  16  17
ATOM     17  C   UNL d   1     -41.737-122.926 -49.431  0.00  0.00     0.005 A 
ATOM     18  C   UNL d   1     -41.338-123.316 -48.823  0.00  0.00     0.000 A 
ATOM     19  C   UNL d   1     -41.750-123.647 -48.182  0.00  0.00     0.000 A 
ATOM     20  C   UNL d   1     -42.580-123.585 -48.152  0.00  0.00     0.000 A 
ATOM     21  C   UNL d   1     -42.989-123.195 -48.758  0.00  0.00     0.000 A 
ATOM     22  C   UNL d   1     -42.575-122.861 -49.404  0.00  0.00     0.000 A 
ENDBRANCH  16  17
ENDBRANCH  14  16
ENDBRANCH  13  14
ENDBRANCH  12  13
ENDBRANCH   1  12
TORSDOF 5
ENDMDL
