MODEL 1
REMARK VINA RESULT:      -8.3      0.000      0.000
REMARK  2 active torsions:
REMARK  status: ('A' for Active; 'I' for Inactive)
REMARK    1  A    between atoms: C_2  and  C_1 
REMARK       I    between atoms: N_3  and  C_1 
REMARK    2  A    between atoms: C_5  and  N_4 
ROOT
ATOM      1  C   UNL d   1     -49.611  13.868  22.234  0.00  0.00     0.267 C 
ATOM      2  N   UNL d   1     -48.955  13.413  22.441  0.00  0.00    -0.269 N 
ATOM      3  N   UNL d   1     -47.642  12.502  22.857  0.00  0.00    -0.301 N 
ATOM      4  O   UNL d   1     -50.023  13.707  21.541  0.00  0.00    -0.267 OA
ATOM      5  C   UNL d   1     -48.709  12.795  21.957  0.00  0.00     0.102 A 
ATOM      6  C   UNL d   1     -48.541  13.575  23.136  0.00  0.00     0.102 A 
ATOM      7  C   UNL d   1     -47.885  13.120  23.344  0.00  0.00     0.100 A 
ATOM      8  C   UNL d   1     -48.053  12.339  22.165  0.00  0.00     0.100 A 
ENDROOT
BRANCH   1   9
ATOM      9  C   UNL d   1     -49.855  14.487  22.720  0.00  0.00     0.084 A 
ATOM     10  C   UNL d   1     -50.557  14.421  23.153  0.00  0.00     0.145 A 
ATOM     11  F   UNL d   1     -51.013  13.737  23.100  0.00  0.00    -0.204 F 
ATOM     12  C   UNL d   1     -50.800  15.046  23.643  0.00  0.00     0.030 A 
ATOM     13  C   UNL d   1     -50.344  15.727  23.695  0.00  0.00     0.002 A 
ATOM     14  C   UNL d   1     -49.643  15.792  23.261  0.00  0.00     0.000 A 
ATOM     15  C   UNL d   1     -49.398  15.177  22.776  0.00  0.00     0.007 A 
ENDBRANCH   1   9
BRANCH   3  16
ATOM     16  C   UNL d   1     -46.983  12.045  23.066  0.00  0.00     0.064 A 
ATOM     17  C   UNL d   1     -46.226  12.319  22.905  0.00  0.00     0.016 A 
ATOM     18  C   UNL d   1     -45.569  11.863  23.113  0.00  0.00     0.001 A 
ATOM     19  C   UNL d   1     -46.119  13.048  22.536  0.00  0.00     0.002 C 
ATOM     20  C   UNL d   1     -45.671  11.135  23.482  0.00  0.00     0.000 A 
ATOM     21  C   UNL d   1     -46.432  10.861  23.642  0.00  0.00     0.002 A 
ATOM     22  C   UNL d   1     -45.015  10.679  23.689  0.00  0.00     0.000 C 
ATOM     23  C   UNL d   1     -47.089  11.317  23.434  0.00  0.00     0.018 A 
ENDBRANCH   3  16
TORSDOF 2
ENDMDL
MODEL 2
REMARK VINA RESULT:      -7.4      8.974     10.179
REMARK  2 active torsions:
REMARK  status: ('A' for Active; 'I' for Inactive)
REMARK    1  A    between atoms: C_2  and  C_1 
REMARK       I    between atoms: N_3  and  C_1 
REMARK    2  A    between atoms: C_5  and  N_4 
ROOT
ATOM      1  C   UNL d   1     -40.165  14.127  18.224  0.00  0.00     0.267 C 
ATOM      2  N   UNL d   1     -39.948  14.328  18.994  0.00  0.00    -0.269 N 
ATOM      3  N   UNL d   1     -39.513  14.730  20.536  0.00  0.00    -0.301 N 
ATOM      4  O   UNL d   1     -40.958  14.024  18.032  0.00  0.00    -0.267 OA
ATOM      5  C   UNL d   1     -40.523  14.427  19.575  0.00  0.00     0.102 A 
ATOM      6  C   UNL d   1     -39.152  14.431  19.187  0.00  0.00     0.102 A 
ATOM      7  C   UNL d   1     -38.935  14.632  19.957  0.00  0.00     0.100 A 
ATOM      8  C   UNL d   1     -40.305  14.628  20.345  0.00  0.00     0.100 A 
ENDROOT
BRANCH   1   9
ATOM      9  C   UNL d   1     -39.587  14.028  17.644  0.00  0.00     0.084 A 
ATOM     10  C   UNL d   1     -39.501  14.592  17.045  0.00  0.00     0.145 A 
ATOM     11  F   UNL d   1     -39.992  15.253  17.026  0.00  0.00    -0.204 F 
ATOM     12  C   UNL d   1     -38.918  14.489  16.463  0.00  0.00     0.030 A 
ATOM     13  C   UNL d   1     -38.430  13.830  16.483  0.00  0.00     0.002 A 
ATOM     14  C   UNL d   1     -38.516  13.267  17.083  0.00  0.00     0.000 A 
ATOM     15  C   UNL d   1     -39.091  13.363  17.661  0.00  0.00     0.007 A 
ENDBRANCH   1   9
BRANCH   3  16
ATOM     16  C   UNL d   1     -39.295  14.932  21.309  0.00  0.00     0.064 A 
ATOM     17  C   UNL d   1     -39.067  14.346  21.837  0.00  0.00     0.016 A 
ATOM     18  C   UNL d   1     -38.850  14.548  22.609  0.00  0.00     0.001 A 
ATOM     19  C   UNL d   1     -39.055  13.557  21.600  0.00  0.00     0.002 C 
ATOM     20  C   UNL d   1     -38.861  15.334  22.849  0.00  0.00     0.000 A 
ATOM     21  C   UNL d   1     -39.089  15.921  22.318  0.00  0.00     0.002 A 
ATOM     22  C   UNL d   1     -38.644  15.535  23.619  0.00  0.00     0.000 C 
ATOM     23  C   UNL d   1     -39.307  15.720  21.546  0.00  0.00     0.018 A 
ENDBRANCH   3  16
TORSDOF 2
ENDMDL
MODEL 3
REMARK VINA RESULT:      -7.4      1.283      2.013
REMARK  2 active torsions:
REMARK  status: ('A' for Active; 'I' for Inactive)
REMARK    1  A    between atoms: C_2  and  C_1 
REMARK       I    between atoms: N_3  and  C_1 
REMARK    2  A    between atoms: C_5  and  N_4 
ROOT
ATOM      1  C   UNL d   1     -49.090  14.268  22.945  0.00  0.00     0.267 C 
ATOM      2  N   UNL d   1     -48.330  13.969  22.828  0.00  0.00    -0.269 N 
ATOM      3  N   UNL d   1     -46.808  13.371  22.594  0.00  0.00    -0.301 N 
ATOM      4  O   UNL d   1     -49.194  15.010  23.284  0.00  0.00    -0.267 OA
ATOM      5  C   UNL d   1     -47.672  14.411  23.049  0.00  0.00     0.102 A 
ATOM      6  C   UNL d   1     -48.225  13.224  22.489  0.00  0.00     0.102 A 
ATOM      7  C   UNL d   1     -47.465  12.926  22.372  0.00  0.00     0.100 A 
ATOM      8  C   UNL d   1     -46.912  14.112  22.932  0.00  0.00     0.100 A 
ENDROOT
BRANCH   1   9
ATOM      9  C   UNL d   1     -49.747  13.823  22.724  0.00  0.00     0.084 A 
ATOM     10  C   UNL d   1     -50.204  14.054  22.074  0.00  0.00     0.145 A 
ATOM     11  F   UNL d   1     -50.003  14.729  21.647  0.00  0.00    -0.204 F 
ATOM     12  C   UNL d   1     -50.866  13.604  21.854  0.00  0.00     0.030 A 
ATOM     13  C   UNL d   1     -51.064  12.932  22.280  0.00  0.00     0.002 A 
ATOM     14  C   UNL d   1     -50.608  12.701  22.930  0.00  0.00     0.000 A 
ATOM     15  C   UNL d   1     -49.953  13.142  23.152  0.00  0.00     0.007 A 
ENDBRANCH   1   9
BRANCH   3  16
ATOM     16  C   UNL d   1     -46.045  13.071  22.476  0.00  0.00     0.064 A 
ATOM     17  C   UNL d   1     -45.794  12.413  22.898  0.00  0.00     0.016 A 
ATOM     18  C   UNL d   1     -45.032  12.114  22.781  0.00  0.00     0.001 A 
ATOM     19  C   UNL d   1     -46.298  12.050  23.440  0.00  0.00     0.002 C 
ATOM     20  C   UNL d   1     -44.525  12.473  22.242  0.00  0.00     0.000 A 
ATOM     21  C   UNL d   1     -44.780  13.133  21.819  0.00  0.00     0.002 A 
ATOM     22  C   UNL d   1     -43.765  12.174  22.125  0.00  0.00     0.000 C 
ATOM     23  C   UNL d   1     -45.541  13.432  21.936  0.00  0.00     0.018 A 
ENDBRANCH   3  16
TORSDOF 2
ENDMDL
MODEL 4
REMARK VINA RESULT:      -7.0      8.755     10.226
REMARK  2 active torsions:
REMARK  status: ('A' for Active; 'I' for Inactive)
REMARK    1  A    between atoms: C_2  and  C_1 
REMARK       I    between atoms: N_3  and  C_1 
REMARK    2  A    between atoms: C_5  and  N_4 
ROOT
ATOM      1  C   UNL d   1     -40.404  14.740  20.336  0.00  0.00     0.267 C 
ATOM      2  N   UNL d   1     -40.054  14.602  19.601  0.00  0.00    -0.269 N 
ATOM      3  N   UNL d   1     -39.355  14.328  18.130  0.00  0.00    -0.301 N 
ATOM      4  O   UNL d   1     -41.217  14.664  20.427  0.00  0.00    -0.267 OA
ATOM      5  C   UNL d   1     -40.517  14.389  18.955  0.00  0.00     0.102 A 
ATOM      6  C   UNL d   1     -39.238  14.679  19.509  0.00  0.00     0.102 A 
ATOM      7  C   UNL d   1     -38.889  14.541  18.774  0.00  0.00     0.100 A 
ATOM      8  C   UNL d   1     -40.168  14.252  18.220  0.00  0.00     0.100 A 
ENDROOT
BRANCH   1   9
ATOM      9  C   UNL d   1     -39.938  14.953  20.981  0.00  0.00     0.084 A 
ATOM     10  C   UNL d   1     -39.805  14.413  21.593  0.00  0.00     0.145 A 
ATOM     11  F   UNL d   1     -40.138  13.660  21.559  0.00  0.00    -0.204 F 
ATOM     12  C   UNL d   1     -39.335  14.632  22.242  0.00  0.00     0.030 A 
ATOM     13  C   UNL d   1     -39.005  15.382  22.274  0.00  0.00     0.002 A 
ATOM     14  C   UNL d   1     -39.138  15.922  21.662  0.00  0.00     0.000 A 
ATOM     15  C   UNL d   1     -39.601  15.711  21.018  0.00  0.00     0.007 A 
ENDBRANCH   1   9
BRANCH   3  16
ATOM     16  C   UNL d   1     -39.004  14.190  17.393  0.00  0.00     0.064 A 
ATOM     17  C   UNL d   1     -38.673  13.458  17.226  0.00  0.00     0.016 A 
ATOM     18  C   UNL d   1     -38.323  13.321  16.490  0.00  0.00     0.001 A 
ATOM     19  C   UNL d   1     -38.688  12.858  17.792  0.00  0.00     0.002 C 
ATOM     20  C   UNL d   1     -38.306  13.916  15.923  0.00  0.00     0.000 A 
ATOM     21  C   UNL d   1     -38.639  14.651  16.091  0.00  0.00     0.002 A 
ATOM     22  C   UNL d   1     -37.956  13.779  15.188  0.00  0.00     0.000 C 
ATOM     23  C   UNL d   1     -38.989  14.788  16.828  0.00  0.00     0.018 A 
ENDBRANCH   3  16
TORSDOF 2
ENDMDL
