MODEL 1
REMARK VINA RESULT:      35.0      0.000      0.000
REMARK  5 active torsions:
REMARK  status: ('A' for Active; 'I' for Inactive)
REMARK    1  A    between atoms: C_6  and  C_1 
REMARK    2  A    between atoms: C_7  and  C_6 
REMARK    3  A    between atoms: C_9  and  C_19 
REMARK       I    between atoms: N_17  and  C_9 
REMARK    4  A    between atoms: O_20  and  C_18 
REMARK    5  A    between atoms: C_19  and  O_20 
ROOT
ATOM      1  C   UNL d   1      13.562  12.425  -2.888  0.00  0.00     0.141 A 
ATOM      2  C   UNL d   1      13.256  13.176  -3.946  0.00  0.00     0.064 A 
ATOM      3  C   UNL d   1      13.180  12.419  -3.618  0.00  0.00     0.220 A 
ATOM      4  C   UNL d   1      13.686  13.644  -3.412  0.00  0.00     0.105 A 
ATOM      5  O   UNL d   1      13.875  13.176  -2.756  0.00  0.00    -0.304 OA
ATOM      6  C   UNL d   1      13.844  14.431  -3.600  0.00  0.00     0.050 A 
ATOM      7  C   UNL d   1      12.989  13.501  -4.661  0.00  0.00     0.007 A 
ATOM      8  O   UNL d   1      12.793  11.780  -3.962  0.00  0.00    -0.284 OA
ATOM      9  C   UNL d   1      13.578  14.752  -4.312  0.00  0.00     0.102 A 
ATOM     10  C   UNL d   1      13.153  14.289  -4.839  0.00  0.00     0.025 A 
ENDROOT
BRANCH   1  11
ATOM     11  C   UNL d   1      13.621  11.779  -2.370  0.00  0.00     0.053 C 
BRANCH  11  12
ATOM     12  C   UNL d   1      13.892  11.893  -1.594  0.00  0.00     0.102 A 
ATOM     13  O   UNL d   1      14.656  12.119  -1.381  0.00  0.00    -0.307 OA
ATOM     14  C   UNL d   1      14.679  12.165  -0.561  0.00  0.00     0.100 A 
ATOM     15  C   UNL d   1      15.338  12.373  -0.103  0.00  0.00     0.027 C 
ATOM     16  C   UNL d   1      13.934  11.970  -0.263  0.00  0.00     0.027 A 
ATOM     17  C   UNL d   1      13.445  11.800  -0.915  0.00  0.00     0.027 A 
ENDBRANCH  11  12
ENDBRANCH   1  11
BRANCH   9  18
ATOM     18  O   UNL d   1      13.742  15.544  -4.493  0.00  0.00    -0.300 OA
BRANCH  18  19
ATOM     19  C   UNL d   1      14.508  15.823  -4.461  0.00  0.00     0.187 C 
BRANCH  19  20
ATOM     20  C   UNL d   1      14.697  16.550  -4.801  0.00  0.00     0.323 C 
ATOM     21  O   UNL d   1      14.328  16.791  -5.493  0.00  0.00    -0.261 OA
ATOM     22  N   UNL d   1      15.263  17.038  -4.441  0.00  0.00    -0.083 NA
ATOM     23  N   UNL d   1      15.455  17.771  -4.781  0.00  0.00    -0.019 N 
ENDBRANCH  19  20
ENDBRANCH  18  19
ENDBRANCH   9  18
TORSDOF 5
ENDMDL
