MODEL 1
REMARK VINA RESULT:      -0.3      0.000      0.000
REMARK  11 active torsions:
REMARK  status: ('A' for Active; 'I' for Inactive)
REMARK    1  A    between atoms: C_8  and  C_1 
REMARK    2  A    between atoms: C_6  and  N_7 
REMARK    3  A    between atoms: N_19  and  C_6 
REMARK    4  A    between atoms: N_7  and  C_14 
REMARK    5  A    between atoms: C_11  and  N_7 
REMARK    6  A    between atoms: C_14  and  C_8 
REMARK    7  A    between atoms: C_9  and  C_11 
REMARK    8  A    between atoms: C_25  and  N_19 
REMARK    9  A    between atoms: O_23  and  C_20 
REMARK   10  A    between atoms: O_24  and  C_26 
REMARK   11  A    between atoms: C_26  and  C_25 
ROOT
ATOM      1  N   UNL d   1      58.568  -0.328  29.988  0.00  0.00    -0.279 N 
ENDROOT
BRANCH   1   2
ATOM      2  C   UNL d   1      58.354  -1.112  29.855  0.00  0.00     0.206 C 
ATOM      3  S   UNL d   1      57.591  -1.291  29.588  0.00  0.00    -0.038 SA
BRANCH   2   4
ATOM      4  N   UNL d   1      58.899  -1.720  29.987  0.00  0.00    -0.215 NA
BRANCH   4   5
ATOM      5  C   UNL d   1      58.946  -2.345  29.450  0.00  0.00     0.128 C 
BRANCH   5   6
ATOM      6  C   UNL d   1      59.532  -2.916  29.530  0.00  0.00     0.137 C 
BRANCH   6   7
ATOM      7  O   UNL d   1      59.712  -3.409  28.896  0.00  0.00    -0.325 OA
ATOM      8  C   UNL d   1      60.321  -3.949  28.960  0.00  0.00     0.182 C 
ENDBRANCH   6   7
ENDBRANCH   5   6
ENDBRANCH   4   5
ENDBRANCH   2   4
ENDBRANCH   1   2
BRANCH   1   9
ATOM      9  C   UNL d   1      58.605  -0.033  30.769  0.00  0.00     0.082 C 
BRANCH   9  10
ATOM     10  C   UNL d   1      57.908   0.128  31.187  0.00  0.00     0.021 C 
BRANCH  10  11
ATOM     11  C   UNL d   1      57.938   0.318  31.986  0.00  0.00     0.021 A 
ATOM     12  C   UNL d   1      58.620   0.544  32.415  0.00  0.00     0.082 A 
ATOM     13  N   UNL d   1      58.392   0.682  33.195  0.00  0.00    -0.246 NA
ATOM     14  C   UNL d   1      59.384   0.613  32.104  0.00  0.00     0.021 C 
ATOM     15  C   UNL d   1      57.580   0.547  33.260  0.00  0.00     0.082 A 
ATOM     16  C   UNL d   1      57.304   0.322  32.510  0.00  0.00     0.021 A 
ATOM     17  C   UNL d   1      57.059   0.597  33.895  0.00  0.00     0.021 A 
ATOM     18  C   UNL d   1      56.506   0.151  32.411  0.00  0.00     0.026 A 
ATOM     19  C   UNL d   1      55.981   0.201  33.048  0.00  0.00     0.094 A 
ATOM     20  C   UNL d   1      56.267   0.426  33.789  0.00  0.00     0.026 A 
BRANCH  19  21
ATOM     21  O   UNL d   1      55.181   0.029  32.943  0.00  0.00    -0.328 OA
ATOM     22  C   UNL d   1      54.762  -0.349  33.551  0.00  0.00     0.181 C 
ENDBRANCH  19  21
ENDBRANCH  10  11
ENDBRANCH   9  10
ENDBRANCH   1   9
BRANCH   1  23
ATOM     23  C   UNL d   1      58.744   0.161  29.353  0.00  0.00     0.107 C 
BRANCH  23  24
ATOM     24  C   UNL d   1      59.537   0.357  29.187  0.00  0.00     0.118 A 
ATOM     25  O   UNL d   1      60.145   0.448  29.744  0.00  0.00    -0.304 OA
ATOM     26  C   UNL d   1      60.838   0.642  29.336  0.00  0.00     0.123 A 
ATOM     27  C   UNL d   1      60.658   0.670  28.540  0.00  0.00     0.029 A 
ATOM     28  C   UNL d   1      59.850   0.492  28.455  0.00  0.00     0.028 A 
ENDBRANCH  23  24
ENDBRANCH   1  23
TORSDOF 11
ENDMDL
