MODEL 1
REMARK VINA RESULT:      59.2      0.000      0.000
REMARK  6 active torsions:
REMARK  status: ('A' for Active; 'I' for Inactive)
REMARK    1  A    between atoms: N_3  and  C_1 
REMARK       I    between atoms: C_4  and  N_3 
REMARK       I    between atoms: N_10  and  C_4 
REMARK    2  A    between atoms: C_7  and  C_5 
REMARK    3  A    between atoms: C_9  and  C_7 
REMARK       I    between atoms: N_12  and  C_9 
REMARK    4  A    between atoms: C_13  and  N_10 
REMARK    5  A    between atoms: C_18  and  N_12 
REMARK    6  A    between atoms: C_17  and  C_18 
ROOT
ATOM      1  C   UNL d   1     -49.141  27.654  34.574  0.00  0.00     0.199 A 
ATOM      2  N   UNL d   1     -48.405  27.950  34.801  0.00  0.00    -0.220 NA
ATOM      3  C   UNL d   1     -48.517  28.415  35.467  0.00  0.00     0.095 A 
ATOM      4  S   UNL d   1     -49.700  27.928  35.088  0.00  0.00    -0.046 SA
ATOM      5  C   UNL d   1     -49.324  28.401  35.647  0.00  0.00     0.058 A 
ENDROOT
BRANCH   1   6
ATOM      6  N   UNL d   1     -49.288  27.153  33.921  0.00  0.00    -0.166 NA
ATOM      7  C   UNL d   1     -49.922  26.612  33.946  0.00  0.00     0.370 C 
ATOM      8  N   UNL d   1     -50.076  26.113  33.306  0.00  0.00    -0.191 NA
ATOM      9  O   UNL d   1     -50.407  26.571  34.618  0.00  0.00    -0.242 OA
BRANCH   8  10
ATOM     10  C   UNL d   1     -50.697  25.580  33.325  0.00  0.00     0.087 A 
ATOM     11  C   UNL d   1     -50.557  24.771  33.359  0.00  0.00     0.031 A 
ATOM     12  C   UNL d   1     -51.168  24.239  33.378  0.00  0.00     0.059 A 
ATOM     13 CL   UNL d   1     -51.020  23.426  33.412  0.00  0.00    -0.082 Cl
ATOM     14  C   UNL d   1     -51.955  24.519  33.362  0.00  0.00     0.011 A 
ATOM     15  C   UNL d   1     -52.094  25.329  33.328  0.00  0.00     0.002 A 
ATOM     16  C   UNL d   1     -51.465  25.862  33.309  0.00  0.00     0.019 A 
ENDBRANCH   8  10
ENDBRANCH   1   6
BRANCH   3  17
ATOM     17  C   UNL d   1     -47.928  28.823  35.884  0.00  0.00     0.082 C 
BRANCH  17  18
ATOM     18  C   UNL d   1     -47.418  29.359  35.490  0.00  0.00     0.281 C 
ATOM     19  N   UNL d   1     -47.621  30.154  35.412  0.00  0.00    -0.206 NA
ATOM     20  O   UNL d   1     -46.709  29.073  35.183  0.00  0.00    -0.265 OA
BRANCH  19  21
ATOM     21  C   UNL d   1     -47.116  30.671  35.025  0.00  0.00     0.104 C 
BRANCH  21  22
ATOM     22  C   UNL d   1     -47.410  31.380  34.722  0.00  0.00     0.038 A 
ATOM     23  C   UNL d   1     -47.476  32.047  35.207  0.00  0.00     0.101 A 
ATOM     24  N   UNL d   1     -47.773  32.752  34.892  0.00  0.00    -0.242 NA
ATOM     25  C   UNL d   1     -48.004  32.792  34.094  0.00  0.00     0.099 A 
ATOM     26  C   UNL d   1     -47.934  32.126  33.627  0.00  0.00     0.021 A 
ATOM     27  C   UNL d   1     -47.637  31.420  33.942  0.00  0.00     0.005 A 
ENDBRANCH  21  22
ENDBRANCH  19  21
ENDBRANCH  17  18
ENDBRANCH   3  17
TORSDOF 6
ENDMDL
MODEL 2
REMARK VINA RESULT:      60.4      2.118      6.459
REMARK  6 active torsions:
REMARK  status: ('A' for Active; 'I' for Inactive)
REMARK    1  A    between atoms: N_3  and  C_1 
REMARK       I    between atoms: C_4  and  N_3 
REMARK       I    between atoms: N_10  and  C_4 
REMARK    2  A    between atoms: C_7  and  C_5 
REMARK    3  A    between atoms: C_9  and  C_7 
REMARK       I    between atoms: N_12  and  C_9 
REMARK    4  A    between atoms: C_13  and  N_10 
REMARK    5  A    between atoms: C_18  and  N_12 
REMARK    6  A    between atoms: C_17  and  C_18 
ROOT
ATOM      1  C   UNL d   1     -48.494  28.811  35.160  0.00  0.00     0.199 A 
ATOM      2  N   UNL d   1     -48.518  28.484  34.403  0.00  0.00    -0.220 NA
ATOM      3  C   UNL d   1     -49.040  27.851  34.420  0.00  0.00     0.095 A 
ATOM      4  S   UNL d   1     -48.992  28.392  35.639  0.00  0.00    -0.046 SA
ATOM      5  C   UNL d   1     -49.336  27.793  35.190  0.00  0.00     0.058 A 
ENDROOT
BRANCH   1   6
ATOM      6  N   UNL d   1     -48.034  29.468  35.398  0.00  0.00    -0.166 NA
ATOM      7  C   UNL d   1     -48.054  30.172  34.953  0.00  0.00     0.370 C 
ATOM      8  N   UNL d   1     -47.604  30.827  35.179  0.00  0.00    -0.191 NA
ATOM      9  O   UNL d   1     -48.530  30.223  34.275  0.00  0.00    -0.242 OA
BRANCH   8  10
ATOM     10  C   UNL d   1     -47.619  31.521  34.747  0.00  0.00     0.087 A 
ATOM     11  C   UNL d   1     -48.325  31.923  34.620  0.00  0.00     0.031 A 
ATOM     12  C   UNL d   1     -48.345  32.611  34.193  0.00  0.00     0.059 A 
ATOM     13 CL   UNL d   1     -49.059  33.011  34.069  0.00  0.00    -0.082 Cl
ATOM     14  C   UNL d   1     -47.636  32.917  33.876  0.00  0.00     0.011 A 
ATOM     15  C   UNL d   1     -46.930  32.515  34.003  0.00  0.00     0.002 A 
ATOM     16  C   UNL d   1     -46.920  31.816  34.439  0.00  0.00     0.019 A 
ENDBRANCH   8  10
ENDBRANCH   1   6
BRANCH   3  17
ATOM     17  C   UNL d   1     -49.235  27.360  33.781  0.00  0.00     0.082 C 
BRANCH  17  18
ATOM     18  C   UNL d   1     -50.036  27.201  33.592  0.00  0.00     0.281 C 
ATOM     19  N   UNL d   1     -50.349  26.445  33.690  0.00  0.00    -0.206 NA
ATOM     20  O   UNL d   1     -50.502  27.816  33.306  0.00  0.00    -0.265 OA
BRANCH  19  21
ATOM     21  C   UNL d   1     -51.134  26.299  33.503  0.00  0.00     0.104 C 
BRANCH  21  22
ATOM     22  C   UNL d   1     -51.408  25.520  33.472  0.00  0.00     0.038 A 
ATOM     23  C   UNL d   1     -50.883  24.897  33.334  0.00  0.00     0.101 A 
ATOM     24  N   UNL d   1     -51.170  24.121  33.306  0.00  0.00    -0.242 NA
ATOM     25  C   UNL d   1     -51.980  23.968  33.415  0.00  0.00     0.099 A 
ATOM     26  C   UNL d   1     -52.488  24.594  33.550  0.00  0.00     0.021 A 
ATOM     27  C   UNL d   1     -52.201  25.370  33.579  0.00  0.00     0.005 A 
ENDBRANCH  21  22
ENDBRANCH  19  21
ENDBRANCH  17  18
ENDBRANCH   3  17
TORSDOF 6
ENDMDL
MODEL 3
REMARK VINA RESULT:      60.5      1.161      1.471
REMARK  6 active torsions:
REMARK  status: ('A' for Active; 'I' for Inactive)
REMARK    1  A    between atoms: N_3  and  C_1 
REMARK       I    between atoms: C_4  and  N_3 
REMARK       I    between atoms: N_10  and  C_4 
REMARK    2  A    between atoms: C_7  and  C_5 
REMARK    3  A    between atoms: C_9  and  C_7 
REMARK       I    between atoms: N_12  and  C_9 
REMARK    4  A    between atoms: C_13  and  N_10 
REMARK    5  A    between atoms: C_18  and  N_12 
REMARK    6  A    between atoms: C_17  and  C_18 
ROOT
ATOM      1  C   UNL d   1     -48.386  28.368  34.646  0.00  0.00     0.199 A 
ATOM      2  N   UNL d   1     -47.645  28.705  34.784  0.00  0.00    -0.220 NA
ATOM      3  C   UNL d   1     -47.673  29.082  35.512  0.00  0.00     0.095 A 
ATOM      4  S   UNL d   1     -48.865  28.532  35.275  0.00  0.00    -0.046 SA
ATOM      5  C   UNL d   1     -48.433  28.975  35.819  0.00  0.00     0.058 A 
ENDROOT
BRANCH   1   6
ATOM      6  N   UNL d   1     -48.608  27.929  33.970  0.00  0.00    -0.166 NA
ATOM      7  C   UNL d   1     -49.313  27.486  33.975  0.00  0.00     0.370 C 
ATOM      8  N   UNL d   1     -49.542  27.048  33.312  0.00  0.00    -0.191 NA
ATOM      9  O   UNL d   1     -49.796  27.479  34.650  0.00  0.00    -0.242 OA
BRANCH   8  10
ATOM     10  C   UNL d   1     -50.233  26.611  33.311  0.00  0.00     0.087 A 
ATOM     11  C   UNL d   1     -50.966  26.983  33.310  0.00  0.00     0.031 A 
ATOM     12  C   UNL d   1     -51.654  26.554  33.309  0.00  0.00     0.059 A 
ATOM     13 CL   UNL d   1     -52.389  26.934  33.307  0.00  0.00    -0.082 Cl
ATOM     14  C   UNL d   1     -51.617  25.720  33.308  0.00  0.00     0.011 A 
ATOM     15  C   UNL d   1     -50.882  25.349  33.310  0.00  0.00     0.002 A 
ATOM     16  C   UNL d   1     -50.189  25.794  33.311  0.00  0.00     0.019 A 
ENDBRANCH   8  10
ENDBRANCH   1   6
BRANCH   3  17
ATOM     17  C   UNL d   1     -47.052  29.496  35.873  0.00  0.00     0.082 C 
BRANCH  17  18
ATOM     18  C   UNL d   1     -47.040  30.333  35.876  0.00  0.00     0.281 C 
ATOM     19  N   UNL d   1     -47.258  30.760  35.206  0.00  0.00    -0.206 NA
ATOM     20  O   UNL d   1     -46.806  30.720  36.564  0.00  0.00    -0.265 OA
BRANCH  19  21
ATOM     21  C   UNL d   1     -47.243  31.580  35.218  0.00  0.00     0.104 C 
BRANCH  21  22
ATOM     22  C   UNL d   1     -47.640  32.004  34.631  0.00  0.00     0.038 A 
ATOM     23  C   UNL d   1     -47.299  32.107  33.886  0.00  0.00     0.101 A 
ATOM     24  N   UNL d   1     -47.706  32.534  33.306  0.00  0.00    -0.242 NA
ATOM     25  C   UNL d   1     -48.454  32.859  33.471  0.00  0.00     0.099 A 
ATOM     26  C   UNL d   1     -48.779  32.751  34.212  0.00  0.00     0.021 A 
ATOM     27  C   UNL d   1     -48.372  32.323  34.792  0.00  0.00     0.005 A 
ENDBRANCH  21  22
ENDBRANCH  19  21
ENDBRANCH  17  18
ENDBRANCH   3  17
TORSDOF 6
ENDMDL
