MODEL 1
REMARK VINA RESULT:      37.9      0.000      0.000
REMARK  4 active torsions:
REMARK  status: ('A' for Active; 'I' for Inactive)
REMARK    1  A    between atoms: C_9  and  C_2 
REMARK    2  A    between atoms: N_11  and  C_9 
REMARK    3  A    between atoms: C_14  and  N_11 
REMARK    4  A    between atoms: C_17  and  C_14 
ROOT
ATOM      1  C   UNL d   1     -58.512 -98.838 -44.502  0.00  0.00     0.106 A 
ATOM      2  C   UNL d   1     -57.117 -98.780 -44.803  0.00  0.00     0.025 A 
ATOM      3  C   UNL d   1     -57.726 -98.813 -44.251  0.00  0.00     0.025 A 
ATOM      4  O   UNL d   1     -58.688 -98.830 -45.306  0.00  0.00    -0.273 OA
ATOM      5  C   UNL d   1     -59.121 -98.871 -43.949  0.00  0.00     0.062 A 
ATOM      6  C   UNL d   1     -58.076 -98.797 -45.867  0.00  0.00     0.300 A 
ATOM      7  C   UNL d   1     -57.291 -98.772 -45.615  0.00  0.00     0.070 A 
ATOM      8  C   UNL d   1     -57.550 -98.821 -43.446  0.00  0.00     0.005 A 
ATOM      9  C   UNL d   1     -58.940 -98.879 -43.144  0.00  0.00     0.198 A 
ATOM     10  O   UNL d   1     -58.258 -98.789 -46.678  0.00  0.00    -0.259 OA
ATOM     11  C   UNL d   1     -58.160 -98.854 -42.894  0.00  0.00     0.042 A 
ATOM     12  O   UNL d   1     -59.551 -98.912 -42.587  0.00  0.00    -0.286 OA
ATOM     13  C   UNL d   1     -59.906 -98.896 -44.200  0.00  0.00     0.005 C 
ENDROOT
BRANCH   2  14
ATOM     14  C   UNL d   1     -56.339 -98.756 -44.554  0.00  0.00     0.081 C 
BRANCH  14  15
ATOM     15  N   UNL d   1     -55.805 -99.336 -44.813  0.00  0.00    -0.301 N 
ATOM     16  C   UNL d   1     -55.936 -99.710 -45.537  0.00  0.00     0.100 C 
BRANCH  15  17
ATOM     17  C   UNL d   1     -55.150 -99.538 -44.350  0.00  0.00     0.080 C 
BRANCH  17  18
ATOM     18  C   UNL d   1     -55.005-100.325 -44.161  0.00  0.00     0.018 A 
ATOM     19  C   UNL d   1     -54.922-100.547 -43.388  0.00  0.00     0.002 A 
ATOM     20  C   UNL d   1     -54.776-101.335 -43.188  0.00  0.00     0.000 A 
ATOM     21  C   UNL d   1     -54.714-101.911 -43.794  0.00  0.00     0.000 A 
ATOM     22  C   UNL d   1     -54.802-101.669 -44.581  0.00  0.00     0.000 A 
ATOM     23  C   UNL d   1     -54.946-100.886 -44.763  0.00  0.00     0.002 A 
ENDBRANCH  17  18
ENDBRANCH  15  17
ENDBRANCH  14  15
ENDBRANCH   2  14
TORSDOF 4
ENDMDL
