MODEL 1
REMARK VINA RESULT:      -9.1      0.000      0.000
REMARK  4 active torsions:
REMARK  status: ('A' for Active; 'I' for Inactive)
REMARK    1  A    between atoms: C_6  and  C_1 
REMARK    2  A    between atoms: C_7  and  C_2 
REMARK    3  A    between atoms: O_10  and  C_6 
REMARK    4  A    between atoms: C_13  and  O_10 
ROOT
ATOM      1  C   UNL d   1      52.957  31.887  53.221  0.00  0.00     0.113 A 
ATOM      2  C   UNL d   1      53.600  31.706  53.740  0.00  0.00     0.095 A 
ATOM      3  N   UNL d   1      53.671  30.866  53.775  0.00  0.00    -0.219 NA
ATOM      4  S   UNL d   1      52.638  31.180  52.943  0.00  0.00    -0.040 SA
ATOM      5  C   UNL d   1      53.086  30.572  53.291  0.00  0.00     0.215 A 
ATOM      6  N   UNL d   1      52.931  29.772  53.143  0.00  0.00    -0.120 N 
ENDROOT
BRANCH   2   7
ATOM      7  C   UNL d   1      54.019  32.314  54.097  0.00  0.00     0.018 A 
ATOM      8  C   UNL d   1      53.834  32.531  54.877  0.00  0.00     0.002 A 
ATOM      9  C   UNL d   1      54.264  33.151  55.235  0.00  0.00     0.000 A 
ATOM     10  C   UNL d   1      54.852  33.538  54.833  0.00  0.00     0.000 A 
ATOM     11  C   UNL d   1      55.037  33.313  54.038  0.00  0.00     0.000 A 
ATOM     12  C   UNL d   1      54.609  32.699  53.688  0.00  0.00     0.002 A 
ENDBRANCH   2   7
BRANCH   1  13
ATOM     13  C   UNL d   1      52.686  32.612  53.020  0.00  0.00     0.308 C 
ATOM     14  O   UNL d   1      53.089  33.064  52.472  0.00  0.00    -0.258 OA
BRANCH  13  15
ATOM     15  O   UNL d   1      52.024  32.896  53.350  0.00  0.00    -0.271 OA
BRANCH  15  16
ATOM     16  C   UNL d   1      51.533  33.432  52.959  0.00  0.00     0.126 C 
ATOM     17  C   UNL d   1      50.847  33.727  53.282  0.00  0.00     0.029 C 
ENDBRANCH  15  16
ENDBRANCH  13  15
ENDBRANCH   1  13
TORSDOF 4
ENDMDL
MODEL 2
REMARK VINA RESULT:      -8.3      1.620      3.071
REMARK  4 active torsions:
REMARK  status: ('A' for Active; 'I' for Inactive)
REMARK    1  A    between atoms: C_6  and  C_1 
REMARK    2  A    between atoms: C_7  and  C_2 
REMARK    3  A    between atoms: O_10  and  C_6 
REMARK    4  A    between atoms: C_13  and  O_10 
ROOT
ATOM      1  C   UNL d   1      53.324  32.698  53.728  0.00  0.00     0.113 A 
ATOM      2  C   UNL d   1      52.924  33.425  53.895  0.00  0.00     0.095 A 
ATOM      3  N   UNL d   1      53.348  33.814  54.511  0.00  0.00    -0.219 NA
ATOM      4  S   UNL d   1      53.978  32.639  54.226  0.00  0.00    -0.040 SA
ATOM      5  C   UNL d   1      53.975  33.327  54.694  0.00  0.00     0.215 A 
ATOM      6  N   UNL d   1      54.553  33.470  55.269  0.00  0.00    -0.120 N 
ENDROOT
BRANCH   2   7
ATOM      7  C   UNL d   1      52.248  33.624  53.474  0.00  0.00     0.018 A 
ATOM      8  C   UNL d   1      52.320  34.075  52.781  0.00  0.00     0.002 A 
ATOM      9  C   UNL d   1      51.628  34.274  52.357  0.00  0.00     0.000 A 
ATOM     10  C   UNL d   1      50.898  34.034  52.614  0.00  0.00     0.000 A 
ATOM     11  C   UNL d   1      50.830  33.575  53.321  0.00  0.00     0.000 A 
ATOM     12  C   UNL d   1      51.516  33.380  53.737  0.00  0.00     0.002 A 
ENDBRANCH   2   7
BRANCH   1  13
ATOM     13  C   UNL d   1      53.122  32.148  53.184  0.00  0.00     0.308 C 
ATOM     14  O   UNL d   1      53.223  32.300  52.388  0.00  0.00    -0.258 OA
BRANCH  13  15
ATOM     15  O   UNL d   1      52.823  31.451  53.415  0.00  0.00    -0.271 OA
BRANCH  15  16
ATOM     16  C   UNL d   1      52.919  30.763  52.969  0.00  0.00     0.126 C 
ATOM     17  C   UNL d   1      52.667  30.031  53.218  0.00  0.00     0.029 C 
ENDBRANCH  15  16
ENDBRANCH  13  15
ENDBRANCH   1  13
TORSDOF 4
ENDMDL
MODEL 3
REMARK VINA RESULT:      -8.2      0.974      2.518
REMARK  4 active torsions:
REMARK  status: ('A' for Active; 'I' for Inactive)
REMARK    1  A    between atoms: C_6  and  C_1 
REMARK    2  A    between atoms: C_7  and  C_2 
REMARK    3  A    between atoms: O_10  and  C_6 
REMARK    4  A    between atoms: C_13  and  O_10 
ROOT
ATOM      1  C   UNL d   1      53.305  32.162  53.367  0.00  0.00     0.113 A 
ATOM      2  C   UNL d   1      52.527  32.215  53.037  0.00  0.00     0.095 A 
ATOM      3  N   UNL d   1      52.290  31.437  52.817  0.00  0.00    -0.219 NA
ATOM      4  S   UNL d   1      53.542  31.373  53.350  0.00  0.00    -0.040 SA
ATOM      5  C   UNL d   1      52.911  30.949  53.013  0.00  0.00     0.215 A 
ATOM      6  N   UNL d   1      52.942  30.129  52.902  0.00  0.00    -0.120 N 
ENDROOT
BRANCH   2   7
ATOM      7  C   UNL d   1      52.156  32.946  52.987  0.00  0.00     0.018 A 
ATOM      8  C   UNL d   1      51.600  33.159  53.566  0.00  0.00     0.002 A 
ATOM      9  C   UNL d   1      51.226  33.904  53.508  0.00  0.00     0.000 A 
ATOM     10  C   UNL d   1      51.398  34.412  52.901  0.00  0.00     0.000 A 
ATOM     11  C   UNL d   1      51.965  34.190  52.314  0.00  0.00     0.000 A 
ATOM     12  C   UNL d   1      52.333  33.453  52.374  0.00  0.00     0.002 A 
ENDBRANCH   2   7
BRANCH   1  13
ATOM     13  C   UNL d   1      53.753  32.760  53.652  0.00  0.00     0.308 C 
ATOM     14  O   UNL d   1      54.135  33.268  53.139  0.00  0.00    -0.258 OA
BRANCH  13  15
ATOM     15  O   UNL d   1      53.829  32.863  54.434  0.00  0.00    -0.271 OA
BRANCH  15  16
ATOM     16  C   UNL d   1      54.510  33.188  54.769  0.00  0.00     0.126 C 
ATOM     17  C   UNL d   1      54.578  33.363  55.561  0.00  0.00     0.029 C 
ENDBRANCH  15  16
ENDBRANCH  13  15
ENDBRANCH   1  13
TORSDOF 4
ENDMDL
MODEL 4
REMARK VINA RESULT:      -8.1      1.558      2.276
REMARK  4 active torsions:
REMARK  status: ('A' for Active; 'I' for Inactive)
REMARK    1  A    between atoms: C_6  and  C_1 
REMARK    2  A    between atoms: C_7  and  C_2 
REMARK    3  A    between atoms: O_10  and  C_6 
REMARK    4  A    between atoms: C_13  and  O_10 
ROOT
ATOM      1  C   UNL d   1      52.790  32.630  53.391  0.00  0.00     0.113 A 
ATOM      2  C   UNL d   1      52.941  33.304  53.880  0.00  0.00     0.095 A 
ATOM      3  N   UNL d   1      52.278  33.821  53.814  0.00  0.00    -0.219 NA
ATOM      4  S   UNL d   1      52.054  32.728  53.032  0.00  0.00    -0.040 SA
ATOM      5  C   UNL d   1      51.760  33.457  53.303  0.00  0.00     0.215 A 
ATOM      6  N   UNL d   1      51.024  33.751  53.062  0.00  0.00    -0.120 N 
ENDROOT
BRANCH   2   7
ATOM      7  C   UNL d   1      53.642  33.350  54.305  0.00  0.00     0.018 A 
ATOM      8  C   UNL d   1      53.654  33.099  55.097  0.00  0.00     0.002 A 
ATOM      9  C   UNL d   1      54.370  33.148  55.523  0.00  0.00     0.000 A 
ATOM     10  C   UNL d   1      55.044  33.434  55.175  0.00  0.00     0.000 A 
ATOM     11  C   UNL d   1      55.027  33.687  54.368  0.00  0.00     0.000 A 
ATOM     12  C   UNL d   1      54.316  33.638  53.950  0.00  0.00     0.002 A 
ENDBRANCH   2   7
BRANCH   1  13
ATOM     13  C   UNL d   1      53.263  31.996  53.279  0.00  0.00     0.308 C 
ATOM     14  O   UNL d   1      53.928  32.058  52.808  0.00  0.00    -0.258 OA
BRANCH  13  15
ATOM     15  O   UNL d   1      53.091  31.304  53.624  0.00  0.00    -0.271 OA
BRANCH  15  16
ATOM     16  C   UNL d   1      53.281  30.580  53.275  0.00  0.00     0.126 C 
ATOM     17  C   UNL d   1      53.202  29.866  53.657  0.00  0.00     0.029 C 
ENDBRANCH  15  16
ENDBRANCH  13  15
ENDBRANCH   1  13
TORSDOF 4
ENDMDL
MODEL 5
REMARK VINA RESULT:      -7.3      1.286      2.405
REMARK  4 active torsions:
REMARK  status: ('A' for Active; 'I' for Inactive)
REMARK    1  A    between atoms: C_6  and  C_1 
REMARK    2  A    between atoms: C_7  and  C_2 
REMARK    3  A    between atoms: O_10  and  C_6 
REMARK    4  A    between atoms: C_13  and  O_10 
ROOT
ATOM      1  C   UNL d   1      53.388  32.863  53.783  0.00  0.00     0.113 A 
ATOM      2  C   UNL d   1      53.789  32.166  54.045  0.00  0.00     0.095 A 
ATOM      3  N   UNL d   1      54.397  32.406  54.578  0.00  0.00    -0.219 NA
ATOM      4  S   UNL d   1      53.738  33.517  54.143  0.00  0.00    -0.040 SA
ATOM      5  C   UNL d   1      54.349  33.218  54.622  0.00  0.00     0.215 A 
ATOM      6  N   UNL d   1      54.833  33.712  55.077  0.00  0.00    -0.120 N 
ENDROOT
BRANCH   2   7
ATOM      7  C   UNL d   1      53.550  31.431  53.769  0.00  0.00     0.018 A 
ATOM      8  C   UNL d   1      53.086  30.945  54.258  0.00  0.00     0.002 A 
ATOM      9  C   UNL d   1      52.846  30.198  53.970  0.00  0.00     0.000 A 
ATOM     10  C   UNL d   1      53.059  29.947  53.230  0.00  0.00     0.000 A 
ATOM     11  C   UNL d   1      53.532  30.446  52.737  0.00  0.00     0.000 A 
ATOM     12  C   UNL d   1      53.767  31.184  53.024  0.00  0.00     0.002 A 
ENDBRANCH   2   7
BRANCH   1  13
ATOM     13  C   UNL d   1      52.773  32.907  53.274  0.00  0.00     0.308 C 
ATOM     14  O   UNL d   1      52.895  32.802  52.473  0.00  0.00    -0.258 OA
BRANCH  13  15
ATOM     15  O   UNL d   1      52.042  33.052  53.543  0.00  0.00    -0.271 OA
BRANCH  15  16
ATOM     16  C   UNL d   1      51.485  33.469  53.099  0.00  0.00     0.126 C 
ATOM     17  C   UNL d   1      50.700  33.522  53.304  0.00  0.00     0.029 C 
ENDBRANCH  15  16
ENDBRANCH  13  15
ENDBRANCH   1  13
TORSDOF 4
ENDMDL
MODEL 6
REMARK VINA RESULT:      -7.3      1.546      2.879
REMARK  4 active torsions:
REMARK  status: ('A' for Active; 'I' for Inactive)
REMARK    1  A    between atoms: C_6  and  C_1 
REMARK    2  A    between atoms: C_7  and  C_2 
REMARK    3  A    between atoms: O_10  and  C_6 
REMARK    4  A    between atoms: C_13  and  O_10 
ROOT
ATOM      1  C   UNL d   1      53.184  32.863  53.375  0.00  0.00     0.113 A 
ATOM      2  C   UNL d   1      52.666  32.218  53.197  0.00  0.00     0.095 A 
ATOM      3  N   UNL d   1      51.937  32.543  52.926  0.00  0.00    -0.219 NA
ATOM      4  S   UNL d   1      52.786  33.568  53.219  0.00  0.00    -0.040 SA
ATOM      5  C   UNL d   1      52.031  33.352  52.947  0.00  0.00     0.215 A 
ATOM      6  N   UNL d   1      51.463  33.915  52.731  0.00  0.00    -0.120 N 
ENDROOT
BRANCH   2   7
ATOM      7  C   UNL d   1      52.926  31.447  53.305  0.00  0.00     0.018 A 
ATOM      8  C   UNL d   1      52.835  31.088  54.048  0.00  0.00     0.002 A 
ATOM      9  C   UNL d   1      53.101  30.303  54.150  0.00  0.00     0.000 A 
ATOM     10  C   UNL d   1      53.442  29.894  53.539  0.00  0.00     0.000 A 
ATOM     11  C   UNL d   1      53.533  30.265  52.784  0.00  0.00     0.000 A 
ATOM     12  C   UNL d   1      53.268  31.041  52.687  0.00  0.00     0.002 A 
ENDBRANCH   2   7
BRANCH   1  13
ATOM     13  C   UNL d   1      53.934  32.822  53.649  0.00  0.00     0.308 C 
ATOM     14  O   UNL d   1      54.545  32.624  53.146  0.00  0.00    -0.258 OA
BRANCH  13  15
ATOM     15  O   UNL d   1      54.089  32.974  54.412  0.00  0.00    -0.271 OA
BRANCH  15  16
ATOM     16  C   UNL d   1      54.800  33.316  54.656  0.00  0.00     0.126 C 
ATOM     17  C   UNL d   1      54.941  33.555  55.420  0.00  0.00     0.029 C 
ENDBRANCH  15  16
ENDBRANCH  13  15
ENDBRANCH   1  13
TORSDOF 4
ENDMDL
MODEL 7
REMARK VINA RESULT:      -6.7      2.247      2.940
REMARK  4 active torsions:
REMARK  status: ('A' for Active; 'I' for Inactive)
REMARK    1  A    between atoms: C_6  and  C_1 
REMARK    2  A    between atoms: C_7  and  C_2 
REMARK    3  A    between atoms: O_10  and  C_6 
REMARK    4  A    between atoms: C_13  and  O_10 
ROOT
ATOM      1  C   UNL d   1      52.635  34.401  53.939  0.00  0.00     0.113 A 
ATOM      2  C   UNL d   1      53.394  34.175  54.236  0.00  0.00     0.095 A 
ATOM      3  N   UNL d   1      53.724  34.844  54.629  0.00  0.00    -0.219 NA
ATOM      4  S   UNL d   1      52.498  35.188  54.142  0.00  0.00    -0.040 SA
ATOM      5  C   UNL d   1      53.172  35.439  54.561  0.00  0.00     0.215 A 
ATOM      6  N   UNL d   1      53.243  36.208  54.860  0.00  0.00    -0.120 N 
ENDROOT
BRANCH   2   7
ATOM      7  C   UNL d   1      53.670  33.412  54.111  0.00  0.00     0.018 A 
ATOM      8  C   UNL d   1      54.137  33.254  53.442  0.00  0.00     0.002 A 
ATOM      9  C   UNL d   1      54.414  32.476  53.321  0.00  0.00     0.000 A 
ATOM     10  C   UNL d   1      54.234  31.882  53.841  0.00  0.00     0.000 A 
ATOM     11  C   UNL d   1      53.757  32.048  54.520  0.00  0.00     0.000 A 
ATOM     12  C   UNL d   1      53.485  32.819  54.638  0.00  0.00     0.002 A 
ENDBRANCH   2   7
BRANCH   1  13
ATOM     13  C   UNL d   1      52.120  33.947  53.528  0.00  0.00     0.308 C 
ATOM     14  O   UNL d   1      51.706  33.353  53.905  0.00  0.00    -0.258 OA
BRANCH  13  15
ATOM     15  O   UNL d   1      52.008  34.072  52.754  0.00  0.00    -0.271 OA
BRANCH  15  16
ATOM     16  C   UNL d   1      51.273  33.967  52.394  0.00  0.00     0.126 C 
ATOM     17  C   UNL d   1      51.127  34.149  51.615  0.00  0.00     0.029 C 
ENDBRANCH  15  16
ENDBRANCH  13  15
ENDBRANCH   1  13
TORSDOF 4
ENDMDL
