MODEL 1
REMARK VINA RESULT:      -3.3      0.000      0.000
REMARK  4 active torsions:
REMARK  status: ('A' for Active; 'I' for Inactive)
REMARK    1  A    between atoms: C_11  and  C_4 
REMARK    2  A    between atoms: C_9  and  C_5 
REMARK    3  A    between atoms: O_21  and  C_16 
REMARK    4  A    between atoms: O_22  and  C_17 
ROOT
ATOM      1  N   UNL d   1     -41.691-122.080 -51.436  0.00  0.00    -0.185 N 
ATOM      2  C   UNL d   1     -41.501-121.472 -50.905  0.00  0.00     0.219 A 
ATOM      3  N   UNL d   1     -42.039-122.688 -51.010  0.00  0.00    -0.153 NA
ATOM      4  C   UNL d   1     -41.458-121.842 -52.191  0.00  0.00     0.187 A 
ATOM      5  C   UNL d   1     -42.069-122.464 -50.212  0.00  0.00     0.156 A 
ATOM      6  S   UNL d   1     -41.734-121.710 -50.149  0.00  0.00    -0.024 SA
ATOM      7  N   UNL d   1     -41.125-121.089 -52.125  0.00  0.00    -0.127 NA
ATOM      8  N   UNL d   1     -41.149-120.857 -51.336  0.00  0.00    -0.120 NA
ENDROOT
BRANCH   4   9
ATOM      9  C   UNL d   1     -41.542-122.275 -52.886  0.00  0.00     0.040 A 
ATOM     10  C   UNL d   1     -42.002-121.971 -53.498  0.00  0.00     0.029 A 
ATOM     11  C   UNL d   1     -42.088-122.396 -54.191  0.00  0.00     0.116 A 
ATOM     12  C   UNL d   1     -41.716-123.131 -54.283  0.00  0.00     0.116 A 
ATOM     13  C   UNL d   1     -41.253-123.434 -53.664  0.00  0.00     0.026 A 
ATOM     14  C   UNL d   1     -41.169-123.002 -52.969  0.00  0.00     0.005 A 
BRANCH  11  15
ATOM     15  O   UNL d   1     -42.548-122.100 -54.812  0.00  0.00    -0.326 OA
ATOM     16  C   UNL d   1     -42.906-121.362 -54.755  0.00  0.00     0.181 C 
ENDBRANCH  11  15
BRANCH  12  17
ATOM     17  O   UNL d   1     -41.798-123.571 -54.983  0.00  0.00    -0.326 OA
ATOM     18  C   UNL d   1     -41.123-123.795 -55.396  0.00  0.00     0.181 C 
ENDBRANCH  12  17
ENDBRANCH   4   9
BRANCH   5  19
ATOM     19  C   UNL d   1     -42.375-122.913 -49.592  0.00  0.00     0.126 A 
ATOM     20  O   UNL d   1     -42.057-122.983 -48.839  0.00  0.00    -0.298 OA
ATOM     21  C   UNL d   1     -42.544-123.485 -48.401  0.00  0.00     0.134 A 
ATOM     22 BR   UNL d   1     -42.426-123.706 -47.613  0.00  0.00    -0.022 Br
ATOM     23  C   UNL d   1     -43.165-123.727 -48.881  0.00  0.00     0.034 A 
ATOM     24  C   UNL d   1     -43.062-123.371 -49.623  0.00  0.00     0.029 A 
ENDBRANCH   5  19
TORSDOF 4
ENDMDL
