MODEL 1
REMARK VINA RESULT:       1.0      0.000      0.000
REMARK  6 active torsions:
REMARK  status: ('A' for Active; 'I' for Inactive)
REMARK    1  A    between atoms: C_3  and  C_1 
REMARK    2  A    between atoms: C_7  and  C_2 
REMARK       I    between atoms: N_5  and  C_3 
REMARK    3  A    between atoms: C_6  and  N_5 
REMARK    4  A    between atoms: N_10  and  C_6 
REMARK    5  A    between atoms: C_11  and  N_10 
REMARK    6  A    between atoms: O_18  and  C_15 
ROOT
ATOM      1  C   UNL d   1      58.147   0.073  30.592  0.00  0.00     0.285 C 
ATOM      2  N   UNL d   1      57.617   0.358  31.144  0.00  0.00    -0.179 NA
ATOM      3  O   UNL d   1      58.789  -0.381  30.848  0.00  0.00    -0.265 OA
ENDROOT
BRANCH   1   4
ATOM      4  C   UNL d   1      58.060   0.223  29.793  0.00  0.00     0.103 A 
ATOM      5  C   UNL d   1      58.650   0.115  29.225  0.00  0.00     0.116 A 
ATOM      6  N   UNL d   1      58.334   0.329  28.497  0.00  0.00    -0.126 NA
ATOM      7  O   UNL d   1      57.553   0.569  28.612  0.00  0.00    -0.211 OA
ATOM      8  C   UNL d   1      57.395   0.501  29.406  0.00  0.00     0.131 A 
ATOM      9  C   UNL d   1      56.681   0.682  29.763  0.00  0.00     0.029 C 
BRANCH   5  10
ATOM     10  C   UNL d   1      59.413  -0.158  29.362  0.00  0.00     0.031 A 
ATOM     11  C   UNL d   1      59.599  -0.945  29.227  0.00  0.00     0.059 A 
ATOM     12 CL   UNL d   1      59.021  -1.460  28.955  0.00  0.00    -0.082 Cl
ATOM     13  C   UNL d   1      60.358  -1.211  29.365  0.00  0.00     0.011 A 
ATOM     14  C   UNL d   1      60.942  -0.693  29.640  0.00  0.00     0.001 A 
ATOM     15  C   UNL d   1      60.748   0.095  29.773  0.00  0.00     0.000 A 
ATOM     16  C   UNL d   1      59.982   0.375  29.637  0.00  0.00     0.002 A 
ENDBRANCH   5  10
ENDBRANCH   1   4
BRANCH   2  17
ATOM     17  C   UNL d   1      57.704   0.209  31.943  0.00  0.00     0.224 C 
ATOM     18  S   UNL d   1      58.217   0.682  32.387  0.00  0.00    -0.037 SA
BRANCH  17  19
ATOM     19  N   UNL d   1      57.294  -0.400  32.310  0.00  0.00    -0.215 NA
BRANCH  19  20
ATOM     20  C   UNL d   1      56.715  -0.222  32.860  0.00  0.00     0.106 A 
ATOM     21  C   UNL d   1      56.109  -0.776  33.017  0.00  0.00     0.112 A 
ATOM     22  C   UNL d   1      55.523  -0.596  33.572  0.00  0.00     0.026 A 
ATOM     23  C   UNL d   1      55.538   0.127  33.969  0.00  0.00     0.002 A 
ATOM     24  C   UNL d   1      56.136   0.679  33.817  0.00  0.00     0.002 A 
ATOM     25  C   UNL d   1      56.723   0.503  33.262  0.00  0.00     0.021 A 
BRANCH  21  26
ATOM     26  O   UNL d   1      56.101  -1.493  32.618  0.00  0.00    -0.327 OA
ATOM     27  C   UNL d   1      55.417  -1.947  32.608  0.00  0.00     0.181 C 
ENDBRANCH  21  26
ENDBRANCH  19  20
ENDBRANCH  17  19
ENDBRANCH   2  17
TORSDOF 6
ENDMDL
MODEL 2
REMARK VINA RESULT:       2.2      1.617      4.772
REMARK  6 active torsions:
REMARK  status: ('A' for Active; 'I' for Inactive)
REMARK    1  A    between atoms: C_3  and  C_1 
REMARK    2  A    between atoms: C_7  and  C_2 
REMARK       I    between atoms: N_5  and  C_3 
REMARK    3  A    between atoms: C_6  and  N_5 
REMARK    4  A    between atoms: N_10  and  C_6 
REMARK    5  A    between atoms: C_11  and  N_10 
REMARK    6  A    between atoms: O_18  and  C_15 
ROOT
ATOM      1  C   UNL d   1      56.996  -0.275  32.073  0.00  0.00     0.285 C 
ATOM      2  N   UNL d   1      57.695  -0.326  31.653  0.00  0.00    -0.179 NA
ATOM      3  O   UNL d   1      56.731   0.467  32.324  0.00  0.00    -0.265 OA
ENDROOT
BRANCH   1   4
ATOM      4  C   UNL d   1      56.552  -0.937  32.253  0.00  0.00     0.103 A 
ATOM      5  C   UNL d   1      56.067  -1.015  32.917  0.00  0.00     0.116 A 
ATOM      6  N   UNL d   1      55.722  -1.761  32.886  0.00  0.00    -0.126 NA
ATOM      7  O   UNL d   1      55.992  -2.145  32.207  0.00  0.00    -0.211 OA
ATOM      8  C   UNL d   1      56.497  -1.634  31.828  0.00  0.00     0.131 A 
ATOM      9  C   UNL d   1      56.892  -1.793  31.128  0.00  0.00     0.029 C 
BRANCH   5  10
ATOM     10  C   UNL d   1      55.949  -0.449  33.502  0.00  0.00     0.031 A 
ATOM     11  C   UNL d   1      55.216  -0.091  33.585  0.00  0.00     0.059 A 
ATOM     12 CL   UNL d   1      54.601  -0.298  33.084  0.00  0.00    -0.082 Cl
ATOM     13  C   UNL d   1      55.104   0.469  34.167  0.00  0.00     0.011 A 
ATOM     14  C   UNL d   1      55.724   0.680  34.675  0.00  0.00     0.001 A 
ATOM     15  C   UNL d   1      56.456   0.316  34.584  0.00  0.00     0.000 A 
ATOM     16  C   UNL d   1      56.580  -0.253  33.998  0.00  0.00     0.002 A 
ENDBRANCH   5  10
ENDBRANCH   1   4
BRANCH   2  17
ATOM     17  C   UNL d   1      58.139   0.335  31.474  0.00  0.00     0.224 C 
ATOM     18  S   UNL d   1      58.601   0.682  32.065  0.00  0.00    -0.037 SA
BRANCH  17  19
ATOM     19  N   UNL d   1      58.136   0.661  30.720  0.00  0.00    -0.215 NA
BRANCH  19  20
ATOM     20  C   UNL d   1      58.809   0.616  30.258  0.00  0.00     0.106 A 
ATOM     21  C   UNL d   1      58.740   0.617  29.425  0.00  0.00     0.112 A 
ATOM     22  C   UNL d   1      59.421   0.572  28.958  0.00  0.00     0.026 A 
ATOM     23  C   UNL d   1      60.164   0.526  29.313  0.00  0.00     0.002 A 
ATOM     24  C   UNL d   1      60.238   0.525  30.138  0.00  0.00     0.002 A 
ATOM     25  C   UNL d   1      59.559   0.570  30.608  0.00  0.00     0.021 A 
BRANCH  21  26
ATOM     26  O   UNL d   1      57.998   0.662  29.079  0.00  0.00    -0.327 OA
ATOM     27  C   UNL d   1      57.791   0.133  28.487  0.00  0.00     0.181 C 
ENDBRANCH  21  26
ENDBRANCH  19  20
ENDBRANCH  17  19
ENDBRANCH   2  17
TORSDOF 6
ENDMDL
