MODEL 1
REMARK VINA RESULT:      -0.9      0.000      0.000
REMARK  6 active torsions:
REMARK  status: ('A' for Active; 'I' for Inactive)
REMARK    1  A    between atoms: O_8  and  C_2 
REMARK    2  A    between atoms: C_10  and  C_5 
REMARK    3  A    between atoms: C_21  and  O_8 
REMARK    4  A    between atoms: N_9  and  C_10 
REMARK    5  A    between atoms: C_12  and  C_15 
REMARK    6  A    between atoms: O_26  and  C_12 
ROOT
ATOM      1  C   UNL d   1      57.721   0.681  31.976  0.00  0.00     0.108 A 
ATOM      2  C   UNL d   1      58.607   0.680  30.571  0.00  0.00     0.161 A 
ATOM      3  C   UNL d   1      58.558   0.681  32.007  0.00  0.00     0.064 A 
ATOM      4  C   UNL d   1      58.995   0.681  31.313  0.00  0.00     0.222 A 
ATOM      5  C   UNL d   1      57.278   0.681  32.678  0.00  0.00     0.079 A 
ATOM      6  O   UNL d   1      57.327   0.680  31.246  0.00  0.00    -0.305 OA
ATOM      7  C   UNL d   1      57.777   0.680  30.539  0.00  0.00     0.126 A 
ATOM      8  C   UNL d   1      58.934   0.681  32.749  0.00  0.00     0.009 A 
ATOM      9  C   UNL d   1      57.660   0.681  33.408  0.00  0.00     0.199 A 
ATOM     10  O   UNL d   1      59.821   0.681  31.340  0.00  0.00    -0.284 OA
ATOM     11  C   UNL d   1      58.492   0.682  33.443  0.00  0.00     0.042 A 
ATOM     12  O   UNL d   1      57.225   0.682  34.102  0.00  0.00    -0.286 OA
ATOM     13  C   UNL d   1      57.396   0.679  29.809  0.00  0.00     0.029 C 
ENDROOT
BRANCH   2  14
ATOM     14  O   UNL d   1      59.049   0.680  29.876  0.00  0.00    -0.302 OA
BRANCH  14  15
ATOM     15  C   UNL d   1      59.358  -0.025  29.587  0.00  0.00     0.100 A 
ATOM     16  C   UNL d   1      59.031  -0.372  28.915  0.00  0.00     0.025 A 
ATOM     17  C   UNL d   1      59.340  -1.078  28.626  0.00  0.00     0.007 A 
ATOM     18  C   UNL d   1      59.977  -1.437  29.007  0.00  0.00     0.063 A 
ATOM     19  C   UNL d   1      60.305  -1.082  29.688  0.00  0.00     0.007 A 
ATOM     20  C   UNL d   1      59.995  -0.382  29.971  0.00  0.00     0.025 A 
BRANCH  18  21
ATOM     21  C   UNL d   1      60.290  -2.145  28.720  0.00  0.00     0.296 C 
ATOM     22  O   UNL d   1      61.100  -2.217  28.582  0.00  0.00    -0.259 OA
BRANCH  21  23
ATOM     23  O   UNL d   1      59.795  -2.790  28.566  0.00  0.00    -0.296 OA
ATOM     24  C   UNL d   1      60.092  -3.556  28.640  0.00  0.00     0.185 C 
ENDBRANCH  21  23
ENDBRANCH  18  21
ENDBRANCH  14  15
ENDBRANCH   2  14
BRANCH   5  25
ATOM     25  C   UNL d   1      56.462   0.681  32.643  0.00  0.00     0.086 C 
BRANCH  25  26
ATOM     26  N   UNL d   1      56.039   0.008  32.874  0.00  0.00    -0.300 N 
ATOM     27  C   UNL d   1      55.442   0.071  33.440  0.00  0.00     0.100 A 
ATOM     28  C   UNL d   1      55.024  -0.597  33.668  0.00  0.00     0.100 A 
ATOM     29  N   UNL d   1      55.196  -1.328  33.337  0.00  0.00    -0.299 N 
ATOM     30  C   UNL d   1      55.796  -1.392  32.768  0.00  0.00     0.100 A 
ATOM     31  C   UNL d   1      54.772  -2.005  33.567  0.00  0.00     0.100 C 
ATOM     32  C   UNL d   1      56.219  -0.719  32.537  0.00  0.00     0.100 A 
ENDBRANCH  25  26
ENDBRANCH   5  25
TORSDOF 6
ENDMDL
