MODEL 1
REMARK VINA RESULT:      54.1      0.000      0.000
REMARK  5 active torsions:
REMARK  status: ('A' for Active; 'I' for Inactive)
REMARK    1  A    between atoms: C_11  and  C_3 
REMARK    2  A    between atoms: C_14  and  C_7 
REMARK    3  A    between atoms: O_18  and  C_11 
REMARK    4  A    between atoms: C_16  and  C_20 
REMARK    5  A    between atoms: C_20  and  O_18 
ROOT
ATOM      1  C   UNL d   1      42.913 -15.016  37.210  0.00  0.00     0.172 A 
ATOM      2  C   UNL d   1      43.690 -15.232  37.052  0.00  0.00     0.094 A 
ATOM      3  C   UNL d   1      44.164 -14.055  37.693  0.00  0.00     0.081 A 
ATOM      4  C   UNL d   1      43.841 -15.939  36.646  0.00  0.00     0.286 A 
ATOM      5  N   UNL d   1      42.291 -15.491  36.971  0.00  0.00    -0.172 NA
ATOM      6  N   UNL d   1      43.213 -16.413  36.408  0.00  0.00    -0.152 NA
ATOM      7  C   UNL d   1      44.315 -14.754  37.292  0.00  0.00     0.014 A 
ATOM      8  C   UNL d   1      43.383 -13.829  37.857  0.00  0.00     0.088 A 
ATOM      9  N   UNL d   1      42.756 -14.315  37.612  0.00  0.00    -0.226 NA
ATOM     10  C   UNL d   1      42.440 -16.190  36.570  0.00  0.00     0.373 A 
ATOM     11  O   UNL d   1      44.622 -16.165  36.483  0.00  0.00    -0.265 OA
ATOM     12  O   UNL d   1      41.809 -16.666  36.331  0.00  0.00    -0.242 OA
ATOM     13  C   UNL d   1      43.229 -13.129  38.258  0.00  0.00     0.021 C 
ENDROOT
BRANCH   3  14
ATOM     14  C   UNL d   1      44.783 -13.571  37.937  0.00  0.00     0.302 C 
ATOM     15  O   UNL d   1      45.127 -13.043  37.398  0.00  0.00    -0.259 OA
BRANCH  14  16
ATOM     16  O   UNL d   1      45.062 -13.608  38.713  0.00  0.00    -0.271 OA
BRANCH  16  17
ATOM     17  C   UNL d   1      45.100 -12.922  39.173  0.00  0.00     0.126 C 
BRANCH  17  18
ATOM     18  C   UNL d   1      45.335 -12.969  39.963  0.00  0.00     0.027 C 
ATOM     19  C   UNL d   1      45.095 -12.397  40.503  0.00  0.00     0.002 C 
ENDBRANCH  17  18
ENDBRANCH  16  17
ENDBRANCH  14  16
ENDBRANCH   3  14
BRANCH   7  20
ATOM     20  C   UNL d   1      45.092 -14.978  37.130  0.00  0.00     0.001 A 
ATOM     21  C   UNL d   1      45.496 -14.630  36.499  0.00  0.00     0.000 A 
ATOM     22  C   UNL d   1      46.277 -14.853  36.332  0.00  0.00     0.000 A 
ATOM     23  C   UNL d   1      46.646 -15.422  36.798  0.00  0.00     0.000 A 
ATOM     24  C   UNL d   1      46.242 -15.770  37.429  0.00  0.00     0.000 A 
ATOM     25  C   UNL d   1      45.460 -15.544  37.592  0.00  0.00     0.000 A 
ENDBRANCH   7  20
TORSDOF 5
ENDMDL
MODEL 2
REMARK VINA RESULT:      54.6      5.361      6.780
REMARK  5 active torsions:
REMARK  status: ('A' for Active; 'I' for Inactive)
REMARK    1  A    between atoms: C_11  and  C_3 
REMARK    2  A    between atoms: C_14  and  C_7 
REMARK    3  A    between atoms: O_18  and  C_11 
REMARK    4  A    between atoms: C_16  and  C_20 
REMARK    5  A    between atoms: C_20  and  O_18 
ROOT
ATOM      1  C   UNL d   1      44.928 -12.645  42.475  0.00  0.00     0.172 A 
ATOM      2  C   UNL d   1      45.316 -13.236  42.892  0.00  0.00     0.094 A 
ATOM      3  C   UNL d   1      44.183 -13.409  43.733  0.00  0.00     0.081 A 
ATOM      4  C   UNL d   1      46.089 -13.447  42.675  0.00  0.00     0.286 A 
ATOM      5  N   UNL d   1      45.295 -12.264  41.850  0.00  0.00    -0.172 NA
ATOM      6  N   UNL d   1      46.454 -13.062  42.047  0.00  0.00    -0.152 NA
ATOM      7  C   UNL d   1      44.946 -13.618  43.520  0.00  0.00     0.014 A 
ATOM      8  C   UNL d   1      43.784 -12.813  43.318  0.00  0.00     0.088 A 
ATOM      9  N   UNL d   1      44.161 -12.431  42.685  0.00  0.00    -0.226 NA
ATOM     10  C   UNL d   1      46.058 -12.472  41.636  0.00  0.00     0.373 A 
ATOM     11  O   UNL d   1      46.488 -14.042  43.091  0.00  0.00    -0.265 OA
ATOM     12  O   UNL d   1      46.425 -12.085  41.004  0.00  0.00    -0.242 OA
ATOM     13  C   UNL d   1      43.019 -12.601  43.529  0.00  0.00     0.021 C 
ENDROOT
BRANCH   3  14
ATOM     14  C   UNL d   1      43.806 -13.786  44.360  0.00  0.00     0.302 C 
ATOM     15  O   UNL d   1      44.259 -14.145  44.954  0.00  0.00    -0.259 OA
BRANCH  14  16
ATOM     16  O   UNL d   1      42.982 -13.807  44.400  0.00  0.00    -0.271 OA
BRANCH  16  17
ATOM     17  C   UNL d   1      42.598 -14.492  44.657  0.00  0.00     0.126 C 
BRANCH  17  18
ATOM     18  C   UNL d   1      41.826 -14.447  44.950  0.00  0.00     0.027 C 
ATOM     19  C   UNL d   1      41.331 -15.102  44.920  0.00  0.00     0.002 C 
ENDBRANCH  17  18
ENDBRANCH  16  17
ENDBRANCH  14  16
ENDBRANCH   3  14
BRANCH   7  20
ATOM     20  C   UNL d   1      45.344 -14.211  43.933  0.00  0.00     0.001 A 
ATOM     21  C   UNL d   1      46.013 -14.021  44.379  0.00  0.00     0.000 A 
ATOM     22  C   UNL d   1      46.416 -14.615  44.796  0.00  0.00     0.000 A 
ATOM     23  C   UNL d   1      46.144 -15.391  44.763  0.00  0.00     0.000 A 
ATOM     24  C   UNL d   1      45.475 -15.580  44.318  0.00  0.00     0.000 A 
ATOM     25  C   UNL d   1      45.075 -14.984  43.902  0.00  0.00     0.000 A 
ENDBRANCH   7  20
TORSDOF 5
ENDMDL
MODEL 3
REMARK VINA RESULT:      54.7      1.664      2.599
REMARK  5 active torsions:
REMARK  status: ('A' for Active; 'I' for Inactive)
REMARK    1  A    between atoms: C_11  and  C_3 
REMARK    2  A    between atoms: C_14  and  C_7 
REMARK    3  A    between atoms: O_18  and  C_11 
REMARK    4  A    between atoms: C_16  and  C_20 
REMARK    5  A    between atoms: C_20  and  O_18 
ROOT
ATOM      1  C   UNL d   1      43.311 -16.041  37.434  0.00  0.00     0.172 A 
ATOM      2  C   UNL d   1      43.958 -15.612  37.166  0.00  0.00     0.094 A 
ATOM      3  C   UNL d   1      44.827 -16.374  37.994  0.00  0.00     0.081 A 
ATOM      4  C   UNL d   1      43.843 -15.008  36.609  0.00  0.00     0.286 A 
ATOM      5  N   UNL d   1      42.558 -15.877  37.158  0.00  0.00    -0.172 NA
ATOM      6  N   UNL d   1      43.085 -14.847  36.334  0.00  0.00    -0.152 NA
ATOM      7  C   UNL d   1      44.714 -15.777  37.444  0.00  0.00     0.014 A 
ATOM      8  C   UNL d   1      44.179 -16.812  38.270  0.00  0.00     0.088 A 
ATOM      9  N   UNL d   1      43.418 -16.641  37.986  0.00  0.00    -0.226 NA
ATOM     10  C   UNL d   1      42.444 -15.281  36.608  0.00  0.00     0.373 A 
ATOM     11  O   UNL d   1      44.490 -14.570  36.333  0.00  0.00    -0.265 OA
ATOM     12  O   UNL d   1      41.682 -15.120  36.332  0.00  0.00    -0.242 OA
ATOM     13  C   UNL d   1      44.289 -17.411  38.822  0.00  0.00     0.021 C 
ENDROOT
BRANCH   3  14
ATOM     14  C   UNL d   1      45.580 -16.545  38.277  0.00  0.00     0.302 C 
ATOM     15  O   UNL d   1      46.224 -16.546  37.755  0.00  0.00    -0.259 OA
BRANCH  14  16
ATOM     16  O   UNL d   1      45.697 -16.715  39.076  0.00  0.00    -0.271 OA
BRANCH  16  17
ATOM     17  C   UNL d   1      46.370 -17.131  39.316  0.00  0.00     0.126 C 
BRANCH  17  18
ATOM     18  C   UNL d   1      46.435 -17.394  40.097  0.00  0.00     0.027 C 
ATOM     19  C   UNL d   1      46.643 -18.173  40.258  0.00  0.00     0.002 C 
ENDBRANCH  17  18
ENDBRANCH  16  17
ENDBRANCH  14  16
ENDBRANCH   3  14
BRANCH   7  20
ATOM     20  C   UNL d   1      45.359 -15.341  37.169  0.00  0.00     0.001 A 
ATOM     21  C   UNL d   1      45.484 -14.574  37.449  0.00  0.00     0.000 A 
ATOM     22  C   UNL d   1      46.131 -14.132  37.174  0.00  0.00     0.000 A 
ATOM     23  C   UNL d   1      46.645 -14.463  36.623  0.00  0.00     0.000 A 
ATOM     24  C   UNL d   1      46.519 -15.230  36.344  0.00  0.00     0.000 A 
ATOM     25  C   UNL d   1      45.871 -15.668  36.620  0.00  0.00     0.000 A 
ENDBRANCH   7  20
TORSDOF 5
ENDMDL
