MODEL 1
REMARK VINA RESULT:      85.5      0.000      0.000
REMARK  5 active torsions:
REMARK  status: ('A' for Active; 'I' for Inactive)
REMARK    1  A    between atoms: C_5  and  N_1 
REMARK    2  A    between atoms: C_8  and  C_3 
REMARK    3  A    between atoms: C_7  and  C_4 
REMARK    4  A    between atoms: N_12  and  C_5 
REMARK    5  A    between atoms: N_11  and  C_10 
ROOT
ATOM      1  N   UNL d   1     -55.271-100.773 -43.200  0.00  0.00    -0.203 N 
ATOM      2  N   UNL d   1     -54.906-101.192 -42.605  0.00  0.00    -0.163 NA
ATOM      3  C   UNL d   1     -55.422-101.305 -42.001  0.00  0.00     0.103 A 
ATOM      4  C   UNL d   1     -56.055-100.611 -42.966  0.00  0.00     0.087 A 
ATOM      5  C   UNL d   1     -56.146-100.948 -42.210  0.00  0.00     0.040 A 
ENDROOT
BRANCH   4   6
ATOM      6  C   UNL d   1     -56.641-100.202 -43.379  0.00  0.00     0.018 A 
ATOM      7  C   UNL d   1     -56.577-100.089 -44.168  0.00  0.00     0.003 A 
ATOM      8  C   UNL d   1     -57.165 -99.679 -44.586  0.00  0.00     0.018 A 
ATOM      9  C   UNL d   1     -57.819 -99.389 -44.174  0.00  0.00     0.064 A 
ATOM     10  C   UNL d   1     -57.891 -99.501 -43.369  0.00  0.00     0.018 A 
ATOM     11  C   UNL d   1     -57.295 -99.912 -42.969  0.00  0.00     0.003 A 
BRANCH   9  12
ATOM     12  N   UNL d   1     -58.395 -98.989 -44.573  0.00  0.00    -0.301 N 
ATOM     13  C   UNL d   1     -59.056 -98.756 -44.180  0.00  0.00     0.100 C 
ATOM     14  C   UNL d   1     -58.300 -98.827 -45.365  0.00  0.00     0.100 C 
ENDBRANCH   9  12
ENDBRANCH   4   6
BRANCH   1  15
ATOM     15  C   UNL d   1     -54.917-100.543 -43.923  0.00  0.00     0.222 C 
ATOM     16  S   UNL d   1     -54.712 -99.741 -44.038  0.00  0.00    -0.037 SA
BRANCH  15  17
ATOM     17  N   UNL d   1     -54.771-101.113 -44.521  0.00  0.00    -0.214 NA
ATOM     18  C   UNL d   1     -54.719-100.886 -45.325  0.00  0.00     0.122 C 
ENDBRANCH  15  17
ENDBRANCH   1  15
BRANCH   3  19
ATOM     19  C   UNL d   1     -55.240-101.706 -41.313  0.00  0.00     0.019 A 
ATOM     20  C   UNL d   1     -55.411-101.347 -40.587  0.00  0.00     0.002 A 
ATOM     21  C   UNL d   1     -55.236-101.734 -39.894  0.00  0.00     0.000 A 
ATOM     22  C   UNL d   1     -54.888-102.483 -39.915  0.00  0.00     0.000 A 
ATOM     23  C   UNL d   1     -54.715-102.845 -40.650  0.00  0.00     0.000 A 
ATOM     24  C   UNL d   1     -54.711-102.873 -39.210  0.00  0.00     0.000 C 
ATOM     25  C   UNL d   1     -54.901-102.437 -41.340  0.00  0.00     0.002 A 
ENDBRANCH   3  19
TORSDOF 5
ENDMDL
