MODEL 1
REMARK VINA RESULT:      17.3      0.000      0.000
REMARK  7 active torsions:
REMARK  status: ('A' for Active; 'I' for Inactive)
REMARK    1  A    between atoms: C_3  and  C_1 
REMARK    2  A    between atoms: C_6  and  C_2 
REMARK       I    between atoms: N_5  and  C_3 
REMARK    3  A    between atoms: C_9  and  N_5 
REMARK    4  A    between atoms: N_10  and  C_9 
REMARK    5  A    between atoms: C_15  and  N_10 
REMARK    6  A    between atoms: C_13  and  C_15 
REMARK    7  A    between atoms: C_17  and  C_13 
ROOT
ATOM      1  C   UNL d   1      46.257 -17.385  43.702  0.00  0.00     0.285 C 
ATOM      2  N   UNL d   1      45.890 -16.649  43.646  0.00  0.00    -0.179 NA
ATOM      3  O   UNL d   1      46.493 -17.679  44.436  0.00  0.00    -0.265 OA
ENDROOT
BRANCH   1   4
ATOM      4  C   UNL d   1      46.388 -17.829  43.008  0.00  0.00     0.103 A 
ATOM      5  C   UNL d   1      46.368 -18.645  42.946  0.00  0.00     0.116 A 
ATOM      6  N   UNL d   1      46.527 -18.848  42.167  0.00  0.00    -0.126 NA
ATOM      7  O   UNL d   1      46.647 -18.149  41.746  0.00  0.00    -0.211 OA
ATOM      8  C   UNL d   1      46.561 -17.522  42.266  0.00  0.00     0.131 A 
ATOM      9  C   UNL d   1      46.637 -16.723  42.067  0.00  0.00     0.029 C 
BRANCH   5  10
ATOM     10  C   UNL d   1      46.217 -19.200  43.537  0.00  0.00     0.031 A 
ATOM     11  C   UNL d   1      45.645 -19.780  43.426  0.00  0.00     0.059 A 
ATOM     12 CL   UNL d   1      45.210 -19.812  42.713  0.00  0.00    -0.082 Cl
ATOM     13  C   UNL d   1      45.496 -20.330  44.009  0.00  0.00     0.011 A 
ATOM     14  C   UNL d   1      45.922 -20.302  44.714  0.00  0.00     0.001 A 
ATOM     15  C   UNL d   1      46.491 -19.729  44.829  0.00  0.00     0.000 A 
ATOM     16  C   UNL d   1      46.645 -19.173  44.243  0.00  0.00     0.002 A 
ENDBRANCH   5  10
ENDBRANCH   1   4
BRANCH   2  17
ATOM     17  C   UNL d   1      45.757 -16.205  44.327  0.00  0.00     0.224 C 
ATOM     18  S   UNL d   1      45.330 -16.532  44.953  0.00  0.00    -0.037 SA
BRANCH  17  19
ATOM     19  N   UNL d   1      46.052 -15.438  44.379  0.00  0.00    -0.212 NA
BRANCH  19  20
ATOM     20  C   UNL d   1      45.694 -14.898  44.892  0.00  0.00     0.143 C 
BRANCH  20  21
ATOM     21  C   UNL d   1      45.133 -14.358  44.606  0.00  0.00     0.215 C 
ATOM     22  O   UNL d   1      44.344 -14.573  44.544  0.00  0.00    -0.285 OA
BRANCH  21  23
ATOM     23  C   UNL d   1      45.373 -13.601  44.384  0.00  0.00     0.041 A 
ATOM     24  C   UNL d   1      45.210 -13.316  43.632  0.00  0.00     0.003 A 
ATOM     25  C   UNL d   1      45.449 -12.559  43.408  0.00  0.00     0.000 A 
ATOM     26  C   UNL d   1      45.857 -12.083  43.948  0.00  0.00     0.000 A 
ATOM     27  C   UNL d   1      46.021 -12.368  44.700  0.00  0.00     0.000 A 
ATOM     28  C   UNL d   1      45.781 -13.125  44.924  0.00  0.00     0.003 A 
ENDBRANCH  21  23
ENDBRANCH  20  21
ENDBRANCH  19  20
ENDBRANCH  17  19
ENDBRANCH   2  17
TORSDOF 7
ENDMDL
MODEL 2
REMARK VINA RESULT:      19.0      1.188      2.069
REMARK  7 active torsions:
REMARK  status: ('A' for Active; 'I' for Inactive)
REMARK    1  A    between atoms: C_3  and  C_1 
REMARK    2  A    between atoms: C_6  and  C_2 
REMARK       I    between atoms: N_5  and  C_3 
REMARK    3  A    between atoms: C_9  and  N_5 
REMARK    4  A    between atoms: N_10  and  C_9 
REMARK    5  A    between atoms: C_15  and  N_10 
REMARK    6  A    between atoms: C_13  and  C_15 
REMARK    7  A    between atoms: C_17  and  C_13 
ROOT
ATOM      1  C   UNL d   1      46.197 -18.199  43.775  0.00  0.00     0.285 C 
ATOM      2  N   UNL d   1      45.871 -17.918  44.478  0.00  0.00    -0.179 NA
ATOM      3  O   UNL d   1      46.585 -17.683  43.260  0.00  0.00    -0.265 OA
ENDROOT
BRANCH   1   4
ATOM      4  C   UNL d   1      46.130 -19.009  43.590  0.00  0.00     0.103 A 
ATOM      5  C   UNL d   1      46.025 -19.325  42.841  0.00  0.00     0.116 A 
ATOM      6  N   UNL d   1      45.988 -20.143  42.911  0.00  0.00    -0.126 NA
ATOM      7  O   UNL d   1      46.071 -20.329  43.710  0.00  0.00    -0.211 OA
ATOM      8  C   UNL d   1      46.159 -19.629  44.126  0.00  0.00     0.131 A 
ATOM      9  C   UNL d   1      46.258 -19.571  44.945  0.00  0.00     0.029 C 
BRANCH   5  10
ATOM     10  C   UNL d   1      45.963 -18.930  42.121  0.00  0.00     0.031 A 
ATOM     11  C   UNL d   1      45.226 -18.807  41.777  0.00  0.00     0.059 A 
ATOM     12 CL   UNL d   1      44.534 -19.083  42.154  0.00  0.00    -0.082 Cl
ATOM     13  C   UNL d   1      45.163 -18.416  41.065  0.00  0.00     0.011 A 
ATOM     14  C   UNL d   1      45.844 -18.142  40.689  0.00  0.00     0.001 A 
ATOM     15  C   UNL d   1      46.577 -18.260  41.026  0.00  0.00     0.000 A 
ATOM     16  C   UNL d   1      46.644 -18.655  41.745  0.00  0.00     0.002 A 
ENDBRANCH   5  10
ENDBRANCH   1   4
BRANCH   2  17
ATOM     17  C   UNL d   1      45.933 -17.119  44.668  0.00  0.00     0.224 C 
ATOM     18  S   UNL d   1      46.647 -16.820  44.955  0.00  0.00    -0.037 SA
BRANCH  17  19
ATOM     19  N   UNL d   1      45.282 -16.623  44.571  0.00  0.00    -0.212 NA
BRANCH  19  20
ATOM     20  C   UNL d   1      45.387 -15.874  44.241  0.00  0.00     0.143 C 
BRANCH  20  21
ATOM     21  C   UNL d   1      44.954 -15.227  44.525  0.00  0.00     0.215 C 
ATOM     22  O   UNL d   1      44.220 -15.339  44.875  0.00  0.00    -0.285 OA
BRANCH  21  23
ATOM     23  C   UNL d   1      45.266 -14.466  44.456  0.00  0.00     0.041 A 
ATOM     24  C   UNL d   1      44.912 -13.914  43.963  0.00  0.00     0.003 A 
ATOM     25  C   UNL d   1      45.222 -13.153  43.893  0.00  0.00     0.000 A 
ATOM     26  C   UNL d   1      45.897 -12.946  44.325  0.00  0.00     0.000 A 
ATOM     27  C   UNL d   1      46.251 -13.497  44.818  0.00  0.00     0.000 A 
ATOM     28  C   UNL d   1      45.940 -14.259  44.888  0.00  0.00     0.003 A 
ENDBRANCH  21  23
ENDBRANCH  20  21
ENDBRANCH  19  20
ENDBRANCH  17  19
ENDBRANCH   2  17
TORSDOF 7
ENDMDL
