MODEL 1
REMARK VINA RESULT:      19.6      0.000      0.000
REMARK  2 active torsions:
REMARK  status: ('A' for Active; 'I' for Inactive)
REMARK    1  A    between atoms: N_2  and  S_1 
REMARK    2  A    between atoms: C_3  and  S_1 
ROOT
ATOM      1  N   UNL d   1      13.587  12.186  -1.645  0.00  0.00    -0.231 N 
ATOM      2  C   UNL d   1      14.251  12.533  -1.309  0.00  0.00     0.075 A 
ATOM      3  C   UNL d   1      14.355  12.505  -0.491  0.00  0.00     0.017 A 
ATOM      4  C   UNL d   1      13.018  11.806  -1.172  0.00  0.00     0.092 A 
ATOM      5  C   UNL d   1      14.821  12.914  -1.779  0.00  0.00     0.018 A 
ATOM      6  C   UNL d   1      13.124  11.779  -0.359  0.00  0.00     0.020 A 
ATOM      7  C   UNL d   1      13.797  12.130  -0.015  0.00  0.00     0.003 A 
ATOM      8  C   UNL d   1      15.033  12.860  -0.153  0.00  0.00     0.002 A 
ATOM      9  C   UNL d   1      15.493  13.267  -1.449  0.00  0.00     0.002 A 
ATOM     10  C   UNL d   1      15.601  13.240  -0.631  0.00  0.00     0.000 A 
ENDROOT
BRANCH   1  11
ATOM     11  S   UNL d   1      13.484  12.215  -2.462  0.00  0.00     0.277 S 
ATOM     12  O   UNL d   1      12.795  12.657  -2.360  0.00  0.00    -0.199 OA
ATOM     13  O   UNL d   1      14.164  11.779  -2.563  0.00  0.00    -0.199 OA
BRANCH  11  14
ATOM     14  C   UNL d   1      13.385  12.243  -3.265  0.00  0.00     0.133 A 
ATOM     15  S   UNL d   1      12.838  12.719  -3.655  0.00  0.00    -0.074 SA
ATOM     16  C   UNL d   1      12.925  12.571  -4.492  0.00  0.00     0.036 A 
ATOM     17  C   UNL d   1      13.522  12.013  -4.564  0.00  0.00     0.008 A 
ATOM     18  C   UNL d   1      13.819  11.794  -3.854  0.00  0.00     0.020 A 
ENDBRANCH  11  14
ENDBRANCH   1  11
TORSDOF 2
ENDMDL
MODEL 2
REMARK VINA RESULT:      19.6      1.218      3.150
REMARK  2 active torsions:
REMARK  status: ('A' for Active; 'I' for Inactive)
REMARK    1  A    between atoms: N_2  and  S_1 
REMARK    2  A    between atoms: C_3  and  S_1 
ROOT
ATOM      1  N   UNL d   1      13.451  12.397  -3.203  0.00  0.00    -0.231 N 
ATOM      2  C   UNL d   1      13.459  13.168  -3.485  0.00  0.00     0.075 A 
ATOM      3  C   UNL d   1      13.139  13.332  -4.228  0.00  0.00     0.017 A 
ATOM      4  C   UNL d   1      13.126  11.780  -3.655  0.00  0.00     0.092 A 
ATOM      5  C   UNL d   1      13.783  13.788  -3.036  0.00  0.00     0.018 A 
ATOM      6  C   UNL d   1      12.809  11.946  -4.393  0.00  0.00     0.020 A 
ATOM      7  C   UNL d   1      12.815  12.727  -4.683  0.00  0.00     0.003 A 
ATOM      8  C   UNL d   1      13.149  14.119  -4.512  0.00  0.00     0.002 A 
ATOM      9  C   UNL d   1      13.794  14.567  -3.312  0.00  0.00     0.002 A 
ATOM     10  C   UNL d   1      13.476  14.735  -4.055  0.00  0.00     0.000 A 
ENDROOT
BRANCH   1  11
ATOM     11  S   UNL d   1      13.770  12.235  -2.461  0.00  0.00     0.277 S 
ATOM     12  O   UNL d   1      13.043  11.934  -2.214  0.00  0.00    -0.199 OA
ATOM     13  O   UNL d   1      14.488  12.532  -2.705  0.00  0.00    -0.199 OA
BRANCH  11  14
ATOM     14  C   UNL d   1      14.085  12.076  -1.732  0.00  0.00     0.133 A 
ATOM     15  S   UNL d   1      13.647  11.912  -1.055  0.00  0.00    -0.074 SA
ATOM     16  C   UNL d   1      14.202  11.780  -0.420  0.00  0.00     0.036 A 
ATOM     17  C   UNL d   1      14.949  11.871  -0.746  0.00  0.00     0.008 A 
ATOM     18  C   UNL d   1      14.919  12.048  -1.526  0.00  0.00     0.020 A 
ENDBRANCH  11  14
ENDBRANCH   1  11
TORSDOF 2
ENDMDL
