MODEL 1
REMARK VINA RESULT:      56.7      0.000      0.000
REMARK  3 active torsions:
REMARK  status: ('A' for Active; 'I' for Inactive)
REMARK    1  A    between atoms: C_10  and  N_1 
REMARK    2  A    between atoms: C_11  and  C_14 
REMARK    3  A    between atoms: O_20  and  C_11 
ROOT
ATOM      1  N   UNL d   1      14.368  14.775  -2.512  0.00  0.00    -0.242 N 
ATOM      2  C   UNL d   1      14.616  14.725  -1.744  0.00  0.00     0.267 A 
ATOM      3  C   UNL d   1      14.454  15.544  -2.796  0.00  0.00     0.267 A 
ATOM      4  C   UNL d   1      14.869  15.490  -1.527  0.00  0.00     0.061 A 
ATOM      5  C   UNL d   1      14.771  15.987  -2.165  0.00  0.00     0.061 A 
ATOM      6  C   UNL d   1      14.977  16.789  -2.113  0.00  0.00     0.005 A 
ATOM      7  C   UNL d   1      15.177  15.779  -0.816  0.00  0.00     0.005 A 
ATOM      8  C   UNL d   1      15.282  17.067  -1.403  0.00  0.00     0.000 A 
ATOM      9  C   UNL d   1      15.380  16.570  -0.765  0.00  0.00     0.000 A 
ATOM     10  O   UNL d   1      14.605  14.032  -1.294  0.00  0.00    -0.267 OA
ATOM     11  O   UNL d   1      14.262  15.832  -3.564  0.00  0.00    -0.267 OA
ATOM     12  C   UNL d   1      15.492  17.893  -1.355  0.00  0.00     0.000 C 
ATOM     13  C   UNL d   1      15.697  16.858  -0.026  0.00  0.00     0.000 C 
ENDROOT
BRANCH   1  14
ATOM     14  C   UNL d   1      14.065  14.193  -3.007  0.00  0.00     0.070 A 
ATOM     15  C   UNL d   1      14.090  13.396  -2.777  0.00  0.00     0.018 A 
ATOM     16  C   UNL d   1      13.792  12.806  -3.259  0.00  0.00     0.007 A 
ATOM     17  C   UNL d   1      13.464  13.024  -3.981  0.00  0.00     0.063 A 
ATOM     18  C   UNL d   1      13.435  13.821  -4.218  0.00  0.00     0.007 A 
ATOM     19  C   UNL d   1      13.739  14.393  -3.720  0.00  0.00     0.018 A 
BRANCH  17  20
ATOM     20  C   UNL d   1      13.151  12.427  -4.490  0.00  0.00     0.296 C 
ATOM     21  O   UNL d   1      12.774  11.781  -4.180  0.00  0.00    -0.259 OA
BRANCH  20  22
ATOM     22  O   UNL d   1      13.238  12.518  -5.301  0.00  0.00    -0.296 OA
ATOM     23  C   UNL d   1      13.133  11.874  -5.795  0.00  0.00     0.185 C 
ENDBRANCH  20  22
ENDBRANCH  17  20
ENDBRANCH   1  14
TORSDOF 3
ENDMDL
