MODEL 1
REMARK VINA RESULT:     119.1      0.000      0.000
REMARK  4 active torsions:
REMARK  status: ('A' for Active; 'I' for Inactive)
REMARK       I    between atoms: C_4  and  N_1 
REMARK    1  A    between atoms: C_7  and  C_3 
REMARK    2  A    between atoms: C_8  and  C_4 
REMARK    3  A    between atoms: C_10  and  C_5 
REMARK    4  A    between atoms: O_23  and  C_18 
ROOT
ATOM      1  N   UNL d   1      59.991  47.129  51.087  0.00  0.00    -0.194 N 
ATOM      2  N   UNL d   1      59.959  46.312  51.091  0.00  0.00    -0.163 NA
ATOM      3  C   UNL d   1      60.786  47.357  51.102  0.00  0.00     0.091 A 
ATOM      4  C   UNL d   1      59.329  47.660  51.072  0.00  0.00     0.286 C 
ATOM      5  C   UNL d   1      60.736  46.034  51.107  0.00  0.00     0.103 A 
ATOM      6  C   UNL d   1      61.234  46.673  51.114  0.00  0.00     0.040 A 
ATOM      7  O   UNL d   1      58.564  47.341  51.058  0.00  0.00    -0.265 OA
ENDROOT
BRANCH   5   8
ATOM      8  C   UNL d   1      60.959  45.239  51.116  0.00  0.00     0.019 A 
ATOM      9  C   UNL d   1      61.107  44.838  50.411  0.00  0.00     0.004 A 
ATOM     10  C   UNL d   1      61.329  44.043  50.419  0.00  0.00     0.024 A 
ATOM     11  C   UNL d   1      61.405  43.646  51.141  0.00  0.00     0.094 A 
ATOM     12  C   UNL d   1      61.258  44.046  51.850  0.00  0.00     0.024 A 
ATOM     13  C   UNL d   1      61.035  44.842  51.838  0.00  0.00     0.004 A 
BRANCH  11  14
ATOM     14  O   UNL d   1      61.628  42.850  51.153  0.00  0.00    -0.328 OA
ATOM     15  C   UNL d   1      62.335  42.623  51.519  0.00  0.00     0.181 C 
ENDBRANCH  11  14
ENDBRANCH   5   8
BRANCH   3  16
ATOM     16  C   UNL d   1      61.060  48.141  51.104  0.00  0.00     0.057 A 
ATOM     17  C   UNL d   1      61.457  48.419  50.449  0.00  0.00     0.197 A 
ATOM     18  O   UNL d   1      61.586  47.948  49.804  0.00  0.00    -0.286 OA
ATOM     19  C   UNL d   1      61.735  49.208  50.447  0.00  0.00     0.042 A 
ATOM     20  C   UNL d   1      61.613  49.707  51.097  0.00  0.00     0.003 A 
ATOM     21  C   UNL d   1      61.210  49.395  51.739  0.00  0.00     0.000 A 
ATOM     22  C   UNL d   1      60.942  48.640  51.745  0.00  0.00     0.005 A 
ENDBRANCH   3  16
BRANCH   4  23
ATOM     23  C   UNL d   1      59.445  48.459  51.070  0.00  0.00     0.087 A 
ATOM     24  S   UNL d   1      59.492  48.912  50.416  0.00  0.00    -0.082 SA
ATOM     25  C   UNL d   1      59.615  49.707  50.667  0.00  0.00     0.036 A 
ATOM     26  C   UNL d   1      59.640  49.708  51.498  0.00  0.00     0.008 A 
ATOM     27  C   UNL d   1      59.534  48.931  51.746  0.00  0.00     0.012 A 
ENDBRANCH   4  23
TORSDOF 4
ENDMDL
