MODEL 1
REMARK VINA RESULT:      -3.1      0.000      0.000
REMARK  3 active torsions:
REMARK  status: ('A' for Active; 'I' for Inactive)
REMARK    1  A    between atoms: N_2  and  S_1 
REMARK    2  A    between atoms: C_3  and  S_1 
REMARK    3  A    between atoms: C_10  and  C_9 
ROOT
ATOM      1  C   UNL d   1      32.635  17.051 -24.222  0.00  0.00     0.104 A 
ATOM      2  C   UNL d   1      32.842  18.446 -23.350  0.00  0.00     0.000 A 
ATOM      3  C   UNL d   1      32.325  17.762 -24.501  0.00  0.00     0.013 A 
ATOM      4  C   UNL d   1      33.047  17.036 -23.510  0.00  0.00     0.013 A 
ATOM      5  C   UNL d   1      33.151  17.736 -23.071  0.00  0.00     0.001 A 
ATOM      6  C   UNL d   1      32.429  18.463 -24.063  0.00  0.00     0.001 A 
ENDROOT
BRANCH   1   7
ATOM      7  S   UNL d   1      32.529  16.360 -24.659  0.00  0.00     0.271 S 
ATOM      8  O   UNL d   1      33.238  16.492 -25.049  0.00  0.00    -0.200 OA
ATOM      9  O   UNL d   1      32.427  15.675 -25.094  0.00  0.00    -0.200 OA
BRANCH   7  10
ATOM     10  N   UNL d   1      31.822  16.228 -24.271  0.00  0.00    -0.226 N 
ATOM     11  C   UNL d   1      31.126  16.564 -24.555  0.00  0.00     0.111 A 
ATOM     12  C   UNL d   1      30.419  16.424 -24.154  0.00  0.00     0.100 A 
ATOM     13  N   UNL d   1      30.405  15.955 -23.481  0.00  0.00    -0.299 N 
ATOM     14  C   UNL d   1      31.097  15.618 -23.194  0.00  0.00     0.100 A 
ATOM     15  C   UNL d   1      29.691  15.822 -23.089  0.00  0.00     0.100 C 
ATOM     16  C   UNL d   1      31.814  15.752 -23.589  0.00  0.00     0.111 A 
ENDBRANCH   7  10
ENDBRANCH   1   7
BRANCH   2  17
ATOM     17  C   UNL d   1      32.941  19.136 -22.924  0.00  0.00     0.000 A 
ATOM     18  C   UNL d   1      33.140  19.842 -23.313  0.00  0.00     0.000 A 
ATOM     19  C   UNL d   1      33.239  20.536 -22.878  0.00  0.00     0.000 A 
ATOM     20  C   UNL d   1      33.142  20.528 -22.061  0.00  0.00     0.000 A 
ATOM     21  C   UNL d   1      32.942  19.821 -21.668  0.00  0.00     0.000 A 
ATOM     22  C   UNL d   1      33.241  21.222 -21.627  0.00  0.00     0.000 C 
ATOM     23  C   UNL d   1      32.844  19.129 -22.106  0.00  0.00     0.000 A 
ENDBRANCH   2  17
TORSDOF 3
ENDMDL
MODEL 2
REMARK VINA RESULT:      -2.4      1.172      4.140
REMARK  3 active torsions:
REMARK  status: ('A' for Active; 'I' for Inactive)
REMARK    1  A    between atoms: N_2  and  S_1 
REMARK    2  A    between atoms: C_3  and  S_1 
REMARK    3  A    between atoms: C_10  and  C_9 
ROOT
ATOM      1  C   UNL d   1      31.664  16.287 -24.411  0.00  0.00     0.104 A 
ATOM      2  C   UNL d   1      30.072  16.223 -23.950  0.00  0.00     0.000 A 
ATOM      3  C   UNL d   1      31.088  16.668 -24.861  0.00  0.00     0.013 A 
ATOM      4  C   UNL d   1      31.446  15.875 -23.733  0.00  0.00     0.013 A 
ATOM      5  C   UNL d   1      30.647  15.843 -23.501  0.00  0.00     0.001 A 
ATOM      6  C   UNL d   1      30.289  16.636 -24.629  0.00  0.00     0.001 A 
ENDROOT
BRANCH   1   7
ATOM      7  S   UNL d   1      32.454  16.321 -24.644  0.00  0.00     0.271 S 
ATOM      8  O   UNL d   1      32.356  15.645 -25.097  0.00  0.00    -0.200 OA
ATOM      9  O   UNL d   1      33.237  16.353 -24.876  0.00  0.00    -0.200 OA
BRANCH   7  10
ATOM     10  N   UNL d   1      32.553  16.995 -24.193  0.00  0.00    -0.226 N 
ATOM     11  C   UNL d   1      32.783  16.935 -23.404  0.00  0.00     0.111 A 
ATOM     12  C   UNL d   1      32.880  17.623 -22.959  0.00  0.00     0.100 A 
ATOM     13  N   UNL d   1      32.748  18.360 -23.293  0.00  0.00    -0.299 N 
ATOM     14  C   UNL d   1      32.518  18.425 -24.079  0.00  0.00     0.100 A 
ATOM     15  C   UNL d   1      32.848  19.041 -22.838  0.00  0.00     0.100 C 
ATOM     16  C   UNL d   1      32.418  17.741 -24.538  0.00  0.00     0.111 A 
ENDBRANCH   7  10
ENDBRANCH   1   7
BRANCH   2  17
ATOM     17  C   UNL d   1      29.287  16.195 -23.727  0.00  0.00     0.000 A 
ATOM     18  C   UNL d   1      28.964  15.493 -23.425  0.00  0.00     0.000 A 
ATOM     19  C   UNL d   1      28.170  15.469 -23.201  0.00  0.00     0.000 A 
ATOM     20  C   UNL d   1      27.700  16.139 -23.278  0.00  0.00     0.000 A 
ATOM     21  C   UNL d   1      28.021  16.846 -23.582  0.00  0.00     0.000 A 
ATOM     22  C   UNL d   1      26.906  16.115 -23.054  0.00  0.00     0.000 C 
ATOM     23  C   UNL d   1      28.816  16.866 -23.804  0.00  0.00     0.000 A 
ENDBRANCH   2  17
TORSDOF 3
ENDMDL
