MODEL 1
REMARK VINA RESULT:      -6.8      0.000      0.000
REMARK  3 active torsions:
REMARK  status: ('A' for Active; 'I' for Inactive)
REMARK    1  A    between atoms: C_14  and  C_4 
REMARK    2  A    between atoms: C_10  and  O_11 
REMARK    3  A    between atoms: O_11  and  C_14 
ROOT
ATOM      1  C   UNL d   1     -48.467  12.757  23.197  0.00  0.00     0.144 C 
ENDROOT
BRANCH   1   2
ATOM      2  O   UNL d   1     -47.666  12.952  23.078  0.00  0.00    -0.303 OA
BRANCH   2   3
ATOM      3  C   UNL d   1     -47.091  12.408  23.224  0.00  0.00     0.100 A 
ATOM      4  C   UNL d   1     -46.297  12.581  23.060  0.00  0.00     0.024 A 
ATOM      5  C   UNL d   1     -45.713  12.008  23.217  0.00  0.00     0.013 A 
ATOM      6  C   UNL d   1     -46.069  13.301  22.746  0.00  0.00     0.002 C 
ATOM      7  C   UNL d   1     -45.913  11.273  23.533  0.00  0.00     0.058 A 
ATOM      8  C   UNL d   1     -46.706  11.099  23.698  0.00  0.00     0.013 A 
ATOM      9 CL   UNL d   1     -45.324  10.683  23.697  0.00  0.00    -0.082 Cl
ATOM     10  C   UNL d   1     -47.306  11.660  23.548  0.00  0.00     0.026 A 
ENDBRANCH   2   3
ENDBRANCH   1   2
BRANCH   1  11
ATOM     11  C   UNL d   1     -49.050  13.279  22.992  0.00  0.00     0.142 A 
ATOM     12  N   UNL d   1     -49.260  13.957  23.414  0.00  0.00    -0.057 NA
ATOM     13  C   UNL d   1     -49.866  14.317  23.016  0.00  0.00     0.735 A 
ATOM     14  N   UNL d   1     -50.034  13.874  22.356  0.00  0.00    -0.136 N 
ATOM     15  N   UNL d   1     -50.297  15.009  23.173  0.00  0.00    -0.059 NA
ATOM     16  C   UNL d   1     -49.527  13.244  22.358  0.00  0.00     0.120 A 
ATOM     17  C   UNL d   1     -50.646  14.127  21.843  0.00  0.00     0.100 A 
ATOM     18  C   UNL d   1     -51.064  14.798  21.996  0.00  0.00     0.041 A 
ATOM     19  C   UNL d   1     -50.888  15.245  22.668  0.00  0.00     0.119 A 
ENDBRANCH   1  11
TORSDOF 3
ENDMDL
MODEL 2
REMARK VINA RESULT:      -5.8      1.584      2.174
REMARK  3 active torsions:
REMARK  status: ('A' for Active; 'I' for Inactive)
REMARK    1  A    between atoms: C_14  and  C_4 
REMARK    2  A    between atoms: C_10  and  O_11 
REMARK    3  A    between atoms: O_11  and  C_14 
ROOT
ATOM      1  C   UNL d   1     -47.490  12.191  23.417  0.00  0.00     0.144 C 
ENDROOT
BRANCH   1   2
ATOM      2  O   UNL d   1     -47.061  12.900  23.342  0.00  0.00    -0.303 OA
BRANCH   2   3
ATOM      3  C   UNL d   1     -46.352  12.906  22.961  0.00  0.00     0.100 A 
ATOM      4  C   UNL d   1     -46.069  13.602  22.609  0.00  0.00     0.024 A 
ATOM      5  C   UNL d   1     -45.333  13.591  22.217  0.00  0.00     0.013 A 
ATOM      6  C   UNL d   1     -46.493  14.300  22.634  0.00  0.00     0.002 C 
ATOM      7  C   UNL d   1     -44.883  12.901  22.175  0.00  0.00     0.058 A 
ATOM      8  C   UNL d   1     -45.166  12.206  22.527  0.00  0.00     0.013 A 
ATOM      9 CL   UNL d   1     -44.133  12.882  21.778  0.00  0.00    -0.082 Cl
ATOM     10  C   UNL d   1     -45.900  12.195  22.924  0.00  0.00     0.026 A 
ENDBRANCH   2   3
ENDBRANCH   1   2
BRANCH   1  11
ATOM     11  C   UNL d   1     -48.297  12.206  23.478  0.00  0.00     0.142 A 
ATOM     12  N   UNL d   1     -48.787  11.544  23.544  0.00  0.00    -0.057 NA
ATOM     13  C   UNL d   1     -49.551  11.808  23.591  0.00  0.00     0.735 A 
ATOM     14  N   UNL d   1     -49.542  12.619  23.554  0.00  0.00    -0.136 N 
ATOM     15  N   UNL d   1     -50.272  11.403  23.663  0.00  0.00    -0.059 NA
ATOM     16  C   UNL d   1     -48.768  12.845  23.486  0.00  0.00     0.120 A 
ATOM     17  C   UNL d   1     -50.268  13.035  23.591  0.00  0.00     0.100 A 
ATOM     18  C   UNL d   1     -50.968  12.642  23.662  0.00  0.00     0.041 A 
ATOM     19  C   UNL d   1     -50.971  11.817  23.698  0.00  0.00     0.119 A 
ENDBRANCH   1  11
TORSDOF 3
ENDMDL
MODEL 3
REMARK VINA RESULT:      -5.5      8.916      9.804
REMARK  3 active torsions:
REMARK  status: ('A' for Active; 'I' for Inactive)
REMARK    1  A    between atoms: C_14  and  C_4 
REMARK    2  A    between atoms: C_10  and  O_11 
REMARK    3  A    between atoms: O_11  and  C_14 
ROOT
ATOM      1  C   UNL d   1     -39.119  14.244  19.415  0.00  0.00     0.144 C 
ENDROOT
BRANCH   1   2
ATOM      2  O   UNL d   1     -39.409  14.382  20.183  0.00  0.00    -0.303 OA
BRANCH   2   3
ATOM      3  C   UNL d   1     -39.061  14.028  20.817  0.00  0.00     0.100 A 
ATOM      4  C   UNL d   1     -39.420  14.057  21.564  0.00  0.00     0.024 A 
ATOM      5  C   UNL d   1     -39.047  13.685  22.210  0.00  0.00     0.013 A 
ATOM      6  C   UNL d   1     -40.131  14.440  21.686  0.00  0.00     0.002 C 
ATOM      7  C   UNL d   1     -38.329  13.291  22.118  0.00  0.00     0.058 A 
ATOM      8  C   UNL d   1     -37.970  13.262  21.371  0.00  0.00     0.013 A 
ATOM      9 CL   UNL d   1     -37.942  12.910  22.772  0.00  0.00    -0.082 Cl
ATOM     10  C   UNL d   1     -38.327  13.627  20.711  0.00  0.00     0.026 A 
ENDBRANCH   2   3
ENDBRANCH   1   2
BRANCH   1  11
ATOM     11  C   UNL d   1     -39.487  14.572  18.773  0.00  0.00     0.142 A 
ATOM     12  N   UNL d   1     -40.195  14.308  18.438  0.00  0.00    -0.057 NA
ATOM     13  C   UNL d   1     -40.364  14.790  17.810  0.00  0.00     0.735 A 
ATOM     14  N   UNL d   1     -39.774  15.346  17.751  0.00  0.00    -0.136 N 
ATOM     15  N   UNL d   1     -40.995  14.794  17.271  0.00  0.00    -0.059 NA
ATOM     16  C   UNL d   1     -39.248  15.197  18.347  0.00  0.00     0.120 A 
ATOM     17  C   UNL d   1     -39.816  15.918  17.141  0.00  0.00     0.100 A 
ATOM     18  C   UNL d   1     -40.429  15.922  16.617  0.00  0.00     0.041 A 
ATOM     19  C   UNL d   1     -41.025  15.354  16.682  0.00  0.00     0.119 A 
ENDBRANCH   1  11
TORSDOF 3
ENDMDL
MODEL 4
REMARK VINA RESULT:      -5.4      9.282     10.222
REMARK  3 active torsions:
REMARK  status: ('A' for Active; 'I' for Inactive)
REMARK    1  A    between atoms: C_14  and  C_4 
REMARK    2  A    between atoms: C_10  and  O_11 
REMARK    3  A    between atoms: O_11  and  C_14 
ROOT
ATOM      1  C   UNL d   1     -39.755  14.807  19.885  0.00  0.00     0.144 C 
ENDROOT
BRANCH   1   2
ATOM      2  O   UNL d   1     -39.818  14.411  19.154  0.00  0.00    -0.303 OA
BRANCH   2   3
ATOM      3  C   UNL d   1     -40.177  14.770  18.529  0.00  0.00     0.100 A 
ATOM      4  C   UNL d   1     -40.167  14.416  17.780  0.00  0.00     0.024 A 
ATOM      5  C   UNL d   1     -40.543  14.800  17.142  0.00  0.00     0.013 A 
ATOM      6  C   UNL d   1     -39.798  13.699  17.646  0.00  0.00     0.002 C 
ATOM      7  C   UNL d   1     -40.924  15.524  17.247  0.00  0.00     0.058 A 
ATOM      8  C   UNL d   1     -40.934  15.878  17.996  0.00  0.00     0.013 A 
ATOM      9 CL   UNL d   1     -41.310  15.922  16.603  0.00  0.00    -0.082 Cl
ATOM     10  C   UNL d   1     -40.563  15.510  18.647  0.00  0.00     0.026 A 
ENDBRANCH   2   3
ENDBRANCH   1   2
BRANCH   1  11
ATOM     11  C   UNL d   1     -39.422  14.437  20.523  0.00  0.00     0.142 A 
ATOM     12  N   UNL d   1     -38.687  14.060  20.533  0.00  0.00    -0.057 NA
ATOM     13  C   UNL d   1     -38.571  13.767  21.278  0.00  0.00     0.735 A 
ATOM     14  N   UNL d   1     -39.221  13.955  21.729  0.00  0.00    -0.136 N 
ATOM     15  N   UNL d   1     -37.942  13.342  21.613  0.00  0.00    -0.059 NA
ATOM     16  C   UNL d   1     -39.730  14.364  21.252  0.00  0.00     0.120 A 
ATOM     17  C   UNL d   1     -39.242  13.714  22.530  0.00  0.00     0.100 A 
ATOM     18  C   UNL d   1     -38.631  13.301  22.855  0.00  0.00     0.041 A 
ATOM     19  C   UNL d   1     -37.973  13.112  22.392  0.00  0.00     0.119 A 
ENDBRANCH   1  11
TORSDOF 3
ENDMDL
MODEL 5
REMARK VINA RESULT:      -5.4      2.601      4.516
REMARK  3 active torsions:
REMARK  status: ('A' for Active; 'I' for Inactive)
REMARK    1  A    between atoms: C_14  and  C_4 
REMARK    2  A    between atoms: C_10  and  O_11 
REMARK    3  A    between atoms: O_11  and  C_14 
ROOT
ATOM      1  C   UNL d   1     -46.873  12.465  23.205  0.00  0.00     0.144 C 
ENDROOT
BRANCH   1   2
ATOM      2  O   UNL d   1     -47.534  12.806  22.829  0.00  0.00    -0.303 OA
BRANCH   2   3
ATOM      3  C   UNL d   1     -48.278  12.580  23.035  0.00  0.00     0.100 A 
ATOM      4  C   UNL d   1     -48.931  13.050  22.833  0.00  0.00     0.024 A 
ATOM      5  C   UNL d   1     -49.696  12.802  23.054  0.00  0.00     0.013 A 
ATOM      6  C   UNL d   1     -48.847  13.752  22.424  0.00  0.00     0.002 C 
ATOM      7  C   UNL d   1     -49.812  12.098  23.468  0.00  0.00     0.058 A 
ATOM      8  C   UNL d   1     -49.160  11.628  23.670  0.00  0.00     0.013 A 
ATOM      9 CL   UNL d   1     -50.588  11.838  23.696  0.00  0.00    -0.082 Cl
ATOM     10  C   UNL d   1     -48.386  11.859  23.458  0.00  0.00     0.026 A 
ENDBRANCH   2   3
ENDBRANCH   1   2
BRANCH   1  11
ATOM     11  C   UNL d   1     -46.139  12.517  22.868  0.00  0.00     0.142 A 
ATOM     12  N   UNL d   1     -45.511  11.996  23.000  0.00  0.00    -0.057 NA
ATOM     13  C   UNL d   1     -44.884  12.251  22.556  0.00  0.00     0.735 A 
ATOM     14  N   UNL d   1     -45.112  12.918  22.153  0.00  0.00    -0.136 N 
ATOM     15  N   UNL d   1     -44.115  11.953  22.465  0.00  0.00    -0.059 NA
ATOM     16  C   UNL d   1     -45.881  13.066  22.356  0.00  0.00     0.120 A 
ATOM     17  C   UNL d   1     -44.561  13.296  21.649  0.00  0.00     0.100 A 
ATOM     18  C   UNL d   1     -43.814  13.007  21.561  0.00  0.00     0.041 A 
ATOM     19  C   UNL d   1     -43.588  12.328  21.973  0.00  0.00     0.119 A 
ENDBRANCH   1  11
TORSDOF 3
ENDMDL
MODEL 6
REMARK VINA RESULT:      -5.2      9.161     10.639
REMARK  3 active torsions:
REMARK  status: ('A' for Active; 'I' for Inactive)
REMARK    1  A    between atoms: C_14  and  C_4 
REMARK    2  A    between atoms: C_10  and  O_11 
REMARK    3  A    between atoms: O_11  and  C_14 
ROOT
ATOM      1  C   UNL d   1     -39.240  15.037  18.125  0.00  0.00     0.144 C 
ENDROOT
BRANCH   1   2
ATOM      2  O   UNL d   1     -39.038  14.251  17.940  0.00  0.00    -0.303 OA
BRANCH   2   3
ATOM      3  C   UNL d   1     -38.767  14.064  17.205  0.00  0.00     0.100 A 
ATOM      4  C   UNL d   1     -38.342  13.364  17.080  0.00  0.00     0.024 A 
ATOM      5  C   UNL d   1     -38.068  13.185  16.313  0.00  0.00     0.013 A 
ATOM      6  C   UNL d   1     -38.181  12.842  17.687  0.00  0.00     0.002 C 
ATOM      7  C   UNL d   1     -38.215  13.693  15.679  0.00  0.00     0.058 A 
ATOM      8  C   UNL d   1     -38.640  14.393  15.805  0.00  0.00     0.013 A 
ATOM      9 CL   UNL d   1     -37.939  13.518  14.895  0.00  0.00    -0.082 Cl
ATOM     10  C   UNL d   1     -38.923  14.590  16.565  0.00  0.00     0.026 A 
ENDBRANCH   2   3
ENDBRANCH   1   2
BRANCH   1  11
ATOM     11  C   UNL d   1     -39.531  15.224  18.857  0.00  0.00     0.142 A 
ATOM     12  N   UNL d   1     -39.081  15.457  19.509  0.00  0.00    -0.057 NA
ATOM     13  C   UNL d   1     -39.590  15.589  20.125  0.00  0.00     0.735 A 
ATOM     14  N   UNL d   1     -40.345  15.442  19.865  0.00  0.00    -0.136 N 
ATOM     15  N   UNL d   1     -39.459  15.831  20.908  0.00  0.00    -0.059 NA
ATOM     16  C   UNL d   1     -40.290  15.220  19.089  0.00  0.00     0.120 A 
ATOM     17  C   UNL d   1     -40.983  15.538  20.399  0.00  0.00     0.100 A 
ATOM     18  C   UNL d   1     -40.856  15.772  21.159  0.00  0.00     0.041 A 
ATOM     19  C   UNL d   1     -40.086  15.921  21.417  0.00  0.00     0.119 A 
ENDBRANCH   1  11
TORSDOF 3
ENDMDL
MODEL 7
REMARK VINA RESULT:      -5.1      1.331      2.019
REMARK  3 active torsions:
REMARK  status: ('A' for Active; 'I' for Inactive)
REMARK    1  A    between atoms: C_14  and  C_4 
REMARK    2  A    between atoms: C_10  and  O_11 
REMARK    3  A    between atoms: O_11  and  C_14 
ROOT
ATOM      1  C   UNL d   1     -46.319  12.893  22.718  0.00  0.00     0.144 C 
ENDROOT
BRANCH   1   2
ATOM      2  O   UNL d   1     -46.389  12.125  23.032  0.00  0.00    -0.303 OA
BRANCH   2   3
ATOM      3  C   UNL d   1     -45.735  11.667  23.132  0.00  0.00     0.100 A 
ATOM      4  C   UNL d   1     -45.799  10.909  23.463  0.00  0.00     0.024 A 
ATOM      5  C   UNL d   1     -45.112  10.447  23.559  0.00  0.00     0.013 A 
ATOM      6  C   UNL d   1     -46.518  10.601  23.698  0.00  0.00     0.002 C 
ATOM      7  C   UNL d   1     -44.372  10.731  23.331  0.00  0.00     0.058 A 
ATOM      8  C   UNL d   1     -44.308  11.489  23.000  0.00  0.00     0.013 A 
ATOM      9 CL   UNL d   1     -43.667  10.267  23.426  0.00  0.00    -0.082 Cl
ATOM     10  C   UNL d   1     -44.984  11.967  22.895  0.00  0.00     0.026 A 
ENDBRANCH   2   3
ENDBRANCH   1   2
BRANCH   1  11
ATOM     11  C   UNL d   1     -46.976  13.353  22.610  0.00  0.00     0.142 A 
ATOM     12  N   UNL d   1     -47.076  14.123  22.891  0.00  0.00    -0.057 NA
ATOM     13  C   UNL d   1     -47.809  14.376  22.660  0.00  0.00     0.735 A 
ATOM     14  N   UNL d   1     -48.164  13.777  22.242  0.00  0.00    -0.136 N 
ATOM     15  N   UNL d   1     -48.210  15.093  22.780  0.00  0.00    -0.059 NA
ATOM     16  C   UNL d   1     -47.641  13.160  22.222  0.00  0.00     0.120 A 
ATOM     17  C   UNL d   1     -48.935  13.896  21.937  0.00  0.00     0.100 A 
ATOM     18  C   UNL d   1     -49.324  14.592  22.053  0.00  0.00     0.041 A 
ATOM     19  C   UNL d   1     -48.958  15.198  22.479  0.00  0.00     0.119 A 
ENDBRANCH   1  11
TORSDOF 3
ENDMDL
