MODEL 1
REMARK VINA RESULT:      -6.7      0.000      0.000
REMARK  5 active torsions:
REMARK  status: ('A' for Active; 'I' for Inactive)
REMARK    1  A    between atoms: N_3  and  C_1 
REMARK       I    between atoms: C_6  and  N_3 
REMARK    2  A    between atoms: C_9  and  C_6 
REMARK    3  A    between atoms: C_12  and  C_7 
REMARK    4  A    between atoms: S_8  and  C_9 
REMARK    5  A    between atoms: C_11  and  S_8 
ROOT
ATOM      1  N   UNL d   1     -47.255  13.686  23.166  0.00  0.00    -0.181 NA
ATOM      2  C   UNL d   1     -47.941  13.407  22.804  0.00  0.00     0.287 C 
ATOM      3  O   UNL d   1     -47.889  12.802  22.250  0.00  0.00    -0.265 OA
ENDROOT
BRANCH   2   4
ATOM      4  C   UNL d   1     -48.672  13.734  22.998  0.00  0.00     0.087 C 
ATOM      5  C   UNL d   1     -49.182  13.331  23.498  0.00  0.00     0.012 C 
BRANCH   4   6
ATOM      6  S   UNL d   1     -48.883  14.470  22.684  0.00  0.00    -0.082 SA
BRANCH   6   7
ATOM      7  C   UNL d   1     -49.604  14.799  22.864  0.00  0.00     0.030 A 
ATOM      8  C   UNL d   1     -50.277  14.562  22.450  0.00  0.00     0.006 A 
ATOM      9  C   UNL d   1     -51.014  14.897  22.633  0.00  0.00     0.001 A 
ATOM     10  C   UNL d   1     -51.062  15.468  23.231  0.00  0.00     0.000 A 
ATOM     11  C   UNL d   1     -50.392  15.700  23.638  0.00  0.00     0.001 A 
ATOM     12  C   UNL d   1     -49.654  15.370  23.462  0.00  0.00     0.006 A 
ENDBRANCH   6   7
ENDBRANCH   4   6
ENDBRANCH   2   4
BRANCH   1  13
ATOM     13  C   UNL d   1     -46.524  13.365  22.977  0.00  0.00     0.219 A 
ATOM     14  S   UNL d   1     -46.034  13.598  22.358  0.00  0.00    -0.026 SA
ATOM     15  C   UNL d   1     -45.356  13.127  22.374  0.00  0.00     0.135 A 
ATOM     16  N   UNL d   1     -45.431  12.601  23.008  0.00  0.00    -0.139 NA
ATOM     17  N   UNL d   1     -46.151  12.748  23.380  0.00  0.00    -0.121 NA
BRANCH  15  18
ATOM     18  C   UNL d   1     -44.717  13.169  21.854  0.00  0.00     0.028 C 
ATOM     19  C   UNL d   1     -44.121  12.595  21.897  0.00  0.00     0.002 C 
ENDBRANCH  15  18
ENDBRANCH   1  13
TORSDOF 5
ENDMDL
MODEL 2
REMARK VINA RESULT:      -5.6      1.349      1.545
REMARK  5 active torsions:
REMARK  status: ('A' for Active; 'I' for Inactive)
REMARK    1  A    between atoms: N_3  and  C_1 
REMARK       I    between atoms: C_6  and  N_3 
REMARK    2  A    between atoms: C_9  and  C_6 
REMARK    3  A    between atoms: C_12  and  C_7 
REMARK    4  A    between atoms: S_8  and  C_9 
REMARK    5  A    between atoms: C_11  and  S_8 
ROOT
ATOM      1  N   UNL d   1     -47.812  12.676  23.631  0.00  0.00    -0.181 NA
ATOM      2  C   UNL d   1     -48.187  12.883  22.927  0.00  0.00     0.287 C 
ATOM      3  O   UNL d   1     -47.828  12.706  22.210  0.00  0.00    -0.265 OA
ENDROOT
BRANCH   2   4
ATOM      4  C   UNL d   1     -48.917  13.263  22.946  0.00  0.00     0.087 C 
ATOM      5  C   UNL d   1     -49.582  12.863  23.212  0.00  0.00     0.012 C 
BRANCH   4   6
ATOM      6  S   UNL d   1     -48.972  14.051  22.696  0.00  0.00    -0.082 SA
BRANCH   6   7
ATOM      7  C   UNL d   1     -49.650  14.477  22.833  0.00  0.00     0.030 A 
ATOM      8  C   UNL d   1     -49.686  14.995  23.474  0.00  0.00     0.006 A 
ATOM      9  C   UNL d   1     -50.378  15.430  23.614  0.00  0.00     0.001 A 
ATOM     10  C   UNL d   1     -51.025  15.339  23.105  0.00  0.00     0.000 A 
ATOM     11  C   UNL d   1     -50.984  14.824  22.470  0.00  0.00     0.001 A 
ATOM     12  C   UNL d   1     -50.297  14.386  22.324  0.00  0.00     0.006 A 
ENDBRANCH   6   7
ENDBRANCH   4   6
ENDBRANCH   2   4
BRANCH   1  13
ATOM     13  C   UNL d   1     -47.084  12.297  23.620  0.00  0.00     0.219 A 
ATOM     14  S   UNL d   1     -46.955  11.487  23.692  0.00  0.00    -0.026 SA
ATOM     15  C   UNL d   1     -46.142  11.350  23.650  0.00  0.00     0.135 A 
ATOM     16  N   UNL d   1     -45.769  12.082  23.552  0.00  0.00    -0.139 NA
ATOM     17  N   UNL d   1     -46.350  12.666  23.533  0.00  0.00    -0.121 NA
BRANCH  15  18
ATOM     18  C   UNL d   1     -45.764  10.618  23.698  0.00  0.00     0.028 C 
ATOM     19  C   UNL d   1     -44.937  10.588  23.684  0.00  0.00     0.002 C 
ENDBRANCH  15  18
ENDBRANCH   1  13
TORSDOF 5
ENDMDL
MODEL 3
REMARK VINA RESULT:      -5.6      8.758      9.384
REMARK  5 active torsions:
REMARK  status: ('A' for Active; 'I' for Inactive)
REMARK    1  A    between atoms: N_3  and  C_1 
REMARK       I    between atoms: C_6  and  N_3 
REMARK    2  A    between atoms: C_9  and  C_6 
REMARK    3  A    between atoms: C_12  and  C_7 
REMARK    4  A    between atoms: S_8  and  C_9 
REMARK    5  A    between atoms: C_11  and  S_8 
ROOT
ATOM      1  N   UNL d   1     -39.691  14.581  19.015  0.00  0.00    -0.181 NA
ATOM      2  C   UNL d   1     -40.038  14.392  19.739  0.00  0.00     0.287 C 
ATOM      3  O   UNL d   1     -40.856  14.337  19.794  0.00  0.00    -0.265 OA
ENDROOT
BRANCH   2   4
ATOM      4  C   UNL d   1     -39.565  14.259  20.399  0.00  0.00     0.087 C 
ATOM      5  C   UNL d   1     -38.785  14.023  20.305  0.00  0.00     0.012 C 
BRANCH   4   6
ATOM      6  S   UNL d   1     -39.884  14.366  21.156  0.00  0.00    -0.082 SA
BRANCH   6   7
ATOM      7  C   UNL d   1     -39.408  14.316  21.812  0.00  0.00     0.030 A 
ATOM      8  C   UNL d   1     -39.244  13.580  22.144  0.00  0.00     0.006 A 
ATOM      9  C   UNL d   1     -38.757  13.528  22.814  0.00  0.00     0.001 A 
ATOM     10  C   UNL d   1     -38.441  14.221  23.140  0.00  0.00     0.000 A 
ATOM     11  C   UNL d   1     -38.606  14.950  22.806  0.00  0.00     0.001 A 
ATOM     12  C   UNL d   1     -39.091  15.009  22.138  0.00  0.00     0.006 A 
ENDBRANCH   6   7
ENDBRANCH   4   6
ENDBRANCH   2   4
BRANCH   1  13
ATOM     13  C   UNL d   1     -40.157  14.715  18.352  0.00  0.00     0.219 A 
ATOM     14  S   UNL d   1     -40.248  15.431  17.957  0.00  0.00    -0.026 SA
ATOM     15  C   UNL d   1     -40.765  15.313  17.324  0.00  0.00     0.135 A 
ATOM     16  N   UNL d   1     -40.992  14.517  17.330  0.00  0.00    -0.139 NA
ATOM     17  N   UNL d   1     -40.617  14.149  17.965  0.00  0.00    -0.121 NA
BRANCH  15  18
ATOM     18  C   UNL d   1     -41.013  15.881  16.780  0.00  0.00     0.028 C 
ATOM     19  C   UNL d   1     -41.814  15.922  16.573  0.00  0.00     0.002 C 
ENDBRANCH  15  18
ENDBRANCH   1  13
TORSDOF 5
ENDMDL
MODEL 4
REMARK VINA RESULT:      -5.4      1.382      2.022
REMARK  5 active torsions:
REMARK  status: ('A' for Active; 'I' for Inactive)
REMARK    1  A    between atoms: N_3  and  C_1 
REMARK       I    between atoms: C_6  and  N_3 
REMARK    2  A    between atoms: C_9  and  C_6 
REMARK    3  A    between atoms: C_12  and  C_7 
REMARK    4  A    between atoms: S_8  and  C_9 
REMARK    5  A    between atoms: C_11  and  S_8 
ROOT
ATOM      1  N   UNL d   1     -45.717  13.181  21.981  0.00  0.00    -0.181 NA
ATOM      2  C   UNL d   1     -46.138  13.318  22.676  0.00  0.00     0.287 C 
ATOM      3  O   UNL d   1     -45.802  13.115  23.399  0.00  0.00    -0.265 OA
ENDROOT
BRANCH   2   4
ATOM      4  C   UNL d   1     -46.888  13.656  22.644  0.00  0.00     0.087 C 
ATOM      5  C   UNL d   1     -47.003  14.424  22.907  0.00  0.00     0.012 C 
BRANCH   4   6
ATOM      6  S   UNL d   1     -47.521  13.213  22.345  0.00  0.00    -0.082 SA
BRANCH   6   7
ATOM      7  C   UNL d   1     -48.285  13.419  22.527  0.00  0.00     0.030 A 
ATOM      8  C   UNL d   1     -48.677  13.984  22.072  0.00  0.00     0.006 A 
ATOM      9  C   UNL d   1     -49.458  14.193  22.258  0.00  0.00     0.001 A 
ATOM     10  C   UNL d   1     -49.834  13.831  22.900  0.00  0.00     0.000 A 
ATOM     11  C   UNL d   1     -49.441  13.270  23.348  0.00  0.00     0.001 A 
ATOM     12  C   UNL d   1     -48.662  13.056  23.170  0.00  0.00     0.006 A 
ENDBRANCH   6   7
ENDBRANCH   4   6
ENDBRANCH   2   4
BRANCH   1  13
ATOM     13  C   UNL d   1     -44.969  12.844  22.005  0.00  0.00     0.219 A 
ATOM     14  S   UNL d   1     -44.313  13.081  21.569  0.00  0.00    -0.026 SA
ATOM     15  C   UNL d   1     -43.679  12.590  21.766  0.00  0.00     0.135 A 
ATOM     16  N   UNL d   1     -43.949  12.047  22.329  0.00  0.00    -0.139 NA
ATOM     17  N   UNL d   1     -44.745  12.204  22.477  0.00  0.00    -0.121 NA
BRANCH  15  18
ATOM     18  C   UNL d   1     -42.914  12.630  21.462  0.00  0.00     0.028 C 
ATOM     19  C   UNL d   1     -42.654  13.331  21.107  0.00  0.00     0.002 C 
ENDBRANCH  15  18
ENDBRANCH   1  13
TORSDOF 5
ENDMDL
MODEL 5
REMARK VINA RESULT:      -5.4      1.701      4.716
REMARK  5 active torsions:
REMARK  status: ('A' for Active; 'I' for Inactive)
REMARK    1  A    between atoms: N_3  and  C_1 
REMARK       I    between atoms: C_6  and  N_3 
REMARK    2  A    between atoms: C_9  and  C_6 
REMARK    3  A    between atoms: C_12  and  C_7 
REMARK    4  A    between atoms: S_8  and  C_9 
REMARK    5  A    between atoms: C_11  and  S_8 
ROOT
ATOM      1  N   UNL d   1     -48.538  13.685  22.400  0.00  0.00    -0.181 NA
ATOM      2  C   UNL d   1     -47.839  13.680  22.837  0.00  0.00     0.287 C 
ATOM      3  O   UNL d   1     -47.668  14.311  23.334  0.00  0.00    -0.265 OA
ENDROOT
BRANCH   2   4
ATOM      4  C   UNL d   1     -47.318  13.046  22.773  0.00  0.00     0.087 C 
ATOM      5  C   UNL d   1     -47.265  12.627  22.069  0.00  0.00     0.012 C 
BRANCH   4   6
ATOM      6  S   UNL d   1     -46.851  12.836  23.424  0.00  0.00    -0.082 SA
BRANCH   6   7
ATOM      7  C   UNL d   1     -46.481  12.113  23.446  0.00  0.00     0.030 A 
ATOM      8  C   UNL d   1     -45.675  12.060  23.278  0.00  0.00     0.006 A 
ATOM      9  C   UNL d   1     -45.297  11.322  23.301  0.00  0.00     0.001 A 
ATOM     10  C   UNL d   1     -45.737  10.646  23.492  0.00  0.00     0.000 A 
ATOM     11  C   UNL d   1     -46.536  10.705  23.658  0.00  0.00     0.001 A 
ATOM     12  C   UNL d   1     -46.920  11.437  23.638  0.00  0.00     0.006 A 
ENDBRANCH   6   7
ENDBRANCH   4   6
ENDBRANCH   2   4
BRANCH   1  13
ATOM     13  C   UNL d   1     -49.061  14.314  22.458  0.00  0.00     0.219 A 
ATOM     14  S   UNL d   1     -49.835  14.280  22.737  0.00  0.00    -0.026 SA
ATOM     15  C   UNL d   1     -50.157  15.040  22.699  0.00  0.00     0.135 A 
ATOM     16  N   UNL d   1     -49.576  15.544  22.394  0.00  0.00    -0.139 NA
ATOM     17  N   UNL d   1     -48.901  15.096  22.245  0.00  0.00    -0.121 NA
BRANCH  15  18
ATOM     18  C   UNL d   1     -50.919  15.262  22.923  0.00  0.00     0.028 C 
ATOM     19  C   UNL d   1     -51.019  15.898  23.443  0.00  0.00     0.002 C 
ENDBRANCH  15  18
ENDBRANCH   1  13
TORSDOF 5
ENDMDL
MODEL 6
REMARK VINA RESULT:      -5.0      8.318      9.889
REMARK  5 active torsions:
REMARK  status: ('A' for Active; 'I' for Inactive)
REMARK    1  A    between atoms: N_3  and  C_1 
REMARK       I    between atoms: C_6  and  N_3 
REMARK    2  A    between atoms: C_9  and  C_6 
REMARK    3  A    between atoms: C_12  and  C_7 
REMARK    4  A    between atoms: S_8  and  C_9 
REMARK    5  A    between atoms: C_11  and  S_8 
ROOT
ATOM      1  N   UNL d   1     -39.275  14.897  17.498  0.00  0.00    -0.181 NA
ATOM      2  C   UNL d   1     -39.767  14.474  18.005  0.00  0.00     0.287 C 
ATOM      3  O   UNL d   1     -39.819  13.657  17.932  0.00  0.00    -0.265 OA
ENDROOT
BRANCH   2   4
ATOM      4  C   UNL d   1     -40.203  14.869  18.582  0.00  0.00     0.087 C 
ATOM      5  C   UNL d   1     -40.531  15.603  18.416  0.00  0.00     0.012 C 
BRANCH   4   6
ATOM      6  S   UNL d   1     -40.304  14.520  19.326  0.00  0.00    -0.082 SA
BRANCH   6   7
ATOM      7  C   UNL d   1     -40.366  14.984  19.990  0.00  0.00     0.030 A 
ATOM      8  C   UNL d   1     -41.092  15.320  20.188  0.00  0.00     0.006 A 
ATOM      9  C   UNL d   1     -41.156  15.794  20.867  0.00  0.00     0.001 A 
ATOM     10  C   UNL d   1     -40.486  15.922  21.336  0.00  0.00     0.000 A 
ATOM     11  C   UNL d   1     -39.768  15.586  21.135  0.00  0.00     0.001 A 
ATOM     12  C   UNL d   1     -39.696  15.112  20.460  0.00  0.00     0.006 A 
ENDBRANCH   6   7
ENDBRANCH   4   6
ENDBRANCH   2   4
BRANCH   1  13
ATOM     13  C   UNL d   1     -38.838  14.509  16.921  0.00  0.00     0.219 A 
ATOM     14  S   UNL d   1     -38.697  14.776  16.155  0.00  0.00    -0.026 SA
ATOM     15  C   UNL d   1     -38.233  14.213  15.767  0.00  0.00     0.135 A 
ATOM     16  N   UNL d   1     -38.090  13.596  16.300  0.00  0.00    -0.139 NA
ATOM     17  N   UNL d   1     -38.463  13.779  17.011  0.00  0.00    -0.121 NA
BRANCH  15  18
ATOM     18  C   UNL d   1     -37.960  14.253  14.990  0.00  0.00     0.028 C 
ATOM     19  C   UNL d   1     -37.940  13.563  14.532  0.00  0.00     0.002 C 
ENDBRANCH  15  18
ENDBRANCH   1  13
TORSDOF 5
ENDMDL
MODEL 7
REMARK VINA RESULT:      -4.9      8.646      9.256
REMARK  5 active torsions:
REMARK  status: ('A' for Active; 'I' for Inactive)
REMARK    1  A    between atoms: N_3  and  C_1 
REMARK       I    between atoms: C_6  and  N_3 
REMARK    2  A    between atoms: C_9  and  C_6 
REMARK    3  A    between atoms: C_12  and  C_7 
REMARK    4  A    between atoms: S_8  and  C_9 
REMARK    5  A    between atoms: C_11  and  S_8 
ROOT
ATOM      1  N   UNL d   1     -39.272  14.777  20.676  0.00  0.00    -0.181 NA
ATOM      2  C   UNL d   1     -40.013  14.675  20.331  0.00  0.00     0.287 C 
ATOM      3  O   UNL d   1     -40.607  14.292  20.750  0.00  0.00    -0.265 OA
ENDROOT
BRANCH   2   4
ATOM      4  C   UNL d   1     -40.155  14.957  19.570  0.00  0.00     0.087 C 
ATOM      5  C   UNL d   1     -40.016  15.746  19.392  0.00  0.00     0.012 C 
BRANCH   4   6
ATOM      6  S   UNL d   1     -40.437  14.438  18.990  0.00  0.00    -0.082 SA
BRANCH   6   7
ATOM      7  C   UNL d   1     -40.316  14.599  18.203  0.00  0.00     0.030 A 
ATOM      8  C   UNL d   1     -39.654  14.292  17.819  0.00  0.00     0.006 A 
ATOM      9  C   UNL d   1     -39.530  14.457  17.015  0.00  0.00     0.001 A 
ATOM     10  C   UNL d   1     -40.076  14.929  16.609  0.00  0.00     0.000 A 
ATOM     11  C   UNL d   1     -40.731  15.231  16.994  0.00  0.00     0.001 A 
ATOM     12  C   UNL d   1     -40.862  15.071  17.796  0.00  0.00     0.006 A 
ENDBRANCH   6   7
ENDBRANCH   4   6
ENDBRANCH   2   4
BRANCH   1  13
ATOM     13  C   UNL d   1     -39.124  14.498  21.434  0.00  0.00     0.219 A 
ATOM     14  S   UNL d   1     -38.721  13.808  21.630  0.00  0.00    -0.026 SA
ATOM     15  C   UNL d   1     -38.701  13.744  22.453  0.00  0.00     0.135 A 
ATOM     16  N   UNL d   1     -39.095  14.401  22.765  0.00  0.00    -0.139 NA
ATOM     17  N   UNL d   1     -39.356  14.866  22.136  0.00  0.00    -0.121 NA
BRANCH  15  18
ATOM     18  C   UNL d   1     -38.353  13.138  22.891  0.00  0.00     0.028 C 
ATOM     19  C   UNL d   1     -38.207  13.253  23.698  0.00  0.00     0.002 C 
ENDBRANCH  15  18
ENDBRANCH   1  13
TORSDOF 5
ENDMDL
MODEL 8
REMARK VINA RESULT:      -4.6      1.876      4.603
REMARK  5 active torsions:
REMARK  status: ('A' for Active; 'I' for Inactive)
REMARK    1  A    between atoms: N_3  and  C_1 
REMARK       I    between atoms: C_6  and  N_3 
REMARK    2  A    between atoms: C_9  and  C_6 
REMARK    3  A    between atoms: C_12  and  C_7 
REMARK    4  A    between atoms: S_8  and  C_9 
REMARK    5  A    between atoms: C_11  and  S_8 
ROOT
ATOM      1  N   UNL d   1     -48.847  12.056  22.755  0.00  0.00    -0.181 NA
ATOM      2  C   UNL d   1     -48.320  12.483  23.222  0.00  0.00     0.287 C 
ATOM      3  O   UNL d   1     -48.546  13.213  23.526  0.00  0.00    -0.265 OA
ENDROOT
BRANCH   2   4
ATOM      4  C   UNL d   1     -47.572  12.179  23.382  0.00  0.00     0.087 C 
ATOM      5  C   UNL d   1     -47.447  11.368  23.368  0.00  0.00     0.012 C 
BRANCH   4   6
ATOM      6  S   UNL d   1     -46.950  12.698  23.557  0.00  0.00    -0.082 SA
BRANCH   6   7
ATOM      7  C   UNL d   1     -46.272  12.688  23.110  0.00  0.00     0.030 A 
ATOM      8  C   UNL d   1     -45.769  12.035  23.144  0.00  0.00     0.006 A 
ATOM      9  C   UNL d   1     -45.076  12.025  22.688  0.00  0.00     0.001 A 
ATOM     10  C   UNL d   1     -44.899  12.673  22.204  0.00  0.00     0.000 A 
ATOM     11  C   UNL d   1     -45.401  13.318  22.174  0.00  0.00     0.001 A 
ATOM     12  C   UNL d   1     -46.094  13.336  22.626  0.00  0.00     0.006 A 
ENDBRANCH   6   7
ENDBRANCH   4   6
ENDBRANCH   2   4
BRANCH   1  13
ATOM     13  C   UNL d   1     -49.595  12.354  22.591  0.00  0.00     0.219 A 
ATOM     14  S   UNL d   1     -49.807  12.805  21.937  0.00  0.00    -0.026 SA
ATOM     15  C   UNL d   1     -50.611  12.983  21.996  0.00  0.00     0.135 A 
ATOM     16  N   UNL d   1     -50.894  12.638  22.692  0.00  0.00    -0.139 NA
ATOM     17  N   UNL d   1     -50.267  12.250  23.060  0.00  0.00    -0.121 NA
BRANCH  15  18
ATOM     18  C   UNL d   1     -51.057  13.425  21.460  0.00  0.00     0.028 C 
ATOM     19  C   UNL d   1     -51.064  14.251  21.524  0.00  0.00     0.002 C 
ENDBRANCH  15  18
ENDBRANCH   1  13
TORSDOF 5
ENDMDL
MODEL 9
REMARK VINA RESULT:      -4.5      8.776     10.562
REMARK  5 active torsions:
REMARK  status: ('A' for Active; 'I' for Inactive)
REMARK    1  A    between atoms: N_3  and  C_1 
REMARK       I    between atoms: C_6  and  N_3 
REMARK    2  A    between atoms: C_9  and  C_6 
REMARK    3  A    between atoms: C_12  and  C_7 
REMARK    4  A    between atoms: S_8  and  C_9 
REMARK    5  A    between atoms: C_11  and  S_8 
ROOT
ATOM      1  N   UNL d   1     -39.471  14.959  18.982  0.00  0.00    -0.181 NA
ATOM      2  C   UNL d   1     -39.641  14.431  18.373  0.00  0.00     0.287 C 
ATOM      3  O   UNL d   1     -40.032  13.728  18.543  0.00  0.00    -0.265 OA
ENDROOT
BRANCH   2   4
ATOM      4  C   UNL d   1     -39.420  14.609  17.600  0.00  0.00     0.087 C 
ATOM      5  C   UNL d   1     -39.992  14.790  17.041  0.00  0.00     0.012 C 
BRANCH   4   6
ATOM      6  S   UNL d   1     -38.618  14.604  17.395  0.00  0.00    -0.082 SA
BRANCH   6   7
ATOM      7  C   UNL d   1     -38.394  14.495  16.622  0.00  0.00     0.030 A 
ATOM      8  C   UNL d   1     -38.305  15.147  16.125  0.00  0.00     0.006 A 
ATOM      9  C   UNL d   1     -38.076  15.036  15.335  0.00  0.00     0.001 A 
ATOM     10  C   UNL d   1     -37.940  14.268  15.057  0.00  0.00     0.000 A 
ATOM     11  C   UNL d   1     -38.029  13.624  15.554  0.00  0.00     0.001 A 
ATOM     12  C   UNL d   1     -38.257  13.726  16.342  0.00  0.00     0.006 A 
ENDBRANCH   6   7
ENDBRANCH   4   6
ENDBRANCH   2   4
BRANCH   1  13
ATOM     13  C   UNL d   1     -39.689  14.787  19.755  0.00  0.00     0.219 A 
ATOM     14  S   UNL d   1     -39.181  14.705  20.397  0.00  0.00    -0.026 SA
ATOM     15  C   UNL d   1     -39.635  14.534  21.066  0.00  0.00     0.135 A 
ATOM     16  N   UNL d   1     -40.428  14.511  20.831  0.00  0.00    -0.139 NA
ATOM     17  N   UNL d   1     -40.461  14.667  20.022  0.00  0.00    -0.121 NA
BRANCH  15  18
ATOM     18  C   UNL d   1     -39.355  14.407  21.831  0.00  0.00     0.028 C 
ATOM     19  C   UNL d   1     -39.465  13.667  22.186  0.00  0.00     0.002 C 
ENDBRANCH  15  18
ENDBRANCH   1  13
TORSDOF 5
ENDMDL
