MODEL 1
REMARK VINA RESULT:      -1.9      0.000      0.000
REMARK  0 active torsions:
REMARK  status: ('A' for Active; 'I' for Inactive)
ROOT
ATOM      1  C   UNL d   1      45.533 -13.658  44.481  0.00  0.00     0.221 A 
ATOM      2  N   UNL d   1      45.174 -13.435  43.773  0.00  0.00    -0.217 NA
ATOM      3  N   UNL d   1      45.913 -13.096  44.955  0.00  0.00    -0.216 NA
ATOM      4  S   UNL d   1      45.531 -14.439  44.745  0.00  0.00    -0.037 SA
ATOM      5  C   UNL d   1      45.192 -12.647  43.532  0.00  0.00     0.085 A 
ATOM      6  C   UNL d   1      45.928 -12.303  44.708  0.00  0.00     0.103 A 
ATOM      7  C   UNL d   1      45.569 -12.080  44.000  0.00  0.00     0.040 A 
ATOM      8  C   UNL d   1      44.827 -12.444  42.821  0.00  0.00     0.021 C 
ENDROOT
TORSDOF 0
ENDMDL
MODEL 2
REMARK VINA RESULT:       0.2      7.139      7.771
REMARK  0 active torsions:
REMARK  status: ('A' for Active; 'I' for Inactive)
ROOT
ATOM      1  C   UNL d   1      45.846 -15.077  36.704  0.00  0.00     0.221 A 
ATOM      2  N   UNL d   1      45.324 -15.643  36.409  0.00  0.00    -0.217 NA
ATOM      3  N   UNL d   1      45.581 -14.493  37.228  0.00  0.00    -0.216 NA
ATOM      4  S   UNL d   1      46.643 -15.065  36.494  0.00  0.00    -0.037 SA
ATOM      5  C   UNL d   1      44.533 -15.632  36.636  0.00  0.00     0.085 A 
ATOM      6  C   UNL d   1      44.782 -14.486  37.453  0.00  0.00     0.103 A 
ATOM      7  C   UNL d   1      44.260 -15.053  37.158  0.00  0.00     0.040 A 
ATOM      8  C   UNL d   1      44.026 -16.207  36.330  0.00  0.00     0.021 C 
ENDROOT
TORSDOF 0
ENDMDL
MODEL 3
REMARK VINA RESULT:       0.4      7.258      7.763
REMARK  0 active torsions:
REMARK  status: ('A' for Active; 'I' for Inactive)
ROOT
ATOM      1  C   UNL d   1      44.553 -15.632  36.636  0.00  0.00     0.221 A 
ATOM      2  N   UNL d   1      45.343 -15.618  36.401  0.00  0.00    -0.217 NA
ATOM      3  N   UNL d   1      44.264 -15.070  37.171  0.00  0.00    -0.216 NA
ATOM      4  S   UNL d   1      44.022 -16.197  36.354  0.00  0.00    -0.037 SA
ATOM      5  C   UNL d   1      45.851 -15.043  36.698  0.00  0.00     0.085 A 
ATOM      6  C   UNL d   1      44.780 -14.492  37.468  0.00  0.00     0.103 A 
ATOM      7  C   UNL d   1      45.571 -14.479  37.232  0.00  0.00     0.040 A 
ATOM      8  C   UNL d   1      46.639 -15.046  36.451  0.00  0.00     0.021 C 
ENDROOT
TORSDOF 0
ENDMDL
MODEL 4
REMARK VINA RESULT:       0.9      0.921      1.072
REMARK  0 active torsions:
REMARK  status: ('A' for Active; 'I' for Inactive)
ROOT
ATOM      1  C   UNL d   1      44.855 -14.074  44.623  0.00  0.00     0.221 A 
ATOM      2  N   UNL d   1      44.684 -13.379  44.212  0.00  0.00    -0.217 NA
ATOM      3  N   UNL d   1      45.639 -14.318  44.725  0.00  0.00    -0.216 NA
ATOM      4  S   UNL d   1      44.264 -14.548  44.946  0.00  0.00    -0.037 SA
ATOM      5  C   UNL d   1      45.294 -12.923  43.900  0.00  0.00     0.085 A 
ATOM      6  C   UNL d   1      46.251 -13.855  44.409  0.00  0.00     0.103 A 
ATOM      7  C   UNL d   1      46.079 -13.160  43.998  0.00  0.00     0.040 A 
ATOM      8  C   UNL d   1      45.102 -12.232  43.493  0.00  0.00     0.021 C 
ENDROOT
TORSDOF 0
ENDMDL
