MODEL 1
REMARK VINA RESULT:      -1.9      0.000      0.000
REMARK  7 active torsions:
REMARK  status: ('A' for Active; 'I' for Inactive)
REMARK       I    between atoms: C_2  and  N_1 
REMARK    1  A    between atoms: C_3  and  N_1 
REMARK    2  A    between atoms: C_4  and  C_2 
REMARK    3  A    between atoms: N_9  and  C_3 
REMARK    4  A    between atoms: O_19  and  C_6 
REMARK    5  A    between atoms: C_7  and  C_18 
REMARK    6  A    between atoms: C_18  and  N_9 
REMARK    7  A    between atoms: O_20  and  C_12 
ROOT
ATOM      1  N   UNL d   1     -41.225-121.856 -51.097  0.00  0.00    -0.179 NA
ATOM      2  C   UNL d   1     -41.548-121.611 -50.375  0.00  0.00     0.281 C 
ATOM      3  O   UNL d   1     -41.545-120.808 -50.169  0.00  0.00    -0.265 OA
ENDROOT
BRANCH   2   4
ATOM      4  C   UNL d   1     -41.875-122.162 -49.856  0.00  0.00     0.060 A 
ATOM      5  C   UNL d   1     -41.423-122.476 -49.238  0.00  0.00     0.031 A 
ATOM      6  C   UNL d   1     -41.753-123.027 -48.720  0.00  0.00     0.116 A 
ATOM      7  C   UNL d   1     -42.541-123.264 -48.821  0.00  0.00     0.116 A 
ATOM      8  C   UNL d   1     -42.994-122.949 -49.439  0.00  0.00     0.026 A 
ATOM      9  C   UNL d   1     -42.651-122.398 -49.952  0.00  0.00     0.007 A 
BRANCH   6  10
ATOM     10  O   UNL d   1     -41.300-123.342 -48.102  0.00  0.00    -0.326 OA
ATOM     11  C   UNL d   1     -41.275-122.964 -47.370  0.00  0.00     0.181 C 
ENDBRANCH   6  10
BRANCH   7  12
ATOM     12  O   UNL d   1     -42.870-123.817 -48.299  0.00  0.00    -0.326 OA
ATOM     13  C   UNL d   1     -43.673-123.787 -48.113  0.00  0.00     0.181 C 
ENDBRANCH   7  12
ENDBRANCH   2   4
BRANCH   1  14
ATOM     14  C   UNL d   1     -41.231-122.654 -51.296  0.00  0.00     0.224 C 
ATOM     15  S   UNL d   1     -41.123-123.296 -50.776  0.00  0.00    -0.037 SA
BRANCH  14  16
ATOM     16  N   UNL d   1     -41.346-122.968 -52.059  0.00  0.00    -0.214 NA
BRANCH  16  17
ATOM     17  C   UNL d   1     -41.124-122.606 -52.770  0.00  0.00     0.126 C 
BRANCH  17  18
ATOM     18  C   UNL d   1     -41.471-122.847 -53.476  0.00  0.00     0.119 A 
ATOM     19  O   UNL d   1     -41.756-123.575 -53.731  0.00  0.00    -0.304 OA
ATOM     20  C   UNL d   1     -42.044-123.480 -54.496  0.00  0.00     0.123 A 
ATOM     21  C   UNL d   1     -41.936-122.693 -54.711  0.00  0.00     0.029 A 
ATOM     22  C   UNL d   1     -41.583-122.300 -54.083  0.00  0.00     0.028 A 
ENDBRANCH  17  18
ENDBRANCH  16  17
ENDBRANCH  14  16
ENDBRANCH   1  14
TORSDOF 7
ENDMDL
MODEL 2
REMARK VINA RESULT:      -0.2      1.284      4.689
REMARK  7 active torsions:
REMARK  status: ('A' for Active; 'I' for Inactive)
REMARK       I    between atoms: C_2  and  N_1 
REMARK    1  A    between atoms: C_3  and  N_1 
REMARK    2  A    between atoms: C_4  and  C_2 
REMARK    3  A    between atoms: N_9  and  C_3 
REMARK    4  A    between atoms: O_19  and  C_6 
REMARK    5  A    between atoms: C_7  and  C_18 
REMARK    6  A    between atoms: C_18  and  N_9 
REMARK    7  A    between atoms: O_20  and  C_12 
ROOT
ATOM      1  N   UNL d   1     -42.623-121.941 -51.114  0.00  0.00    -0.179 NA
ATOM      2  C   UNL d   1     -42.939-121.995 -51.877  0.00  0.00     0.281 C 
ATOM      3  O   UNL d   1     -43.715-121.744 -52.027  0.00  0.00    -0.265 OA
ENDROOT
BRANCH   2   4
ATOM      4  C   UNL d   1     -42.486-122.300 -52.496  0.00  0.00     0.060 A 
ATOM      5  C   UNL d   1     -42.282-121.822 -53.141  0.00  0.00     0.031 A 
ATOM      6  C   UNL d   1     -41.829-122.129 -53.759  0.00  0.00     0.116 A 
ATOM      7  C   UNL d   1     -41.578-122.919 -53.729  0.00  0.00     0.116 A 
ATOM      8  C   UNL d   1     -41.781-123.396 -53.085  0.00  0.00     0.026 A 
ATOM      9  C   UNL d   1     -42.237-123.077 -52.471  0.00  0.00     0.007 A 
BRANCH   6  10
ATOM     10  O   UNL d   1     -41.625-121.652 -54.403  0.00  0.00    -0.326 OA
ATOM     11  C   UNL d   1     -42.204-121.223 -54.804  0.00  0.00     0.181 C 
ENDBRANCH   6  10
BRANCH   7  12
ATOM     12  O   UNL d   1     -41.123-123.224 -54.351  0.00  0.00    -0.326 OA
ATOM     13  C   UNL d   1     -41.428-123.816 -54.838  0.00  0.00     0.181 C 
ENDBRANCH   7  12
ENDBRANCH   2   4
BRANCH   1  14
ATOM     14  C   UNL d   1     -41.853-122.191 -50.973  0.00  0.00     0.224 C 
ATOM     15  S   UNL d   1     -41.157-121.864 -51.295  0.00  0.00    -0.037 SA
BRANCH  14  16
ATOM     16  N   UNL d   1     -41.624-122.822 -50.479  0.00  0.00    -0.214 NA
BRANCH  16  17
ATOM     17  C   UNL d   1     -41.217-122.751 -49.762  0.00  0.00     0.126 C 
BRANCH  17  18
ATOM     18  C   UNL d   1     -41.532-123.086 -49.078  0.00  0.00     0.119 A 
ATOM     19  O   UNL d   1     -42.066-123.700 -48.961  0.00  0.00    -0.304 OA
ATOM     20  C   UNL d   1     -42.173-123.788 -48.150  0.00  0.00     0.123 A 
ATOM     21  C   UNL d   1     -41.706-123.229 -47.769  0.00  0.00     0.029 A 
ATOM     22  C   UNL d   1     -41.308-122.793 -48.340  0.00  0.00     0.028 A 
ENDBRANCH  17  18
ENDBRANCH  16  17
ENDBRANCH  14  16
ENDBRANCH   1  14
TORSDOF 7
ENDMDL
