MODEL 1
REMARK VINA RESULT:       2.0      0.000      0.000
REMARK  3 active torsions:
REMARK  status: ('A' for Active; 'I' for Inactive)
REMARK    1  A    between atoms: C_13  and  N_2 
REMARK    2  A    between atoms: N_5  and  C_14 
REMARK    3  A    between atoms: C_14  and  C_13 
ROOT
ATOM      1  C   UNL d   1     -41.537-122.411 -52.499  0.00  0.00     0.166 A 
ATOM      2  N   UNL d   1     -41.558-122.272 -51.674  0.00  0.00    -0.288 N 
ATOM      3  C   UNL d   1     -41.388-121.691 -52.882  0.00  0.00     0.117 A 
ATOM      4  N   UNL d   1     -41.637-123.116 -52.933  0.00  0.00    -0.225 NA
ATOM      5  N   UNL d   1     -41.339-121.672 -53.700  0.00  0.00    -0.241 NA
ATOM      6  C   UNL d   1     -41.316-121.101 -52.291  0.00  0.00     0.037 A 
ATOM      7  C   UNL d   1     -41.422-121.466 -51.562  0.00  0.00     0.067 A 
ATOM      8  C   UNL d   1     -41.589-123.101 -53.756  0.00  0.00     0.101 A 
ATOM      9  C   UNL d   1     -41.439-122.379 -54.139  0.00  0.00     0.099 A 
ATOM     10  C   UNL d   1     -41.166-120.273 -52.354  0.00  0.00     0.003 A 
ATOM     11  C   UNL d   1     -41.377-120.994 -50.859  0.00  0.00     0.018 A 
ATOM     12  C   UNL d   1     -41.688-123.805 -54.200  0.00  0.00     0.021 A 
ATOM     13  C   UNL d   1     -41.395-122.384 -54.944  0.00  0.00     0.021 A 
ATOM     14  C   UNL d   1     -41.123-119.818 -51.677  0.00  0.00     0.000 A 
ATOM     15  C   UNL d   1     -41.228-120.179 -50.941  0.00  0.00     0.002 A 
ATOM     16  C   UNL d   1     -41.491-123.068 -55.401  0.00  0.00     0.002 A 
ATOM     17  C   UNL d   1     -41.640-123.790 -55.019  0.00  0.00     0.002 A 
ENDROOT
BRANCH   2  18
ATOM     18  C   UNL d   1     -41.643-122.502 -50.883  0.00  0.00     0.101 C 
BRANCH  18  19
ATOM     19  C   UNL d   1     -42.109-123.155 -50.689  0.00  0.00     0.104 C 
BRANCH  19  20
ATOM     20  N   UNL d   1     -42.201-123.366 -49.898  0.00  0.00    -0.250 N 
ATOM     21  C   UNL d   1     -41.789-123.456 -49.376  0.00  0.00     0.378 A 
ATOM     22  O   UNL d   1     -42.161-123.630 -48.846  0.00  0.00    -0.258 OA
ATOM     23  O   UNL d   1     -41.125-123.385 -49.382  0.00  0.00    -0.237 OA
ATOM     24  C   UNL d   1     -42.803-123.647 -49.042  0.00  0.00     0.121 A 
ATOM     25  C   UNL d   1     -42.827-123.484 -49.692  0.00  0.00     0.092 A 
ATOM     26  C   UNL d   1     -43.373-123.790 -48.714  0.00  0.00     0.026 A 
ATOM     27  C   UNL d   1     -43.413-123.462 -50.016  0.00  0.00     0.020 A 
ATOM     28  C   UNL d   1     -43.981-123.606 -49.684  0.00  0.00     0.002 A 
ATOM     29  C   UNL d   1     -43.959-123.768 -49.038  0.00  0.00     0.002 A 
ENDBRANCH  19  20
ENDBRANCH  18  19
ENDBRANCH   2  18
TORSDOF 3
ENDMDL
