MODEL 1
REMARK VINA RESULT:      53.4      0.000      0.000
REMARK  4 active torsions:
REMARK  status: ('A' for Active; 'I' for Inactive)
REMARK    1  A    between atoms: C_3  and  C_1 
REMARK    2  A    between atoms: C_7  and  C_3 
REMARK    3  A    between atoms: N_9  and  C_4 
REMARK    4  A    between atoms: C_8  and  C_7 
ROOT
ATOM      1  C   UNL d   1      59.397  49.687  51.062  0.00  0.00     0.106 C 
ATOM      2  C   UNL d   1      59.460  49.688  51.858  0.00  0.00     0.104 C 
ATOM      3  N   UNL d   1      59.508  49.690  52.680  0.00  0.00    -0.191 NA
ENDROOT
BRANCH   1   4
ATOM      4  C   UNL d   1      58.666  49.680  50.681  0.00  0.00     0.172 A 
ATOM      5  N   UNL d   1      58.517  49.658  49.893  0.00  0.00    -0.225 NA
ATOM      6  C   UNL d   1      57.707  49.660  49.768  0.00  0.00     0.101 A 
ATOM      7  C   UNL d   1      57.239  49.643  49.082  0.00  0.00     0.021 A 
ATOM      8  C   UNL d   1      57.353  49.684  50.518  0.00  0.00     0.101 A 
ATOM      9  C   UNL d   1      56.417  49.650  49.130  0.00  0.00     0.002 A 
ATOM     10  C   UNL d   1      56.065  49.674  49.898  0.00  0.00     0.002 A 
ATOM     11  C   UNL d   1      56.532  49.691  50.583  0.00  0.00     0.021 A 
ATOM     12  N   UNL d   1      57.953  49.696  51.073  0.00  0.00    -0.225 NA
ENDBRANCH   1   4
BRANCH   1  13
ATOM     13  C   UNL d   1      60.083  49.691  50.594  0.00  0.00     0.038 C 
BRANCH  13  14
ATOM     14  C   UNL d   1      60.568  49.019  50.550  0.00  0.00     0.103 A 
ATOM     15  O   UNL d   1      60.408  48.228  50.378  0.00  0.00    -0.290 OA
ATOM     16  C   UNL d   1      61.113  47.820  50.419  0.00  0.00     0.168 A 
ATOM     17  C   UNL d   1      61.704  48.338  50.611  0.00  0.00     0.045 A 
ATOM     18  C   UNL d   1      61.376  49.087  50.696  0.00  0.00     0.028 A 
BRANCH  16  19
ATOM     19  N   UNL d   1      61.260  47.017  50.296  0.00  0.00    -0.281 N 
ATOM     20  C   UNL d   1      60.929  46.462  50.788  0.00  0.00     0.109 A 
ATOM     21  C   UNL d   1      61.076  45.659  50.665  0.00  0.00     0.142 A 
ATOM     22  O   UNL d   1      61.559  45.434  50.041  0.00  0.00    -0.300 OA
ATOM     23  C   UNL d   1      61.895  45.988  49.542  0.00  0.00     0.142 A 
ATOM     24  C   UNL d   1      61.743  46.789  49.672  0.00  0.00     0.109 A 
ENDBRANCH  16  19
ENDBRANCH  13  14
ENDBRANCH   1  13
TORSDOF 4
ENDMDL
