MODEL 1
REMARK VINA RESULT:      41.5      0.000      0.000
REMARK  2 active torsions:
REMARK  status: ('A' for Active; 'I' for Inactive)
REMARK    1  A    between atoms: O_3  and  C_1 
REMARK    2  A    between atoms: C_2  and  O_3 
REMARK       I    between atoms: N_7  and  C_2 
ROOT
ATOM      1  C   UNL d   1     -51.619  25.663  33.370  0.00  0.00     0.133 A 
ATOM      2  C   UNL d   1     -51.514  24.832  33.352  0.00  0.00     0.106 A 
ATOM      3  C   UNL d   1     -52.170  24.342  33.331  0.00  0.00     0.030 A 
ATOM      4  C   UNL d   1     -52.376  25.983  33.366  0.00  0.00     0.083 A 
ATOM      5  C   UNL d   1     -52.932  24.654  33.327  0.00  0.00     0.060 A 
ATOM      6  C   UNL d   1     -53.036  25.485  33.345  0.00  0.00     0.025 A 
ATOM      7  N   UNL d   1     -50.748  24.521  33.356  0.00  0.00    -0.242 NA
ATOM      8 CL   UNL d   1     -52.479  26.801  33.384  0.00  0.00    -0.080 Cl
ATOM      9 CL   UNL d   1     -53.597  24.164  33.306  0.00  0.00    -0.082 Cl
ATOM     10  C   UNL d   1     -52.067  23.524  33.313  0.00  0.00     0.004 A 
ATOM     11  C   UNL d   1     -50.645  23.702  33.338  0.00  0.00     0.099 A 
ATOM     12  C   UNL d   1     -51.309  23.204  33.317  0.00  0.00     0.021 A 
ENDROOT
BRANCH   1  13
ATOM     13  O   UNL d   1     -50.956  26.174  33.392  0.00  0.00    -0.257 OA
BRANCH  13  14
ATOM     14  C   UNL d   1     -51.068  27.005  33.386  0.00  0.00     0.378 C 
ATOM     15  N   UNL d   1     -50.425  27.508  33.452  0.00  0.00    -0.252 N 
ATOM     16  C   UNL d   1     -50.542  28.327  33.446  0.00  0.00     0.085 A 
ATOM     17  C   UNL d   1     -49.663  27.201  33.526  0.00  0.00     0.085 A 
ATOM     18  C   UNL d   1     -49.897  28.836  33.512  0.00  0.00     0.019 A 
ATOM     19  C   UNL d   1     -49.134  28.529  33.586  0.00  0.00     0.003 A 
ATOM     20  C   UNL d   1     -49.021  27.715  33.592  0.00  0.00     0.019 A 
ATOM     21  O   UNL d   1     -51.842  27.316  33.311  0.00  0.00    -0.237 OA
ENDBRANCH  13  14
ENDBRANCH   1  13
TORSDOF 2
ENDMDL
MODEL 2
REMARK VINA RESULT:      44.2      1.208      1.884
REMARK  2 active torsions:
REMARK  status: ('A' for Active; 'I' for Inactive)
REMARK    1  A    between atoms: O_3  and  C_1 
REMARK    2  A    between atoms: C_2  and  O_3 
REMARK       I    between atoms: N_7  and  C_2 
ROOT
ATOM      1  C   UNL d   1     -51.229  25.252  33.345  0.00  0.00     0.133 A 
ATOM      2  C   UNL d   1     -52.065  25.307  33.332  0.00  0.00     0.106 A 
ATOM      3  C   UNL d   1     -52.515  24.623  33.323  0.00  0.00     0.030 A 
ATOM      4  C   UNL d   1     -50.864  24.515  33.349  0.00  0.00     0.083 A 
ATOM      5  C   UNL d   1     -52.158  23.881  33.326  0.00  0.00     0.060 A 
ATOM      6  C   UNL d   1     -51.322  23.826  33.339  0.00  0.00     0.025 A 
ATOM      7  N   UNL d   1     -52.421  26.053  33.329  0.00  0.00    -0.242 NA
ATOM      8 CL   UNL d   1     -50.041  24.461  33.361  0.00  0.00    -0.080 Cl
ATOM      9 CL   UNL d   1     -52.609  23.188  33.317  0.00  0.00    -0.082 Cl
ATOM     10  C   UNL d   1     -53.338  24.677  33.310  0.00  0.00     0.004 A 
ATOM     11  C   UNL d   1     -53.244  26.107  33.316  0.00  0.00     0.099 A 
ATOM     12  C   UNL d   1     -53.702  25.415  33.307  0.00  0.00     0.021 A 
ENDROOT
BRANCH   1  13
ATOM     13  O   UNL d   1     -50.757  25.944  33.355  0.00  0.00    -0.257 OA
BRANCH  13  14
ATOM     14  C   UNL d   1     -50.386  26.187  34.065  0.00  0.00     0.378 C 
ATOM     15  N   UNL d   1     -49.910  26.854  34.074  0.00  0.00    -0.252 N 
ATOM     16  C   UNL d   1     -49.546  27.090  34.779  0.00  0.00     0.085 A 
ATOM     17  C   UNL d   1     -49.793  27.291  33.384  0.00  0.00     0.085 A 
ATOM     18  C   UNL d   1     -49.067  27.760  34.790  0.00  0.00     0.019 A 
ATOM     19  C   UNL d   1     -48.950  28.197  34.100  0.00  0.00     0.003 A 
ATOM     20  C   UNL d   1     -49.312  27.961  33.402  0.00  0.00     0.019 A 
ATOM     21  O   UNL d   1     -50.505  25.744  34.765  0.00  0.00    -0.237 OA
ENDBRANCH  13  14
ENDBRANCH   1  13
TORSDOF 2
ENDMDL
