MODEL 1
REMARK VINA RESULT:      -5.1      0.000      0.000
REMARK  2 active torsions:
REMARK  status: ('A' for Active; 'I' for Inactive)
REMARK    1  A    between atoms: C_6  and  N_1 
REMARK    2  A    between atoms: C_7  and  C_6 
ROOT
ATOM      1  N   UNL d   1     -41.601-122.374 -53.985  0.00  0.00    -0.236 N 
ATOM      2  C   UNL d   1     -41.507-123.155 -53.782  0.00  0.00     0.267 A 
ATOM      3  C   UNL d   1     -41.531-121.920 -53.319  0.00  0.00     0.267 A 
ATOM      4  C   UNL d   1     -41.377-123.190 -52.976  0.00  0.00     0.061 A 
ATOM      5  C   UNL d   1     -41.392-122.419 -52.687  0.00  0.00     0.061 A 
ATOM      6  O   UNL d   1     -41.537-123.816 -54.299  0.00  0.00    -0.267 OA
ATOM      7  O   UNL d   1     -41.590-121.080 -53.274  0.00  0.00    -0.267 OA
ATOM      8  C   UNL d   1     -41.275-122.285 -51.881  0.00  0.00     0.005 A 
ATOM      9  C   UNL d   1     -41.245-123.816 -52.455  0.00  0.00     0.005 A 
ATOM     10  C   UNL d   1     -41.127-123.684 -51.646  0.00  0.00     0.000 A 
ATOM     11  C   UNL d   1     -41.142-122.912 -51.357  0.00  0.00     0.000 A 
ENDROOT
BRANCH   1  12
ATOM     12  C   UNL d   1     -41.744-122.112 -54.761  0.00  0.00     0.134 C 
ATOM     13  C   UNL d   1     -41.144-121.953 -55.284  0.00  0.00     0.026 C 
BRANCH  12  14
ATOM     14  C   UNL d   1     -42.538-122.011 -55.001  0.00  0.00     0.228 C 
ATOM     15  O   UNL d   1     -42.838-122.460 -55.640  0.00  0.00    -0.643 OA
ATOM     16  O   UNL d   1     -43.030-121.469 -54.610  0.00  0.00    -0.643 OA
ENDBRANCH  12  14
ENDBRANCH   1  12
TORSDOF 2
ENDMDL
MODEL 2
REMARK VINA RESULT:      -5.1      0.254      1.361
REMARK  2 active torsions:
REMARK  status: ('A' for Active; 'I' for Inactive)
REMARK    1  A    between atoms: C_6  and  N_1 
REMARK    2  A    between atoms: C_7  and  C_6 
ROOT
ATOM      1  N   UNL d   1     -41.662-122.376 -54.232  0.00  0.00    -0.236 N 
ATOM      2  C   UNL d   1     -41.575-121.920 -53.567  0.00  0.00     0.267 A 
ATOM      3  C   UNL d   1     -41.562-123.154 -54.033  0.00  0.00     0.267 A 
ATOM      4  C   UNL d   1     -41.417-122.419 -52.939  0.00  0.00     0.061 A 
ATOM      5  C   UNL d   1     -41.410-123.190 -53.230  0.00  0.00     0.061 A 
ATOM      6  O   UNL d   1     -41.633-121.083 -53.519  0.00  0.00    -0.267 OA
ATOM      7  O   UNL d   1     -41.606-123.817 -54.551  0.00  0.00    -0.267 OA
ATOM      8  C   UNL d   1     -41.263-123.817 -52.715  0.00  0.00     0.005 A 
ATOM      9  C   UNL d   1     -41.278-122.287 -52.137  0.00  0.00     0.005 A 
ATOM     10  C   UNL d   1     -41.130-122.916 -51.618  0.00  0.00     0.000 A 
ATOM     11  C   UNL d   1     -41.123-123.686 -51.909  0.00  0.00     0.000 A 
ENDROOT
BRANCH   1  12
ATOM     12  C   UNL d   1     -41.829-122.067 -54.987  0.00  0.00     0.134 C 
ATOM     13  C   UNL d   1     -41.243-121.843 -55.503  0.00  0.00     0.026 C 
BRANCH  12  14
ATOM     14  C   UNL d   1     -42.630-121.989 -55.212  0.00  0.00     0.228 C 
ATOM     15  O   UNL d   1     -42.907-122.377 -55.899  0.00  0.00    -0.643 OA
ATOM     16  O   UNL d   1     -43.150-121.528 -54.758  0.00  0.00    -0.643 OA
ENDBRANCH  12  14
ENDBRANCH   1  12
TORSDOF 2
ENDMDL
MODEL 3
REMARK VINA RESULT:      -4.4      1.522      3.058
REMARK  2 active torsions:
REMARK  status: ('A' for Active; 'I' for Inactive)
REMARK    1  A    between atoms: C_6  and  N_1 
REMARK    2  A    between atoms: C_7  and  C_6 
ROOT
ATOM      1  N   UNL d   1     -41.559-122.424 -52.173  0.00  0.00    -0.236 N 
ATOM      2  C   UNL d   1     -41.688-121.982 -52.842  0.00  0.00     0.267 A 
ATOM      3  C   UNL d   1     -41.354-123.176 -52.390  0.00  0.00     0.267 A 
ATOM      4  C   UNL d   1     -41.562-122.465 -53.489  0.00  0.00     0.061 A 
ATOM      5  C   UNL d   1     -41.354-123.211 -53.207  0.00  0.00     0.061 A 
ATOM      6  O   UNL d   1     -41.912-121.173 -52.876  0.00  0.00    -0.267 OA
ATOM      7  O   UNL d   1     -41.172-123.817 -51.875  0.00  0.00    -0.267 OA
ATOM      8  C   UNL d   1     -41.192-123.817 -53.742  0.00  0.00     0.005 A 
ATOM      9  C   UNL d   1     -41.607-122.337 -54.303  0.00  0.00     0.005 A 
ATOM     10  C   UNL d   1     -41.445-122.945 -54.842  0.00  0.00     0.000 A 
ATOM     11  C   UNL d   1     -41.236-123.690 -54.560  0.00  0.00     0.000 A 
ENDROOT
BRANCH   1  12
ATOM     12  C   UNL d   1     -41.633-122.125 -51.400  0.00  0.00     0.134 C 
ATOM     13  C   UNL d   1     -41.123-121.570 -51.098  0.00  0.00     0.026 C 
BRANCH  12  14
ATOM     14  C   UNL d   1     -42.258-122.413 -50.925  0.00  0.00     0.228 C 
ATOM     15  O   UNL d   1     -42.118-123.044 -50.395  0.00  0.00    -0.643 OA
ATOM     16  O   UNL d   1     -43.014-122.076 -50.978  0.00  0.00    -0.643 OA
ENDBRANCH  12  14
ENDBRANCH   1  12
TORSDOF 2
ENDMDL
MODEL 4
REMARK VINA RESULT:      -3.2      3.346      4.412
REMARK  2 active torsions:
REMARK  status: ('A' for Active; 'I' for Inactive)
REMARK    1  A    between atoms: C_6  and  N_1 
REMARK    2  A    between atoms: C_7  and  C_6 
ROOT
ATOM      1  N   UNL d   1     -42.289-123.039 -49.805  0.00  0.00    -0.236 N 
ATOM      2  C   UNL d   1     -42.920-123.460 -49.517  0.00  0.00     0.267 A 
ATOM      3  C   UNL d   1     -41.832-122.794 -49.184  0.00  0.00     0.267 A 
ATOM      4  C   UNL d   1     -42.859-123.479 -48.702  0.00  0.00     0.061 A 
ATOM      5  C   UNL d   1     -42.179-123.063 -48.494  0.00  0.00     0.061 A 
ATOM      6  O   UNL d   1     -43.534-123.817 -49.966  0.00  0.00    -0.267 OA
ATOM      7  O   UNL d   1     -41.123-122.341 -49.228  0.00  0.00    -0.267 OA
ATOM      8  C   UNL d   1     -41.975-122.991 -47.698  0.00  0.00     0.005 A 
ATOM      9  C   UNL d   1     -43.325-123.817 -48.112  0.00  0.00     0.005 A 
ATOM     10  C   UNL d   1     -43.121-123.746 -47.312  0.00  0.00     0.000 A 
ATOM     11  C   UNL d   1     -42.441-123.330 -47.104  0.00  0.00     0.000 A 
ENDROOT
BRANCH   1  12
ATOM     12  C   UNL d   1     -42.157-122.897 -50.614  0.00  0.00     0.134 C 
ATOM     13  C   UNL d   1     -41.873-123.470 -51.114  0.00  0.00     0.026 C 
BRANCH  12  14
ATOM     14  C   UNL d   1     -42.326-122.135 -50.912  0.00  0.00     0.228 C 
ATOM     15  O   UNL d   1     -41.709-121.667 -51.227  0.00  0.00    -0.643 OA
ATOM     16  O   UNL d   1     -43.102-121.841 -50.898  0.00  0.00    -0.643 OA
ENDBRANCH  12  14
ENDBRANCH   1  12
TORSDOF 2
ENDMDL
MODEL 5
REMARK VINA RESULT:      -3.1      3.294      4.717
REMARK  2 active torsions:
REMARK  status: ('A' for Active; 'I' for Inactive)
REMARK    1  A    between atoms: C_6  and  N_1 
REMARK    2  A    between atoms: C_7  and  C_6 
ROOT
ATOM      1  N   UNL d   1     -42.426-122.932 -49.527  0.00  0.00    -0.236 N 
ATOM      2  C   UNL d   1     -41.765-123.195 -49.919  0.00  0.00     0.267 A 
ATOM      3  C   UNL d   1     -42.756-122.324 -49.947  0.00  0.00     0.267 A 
ATOM      4  C   UNL d   1     -41.678-122.744 -50.595  0.00  0.00     0.061 A 
ATOM      5  C   UNL d   1     -42.297-122.200 -50.613  0.00  0.00     0.061 A 
ATOM      6  O   UNL d   1     -41.254-123.817 -49.681  0.00  0.00    -0.267 OA
ATOM      7  O   UNL d   1     -43.448-121.888 -49.744  0.00  0.00    -0.267 OA
ATOM      8  C   UNL d   1     -42.351-121.667 -51.240  0.00  0.00     0.005 A 
ATOM      9  C   UNL d   1     -41.123-122.747 -51.204  0.00  0.00     0.005 A 
ATOM     10  C   UNL d   1     -41.175-122.212 -51.835  0.00  0.00     0.000 A 
ATOM     11  C   UNL d   1     -41.794-121.668 -51.853  0.00  0.00     0.000 A 
ENDROOT
BRANCH   1  12
ATOM     12  C   UNL d   1     -42.699-123.255 -48.811  0.00  0.00     0.134 C 
ATOM     13  C   UNL d   1     -43.284-123.817 -48.783  0.00  0.00     0.026 C 
BRANCH  12  14
ATOM     14  C   UNL d   1     -42.352-122.984 -48.100  0.00  0.00     0.228 C 
ATOM     15  O   UNL d   1     -41.724-123.416 -47.755  0.00  0.00    -0.643 OA
ATOM     16  O   UNL d   1     -42.627-122.291 -47.737  0.00  0.00    -0.643 OA
ENDBRANCH  12  14
ENDBRANCH   1  12
TORSDOF 2
ENDMDL
