MODEL 1
REMARK VINA RESULT:      61.2      0.000      0.000
REMARK  5 active torsions:
REMARK  status: ('A' for Active; 'I' for Inactive)
REMARK    1  A    between atoms: N_12  and  C_4 
REMARK    2  A    between atoms: C_19  and  N_5 
REMARK    3  A    between atoms: C_11  and  S_18 
REMARK    4  A    between atoms: S_18  and  C_21 
REMARK    5  A    between atoms: C_21  and  C_19 
ROOT
ATOM      1  C   UNL d   1      15.578  15.419  -0.728  0.00  0.00     0.191 A 
ATOM      2  C   UNL d   1      14.988  15.417  -1.304  0.00  0.00     0.174 A 
ATOM      3  N   UNL d   1      15.605  14.669  -0.392  0.00  0.00    -0.042 NA
ATOM      4  C   UNL d   1      15.039  14.206  -0.754  0.00  0.00     0.722 A 
ATOM      5  N   UNL d   1      14.651  14.665  -1.323  0.00  0.00    -0.132 N 
ATOM      6  N   UNL d   1      16.013  16.106  -0.587  0.00  0.00    -0.239 N 
ATOM      7  C   UNL d   1      15.858  16.791  -1.021  0.00  0.00     0.358 A 
ATOM      8  N   UNL d   1      15.268  16.788  -1.596  0.00  0.00    -0.152 NA
ATOM      9  C   UNL d   1      14.832  16.101  -1.738  0.00  0.00     0.303 A 
ATOM     10  O   UNL d   1      16.296  17.477  -0.876  0.00  0.00    -0.244 OA
ATOM     11  O   UNL d   1      14.243  16.099  -2.314  0.00  0.00    -0.263 OA
ATOM     12  C   UNL d   1      16.597  16.108  -0.017  0.00  0.00     0.105 C 
ENDROOT
BRANCH   5  13
ATOM     13  C   UNL d   1      14.037  14.417  -1.821  0.00  0.00     0.105 C 
BRANCH  13  14
ATOM     14  C   UNL d   1      14.059  14.597  -2.631  0.00  0.00     0.058 C 
BRANCH  14  15
ATOM     15  S   UNL d   1      13.379  14.476  -3.100  0.00  0.00    -0.041 SA
BRANCH  15  16
ATOM     16  C   UNL d   1      13.410  13.930  -3.721  0.00  0.00     0.215 A 
ATOM     17  N   UNL d   1      12.937  13.264  -3.717  0.00  0.00    -0.214 NA
ATOM     18  C   UNL d   1      13.090  12.838  -4.391  0.00  0.00     0.107 A 
ATOM     19  C   UNL d   1      12.770  12.123  -4.666  0.00  0.00     0.021 A 
ATOM     20  C   UNL d   1      13.654  13.223  -4.825  0.00  0.00     0.120 A 
ATOM     21  C   UNL d   1      13.031  11.807  -5.387  0.00  0.00     0.002 A 
ATOM     22  C   UNL d   1      13.595  12.195  -5.818  0.00  0.00     0.002 A 
ATOM     23  C   UNL d   1      13.908  12.906  -5.536  0.00  0.00     0.026 A 
ATOM     24  O   UNL d   1      13.860  13.914  -4.406  0.00  0.00    -0.283 OA
ENDBRANCH  15  16
ENDBRANCH  14  15
ENDBRANCH  13  14
ENDBRANCH   5  13
BRANCH   4  25
ATOM     25  N   UNL d   1      14.855  13.415  -0.609  0.00  0.00    -0.139 N 
ATOM     26  C   UNL d   1      14.082  13.205  -0.386  0.00  0.00     0.098 A 
ATOM     27  C   UNL d   1      13.898  12.413  -0.241  0.00  0.00     0.020 A 
ATOM     28  C   UNL d   1      14.473  11.835  -0.315  0.00  0.00     0.003 A 
ATOM     29  C   UNL d   1      15.239  12.047  -0.536  0.00  0.00     0.020 A 
ATOM     30  C   UNL d   1      15.431  12.837  -0.683  0.00  0.00     0.098 A 
ENDBRANCH   4  25
TORSDOF 5
ENDMDL
MODEL 2
REMARK VINA RESULT:      63.8      1.146      4.528
REMARK  5 active torsions:
REMARK  status: ('A' for Active; 'I' for Inactive)
REMARK    1  A    between atoms: N_12  and  C_4 
REMARK    2  A    between atoms: C_19  and  N_5 
REMARK    3  A    between atoms: C_11  and  S_18 
REMARK    4  A    between atoms: S_18  and  C_21 
REMARK    5  A    between atoms: C_21  and  C_19 
ROOT
ATOM      1  C   UNL d   1      13.547  12.664  -3.572  0.00  0.00     0.191 A 
ATOM      2  C   UNL d   1      13.621  13.432  -3.282  0.00  0.00     0.174 A 
ATOM      3  N   UNL d   1      13.757  12.145  -2.970  0.00  0.00    -0.042 NA
ATOM      4  C   UNL d   1      13.958  12.585  -2.312  0.00  0.00     0.722 A 
ATOM      5  N   UNL d   1      13.876  13.387  -2.500  0.00  0.00    -0.132 N 
ATOM      6  N   UNL d   1      13.298  12.540  -4.349  0.00  0.00    -0.239 N 
ATOM      7  C   UNL d   1      13.124  13.183  -4.836  0.00  0.00     0.358 A 
ATOM      8  N   UNL d   1      13.198  13.951  -4.545  0.00  0.00    -0.152 NA
ATOM      9  C   UNL d   1      13.446  14.076  -3.768  0.00  0.00     0.303 A 
ATOM     10  O   UNL d   1      12.875  13.054  -5.614  0.00  0.00    -0.244 OA
ATOM     11  O   UNL d   1      13.520  14.844  -3.478  0.00  0.00    -0.263 OA
ATOM     12  C   UNL d   1      13.225  11.780  -4.637  0.00  0.00     0.105 C 
ENDROOT
BRANCH   5  13
ATOM     13  C   UNL d   1      14.023  14.028  -1.996  0.00  0.00     0.105 C 
BRANCH  13  14
ATOM     14  C   UNL d   1      14.787  14.345  -1.937  0.00  0.00     0.058 C 
BRANCH  14  15
ATOM     15  S   UNL d   1      15.022  14.731  -1.233  0.00  0.00    -0.041 SA
BRANCH  15  16
ATOM     16  C   UNL d   1      15.145  15.549  -1.246  0.00  0.00     0.215 A 
ATOM     17  N   UNL d   1      15.187  15.977  -0.550  0.00  0.00    -0.214 NA
ATOM     18  C   UNL d   1      15.310  16.757  -0.738  0.00  0.00     0.107 A 
ATOM     19  C   UNL d   1      15.395  17.425  -0.253  0.00  0.00     0.021 A 
ATOM     20  C   UNL d   1      15.348  16.833  -1.543  0.00  0.00     0.120 A 
ATOM     21  C   UNL d   1      15.518  18.169  -0.597  0.00  0.00     0.002 A 
ATOM     22  C   UNL d   1      15.554  18.241  -1.402  0.00  0.00     0.002 A 
ATOM     23  C   UNL d   1      15.469  17.571  -1.877  0.00  0.00     0.026 A 
ATOM     24  O   UNL d   1      15.244  16.072  -1.868  0.00  0.00    -0.283 OA
ENDBRANCH  15  16
ENDBRANCH  14  15
ENDBRANCH  13  14
ENDBRANCH   5  13
BRANCH   4  25
ATOM     25  N   UNL d   1      14.205  12.316  -1.573  0.00  0.00    -0.139 N 
ATOM     26  C   UNL d   1      15.013  12.182  -1.430  0.00  0.00     0.098 A 
ATOM     27  C   UNL d   1      15.260  11.913  -0.689  0.00  0.00     0.020 A 
ATOM     28  C   UNL d   1      14.711  11.779  -0.095  0.00  0.00     0.003 A 
ATOM     29  C   UNL d   1      13.911  11.914  -0.240  0.00  0.00     0.020 A 
ATOM     30  C   UNL d   1      13.656  12.182  -0.979  0.00  0.00     0.098 A 
ENDBRANCH   4  25
TORSDOF 5
ENDMDL
