MODEL 1
REMARK VINA RESULT:      -8.2      0.000      0.000
REMARK  3 active torsions:
REMARK  status: ('A' for Active; 'I' for Inactive)
REMARK    1  A    between atoms: N_9  and  C_4 
REMARK       I    between atoms: C_7  and  N_10 
REMARK    2  A    between atoms: C_8  and  C_7 
REMARK    3  A    between atoms: N_10  and  N_9 
ROOT
ATOM      1  C   UNL d   1     -49.174  12.920  22.980  0.00  0.00     0.297 C 
ATOM      2  N   UNL d   1     -48.379  12.923  22.766  0.00  0.00    -0.104 NA
ATOM      3  O   UNL d   1     -49.408  12.582  23.695  0.00  0.00    -0.264 OA
ENDROOT
BRANCH   1   4
ATOM      4  C   UNL d   1     -49.735  13.255  22.480  0.00  0.00     0.059 A 
ATOM      5  C   UNL d   1     -50.086  13.977  22.691  0.00  0.00     0.005 A 
ATOM      6  C   UNL d   1     -50.650  14.305  22.180  0.00  0.00     0.000 A 
ATOM      7  C   UNL d   1     -49.881  14.352  23.381  0.00  0.00     0.000 A 
ATOM      8  C   UNL d   1     -51.001  15.018  22.381  0.00  0.00     0.000 A 
ATOM      9  C   UNL d   1     -50.858  13.924  21.478  0.00  0.00     0.000 A 
ATOM     10  C   UNL d   1     -50.799  15.397  23.071  0.00  0.00     0.000 A 
ATOM     11  C   UNL d   1     -50.233  15.063  23.580  0.00  0.00     0.000 A 
ATOM     12  C   UNL d   1     -50.505  13.208  21.277  0.00  0.00     0.000 A 
ATOM     13  C   UNL d   1     -49.941  12.871  21.779  0.00  0.00     0.005 A 
ENDBRANCH   1   4
BRANCH   2  14
ATOM     14  N   UNL d   1     -47.818  12.589  23.266  0.00  0.00    -0.127 NA
BRANCH  14  15
ATOM     15  C   UNL d   1     -47.016  12.617  23.066  0.00  0.00     0.178 A 
ATOM     16  N   UNL d   1     -46.514  12.003  23.281  0.00  0.00    -0.240 N 
ATOM     17  C   UNL d   1     -45.721  12.032  23.083  0.00  0.00     0.343 A 
ATOM     18  C   UNL d   1     -46.811  11.357  23.698  0.00  0.00     0.105 C 
ATOM     19  N   UNL d   1     -45.424  12.678  22.666  0.00  0.00    -0.224 N 
ATOM     20  O   UNL d   1     -45.218  11.414  23.300  0.00  0.00    -0.245 OA
ATOM     21  C   UNL d   1     -45.916  13.303  22.443  0.00  0.00     0.271 A 
ATOM     22  C   UNL d   1     -44.622  12.707  22.466  0.00  0.00     0.107 C 
ATOM     23  C   UNL d   1     -46.719  13.263  22.649  0.00  0.00     0.101 A 
ATOM     24  O   UNL d   1     -45.621  13.943  22.030  0.00  0.00    -0.266 OA
ENDBRANCH  14  15
ENDBRANCH   2  14
TORSDOF 3
ENDMDL
MODEL 2
REMARK VINA RESULT:      -8.0      1.072      1.813
REMARK  3 active torsions:
REMARK  status: ('A' for Active; 'I' for Inactive)
REMARK    1  A    between atoms: N_9  and  C_4 
REMARK       I    between atoms: C_7  and  N_10 
REMARK    2  A    between atoms: C_8  and  C_7 
REMARK    3  A    between atoms: N_10  and  N_9 
ROOT
ATOM      1  C   UNL d   1     -48.637  13.291  23.309  0.00  0.00     0.297 C 
ATOM      2  N   UNL d   1     -47.946  12.876  23.142  0.00  0.00    -0.104 NA
ATOM      3  O   UNL d   1     -48.595  14.064  23.594  0.00  0.00    -0.264 OA
ENDROOT
BRANCH   1   4
ATOM      4  C   UNL d   1     -49.368  12.934  23.192  0.00  0.00     0.059 A 
ATOM      5  C   UNL d   1     -49.847  13.189  22.564  0.00  0.00     0.005 A 
ATOM      6  C   UNL d   1     -50.583  12.822  22.454  0.00  0.00     0.000 A 
ATOM      7  C   UNL d   1     -49.601  13.783  22.068  0.00  0.00     0.000 A 
ATOM      8  C   UNL d   1     -51.061  13.068  21.836  0.00  0.00     0.000 A 
ATOM      9  C   UNL d   1     -50.833  12.218  22.958  0.00  0.00     0.000 A 
ATOM     10  C   UNL d   1     -50.818  13.663  21.338  0.00  0.00     0.000 A 
ATOM     11  C   UNL d   1     -50.080  14.027  21.452  0.00  0.00     0.000 A 
ATOM     12  C   UNL d   1     -50.352  11.972  23.578  0.00  0.00     0.000 A 
ATOM     13  C   UNL d   1     -49.615  12.330  23.697  0.00  0.00     0.005 A 
ENDBRANCH   1   4
BRANCH   2  14
ATOM     14  N   UNL d   1     -47.214  13.233  23.259  0.00  0.00    -0.127 NA
BRANCH  14  15
ATOM     15  C   UNL d   1     -46.518  12.801  23.141  0.00  0.00     0.178 A 
ATOM     16  N   UNL d   1     -45.906  13.116  22.694  0.00  0.00    -0.240 N 
ATOM     17  C   UNL d   1     -45.219  12.689  22.578  0.00  0.00     0.343 A 
ATOM     18  C   UNL d   1     -45.985  13.867  22.361  0.00  0.00     0.105 C 
ATOM     19  N   UNL d   1     -45.139  11.938  22.911  0.00  0.00    -0.224 N 
ATOM     20  O   UNL d   1     -44.603  13.007  22.128  0.00  0.00    -0.245 OA
ATOM     21  C   UNL d   1     -45.746  11.607  23.363  0.00  0.00     0.271 A 
ATOM     22  C   UNL d   1     -44.445  11.506  22.794  0.00  0.00     0.107 C 
ATOM     23  C   UNL d   1     -46.439  12.051  23.474  0.00  0.00     0.101 A 
ATOM     24  O   UNL d   1     -45.668  10.864  23.693  0.00  0.00    -0.266 OA
ENDBRANCH  14  15
ENDBRANCH   2  14
TORSDOF 3
ENDMDL
MODEL 3
REMARK VINA RESULT:      -7.9      1.335      4.825
REMARK  3 active torsions:
REMARK  status: ('A' for Active; 'I' for Inactive)
REMARK    1  A    between atoms: N_9  and  C_4 
REMARK       I    between atoms: C_7  and  N_10 
REMARK    2  A    between atoms: C_8  and  C_7 
REMARK    3  A    between atoms: N_10  and  N_9 
ROOT
ATOM      1  C   UNL d   1     -46.857  13.423  23.093  0.00  0.00     0.297 C 
ATOM      2  N   UNL d   1     -47.589  13.393  22.718  0.00  0.00    -0.104 NA
ATOM      3  O   UNL d   1     -46.582  14.135  23.406  0.00  0.00    -0.264 OA
ENDROOT
BRANCH   1   4
ATOM      4  C   UNL d   1     -46.399  12.742  23.155  0.00  0.00     0.059 A 
ATOM      5  C   UNL d   1     -45.688  12.693  22.729  0.00  0.00     0.005 A 
ATOM      6  C   UNL d   1     -45.234  12.002  22.798  0.00  0.00     0.000 A 
ATOM      7  C   UNL d   1     -45.443  13.306  22.256  0.00  0.00     0.000 A 
ATOM      8  C   UNL d   1     -44.532  11.946  22.381  0.00  0.00     0.000 A 
ATOM      9  C   UNL d   1     -45.483  11.380  23.279  0.00  0.00     0.000 A 
ATOM     10  C   UNL d   1     -44.283  12.557  21.906  0.00  0.00     0.000 A 
ATOM     11  C   UNL d   1     -44.742  13.247  21.840  0.00  0.00     0.000 A 
ATOM     12  C   UNL d   1     -46.189  11.438  23.698  0.00  0.00     0.000 A 
ATOM     13  C   UNL d   1     -46.651  12.122  23.636  0.00  0.00     0.005 A 
ENDBRANCH   1   4
BRANCH   2  14
ATOM     14  N   UNL d   1     -48.047  14.073  22.656  0.00  0.00    -0.127 NA
BRANCH  14  15
ATOM     15  C   UNL d   1     -48.804  14.035  22.326  0.00  0.00     0.178 A 
ATOM     16  N   UNL d   1     -49.339  14.647  22.443  0.00  0.00    -0.240 N 
ATOM     17  C   UNL d   1     -50.088  14.608  22.117  0.00  0.00     0.343 A 
ATOM     18  C   UNL d   1     -49.119  15.304  22.891  0.00  0.00     0.105 C 
ATOM     19  N   UNL d   1     -50.308  13.951  21.668  0.00  0.00    -0.224 N 
ATOM     20  O   UNL d   1     -50.624  15.225  22.235  0.00  0.00    -0.245 OA
ATOM     21  C   UNL d   1     -49.782  13.327  21.542  0.00  0.00     0.271 A 
ATOM     22  C   UNL d   1     -51.064  13.911  21.338  0.00  0.00     0.107 C 
ATOM     23  C   UNL d   1     -49.024  13.378  21.878  0.00  0.00     0.101 A 
ATOM     24  O   UNL d   1     -50.000  12.677  21.098  0.00  0.00    -0.266 OA
ENDBRANCH  14  15
ENDBRANCH   2  14
TORSDOF 3
ENDMDL
MODEL 4
REMARK VINA RESULT:      -6.7      8.662     10.508
REMARK  3 active torsions:
REMARK  status: ('A' for Active; 'I' for Inactive)
REMARK    1  A    between atoms: N_9  and  C_4 
REMARK       I    between atoms: C_7  and  N_10 
REMARK    2  A    between atoms: C_8  and  C_7 
REMARK    3  A    between atoms: N_10  and  N_9 
ROOT
ATOM      1  C   UNL d   1     -39.651  13.823  18.209  0.00  0.00     0.297 C 
ATOM      2  N   UNL d   1     -39.417  14.105  18.947  0.00  0.00    -0.104 NA
ATOM      3  O   UNL d   1     -40.452  13.729  18.038  0.00  0.00    -0.264 OA
ENDROOT
BRANCH   1   4
ATOM      4  C   UNL d   1     -39.084  13.636  17.643  0.00  0.00     0.059 A 
ATOM      5  C   UNL d   1     -38.921  14.180  17.038  0.00  0.00     0.005 A 
ATOM      6  C   UNL d   1     -38.348  13.981  16.473  0.00  0.00     0.000 A 
ATOM      7  C   UNL d   1     -39.315  14.890  17.000  0.00  0.00     0.000 A 
ATOM      8  C   UNL d   1     -38.182  14.513  15.872  0.00  0.00     0.000 A 
ATOM      9  C   UNL d   1     -37.949  13.261  16.511  0.00  0.00     0.000 A 
ATOM     10  C   UNL d   1     -38.573  15.225  15.830  0.00  0.00     0.000 A 
ATOM     11  C   UNL d   1     -39.147  15.419  16.400  0.00  0.00     0.000 A 
ATOM     12  C   UNL d   1     -38.116  12.727  17.115  0.00  0.00     0.000 A 
ATOM     13  C   UNL d   1     -38.686  12.914  17.685  0.00  0.00     0.005 A 
ENDBRANCH   1   4
BRANCH   2  14
ATOM     14  N   UNL d   1     -39.984  14.292  19.513  0.00  0.00    -0.127 NA
BRANCH  14  15
ATOM     15  C   UNL d   1     -39.753  14.484  20.283  0.00  0.00     0.178 A 
ATOM     16  N   UNL d   1     -40.112  15.107  20.681  0.00  0.00    -0.240 N 
ATOM     17  C   UNL d   1     -39.883  15.296  21.442  0.00  0.00     0.343 A 
ATOM     18  C   UNL d   1     -40.706  15.542  20.310  0.00  0.00     0.105 C 
ATOM     19  N   UNL d   1     -39.288  14.860  21.814  0.00  0.00    -0.224 N 
ATOM     20  O   UNL d   1     -40.245  15.922  21.841  0.00  0.00    -0.245 OA
ATOM     21  C   UNL d   1     -38.917  14.232  21.427  0.00  0.00     0.271 A 
ATOM     22  C   UNL d   1     -39.056  15.051  22.584  0.00  0.00     0.107 C 
ATOM     23  C   UNL d   1     -39.158  14.049  20.654  0.00  0.00     0.101 A 
ATOM     24  O   UNL d   1     -38.329  13.801  21.795  0.00  0.00    -0.266 OA
ENDBRANCH  14  15
ENDBRANCH   2  14
TORSDOF 3
ENDMDL
MODEL 5
REMARK VINA RESULT:      -6.7      8.562     10.057
REMARK  3 active torsions:
REMARK  status: ('A' for Active; 'I' for Inactive)
REMARK    1  A    between atoms: N_9  and  C_4 
REMARK       I    between atoms: C_7  and  N_10 
REMARK    2  A    between atoms: C_8  and  C_7 
REMARK    3  A    between atoms: N_10  and  N_9 
ROOT
ATOM      1  C   UNL d   1     -40.410  14.253  19.518  0.00  0.00     0.297 C 
ATOM      2  N   UNL d   1     -39.878  14.387  18.904  0.00  0.00    -0.104 NA
ATOM      3  O   UNL d   1     -40.936  13.619  19.477  0.00  0.00    -0.264 OA
ENDROOT
BRANCH   1   4
ATOM      4  C   UNL d   1     -40.416  14.752  20.172  0.00  0.00     0.059 A 
ATOM      5  C   UNL d   1     -39.931  14.574  20.821  0.00  0.00     0.005 A 
ATOM      6  C   UNL d   1     -39.945  15.084  21.475  0.00  0.00     0.000 A 
ATOM      7  C   UNL d   1     -39.454  13.918  20.816  0.00  0.00     0.000 A 
ATOM      8  C   UNL d   1     -39.469  14.916  22.119  0.00  0.00     0.000 A 
ATOM      9  C   UNL d   1     -40.430  15.752  21.480  0.00  0.00     0.000 A 
ATOM     10  C   UNL d   1     -38.989  14.259  22.119  0.00  0.00     0.000 A 
ATOM     11  C   UNL d   1     -38.979  13.752  21.460  0.00  0.00     0.000 A 
ATOM     12  C   UNL d   1     -40.908  15.920  20.832  0.00  0.00     0.000 A 
ATOM     13  C   UNL d   1     -40.903  15.419  20.173  0.00  0.00     0.005 A 
ENDBRANCH   1   4
BRANCH   2  14
ATOM     14  N   UNL d   1     -39.871  13.888  18.250  0.00  0.00    -0.127 NA
BRANCH  14  15
ATOM     15  C   UNL d   1     -39.438  14.093  17.577  0.00  0.00     0.178 A 
ATOM     16  N   UNL d   1     -38.915  13.556  17.240  0.00  0.00    -0.240 N 
ATOM     17  C   UNL d   1     -38.487  13.760  16.574  0.00  0.00     0.343 A 
ATOM     18  C   UNL d   1     -38.822  12.809  17.576  0.00  0.00     0.105 C 
ATOM     19  N   UNL d   1     -38.580  14.508  16.238  0.00  0.00    -0.224 N 
ATOM     20  O   UNL d   1     -37.962  13.219  16.237  0.00  0.00    -0.245 OA
ATOM     21  C   UNL d   1     -39.101  15.059  16.564  0.00  0.00     0.271 A 
ATOM     22  C   UNL d   1     -38.147  14.714  15.565  0.00  0.00     0.107 C 
ATOM     23  C   UNL d   1     -39.530  14.841  17.240  0.00  0.00     0.101 A 
ATOM     24  O   UNL d   1     -39.193  15.799  16.231  0.00  0.00    -0.266 OA
ENDBRANCH  14  15
ENDBRANCH   2  14
TORSDOF 3
ENDMDL
MODEL 6
REMARK VINA RESULT:      -6.1      9.430     10.078
REMARK  3 active torsions:
REMARK  status: ('A' for Active; 'I' for Inactive)
REMARK    1  A    between atoms: N_9  and  C_4 
REMARK       I    between atoms: C_7  and  N_10 
REMARK    2  A    between atoms: C_8  and  C_7 
REMARK    3  A    between atoms: N_10  and  N_9 
ROOT
ATOM      1  C   UNL d   1     -38.692  14.917  19.366  0.00  0.00     0.297 C 
ATOM      2  N   UNL d   1     -38.771  14.547  20.097  0.00  0.00    -0.104 NA
ATOM      3  O   UNL d   1     -38.314  15.648  19.312  0.00  0.00    -0.264 OA
ENDROOT
BRANCH   1   4
ATOM      4  C   UNL d   1     -38.991  14.557  18.690  0.00  0.00     0.059 A 
ATOM      5  C   UNL d   1     -39.660  14.881  18.320  0.00  0.00     0.005 A 
ATOM      6  C   UNL d   1     -39.953  14.510  17.639  0.00  0.00     0.000 A 
ATOM      7  C   UNL d   1     -40.018  15.546  18.619  0.00  0.00     0.000 A 
ATOM      8  C   UNL d   1     -40.612  14.824  17.269  0.00  0.00     0.000 A 
ATOM      9  C   UNL d   1     -39.589  13.835  17.336  0.00  0.00     0.000 A 
ATOM     10  C   UNL d   1     -40.974  15.489  17.564  0.00  0.00     0.000 A 
ATOM     11  C   UNL d   1     -40.676  15.857  18.247  0.00  0.00     0.000 A 
ATOM     12  C   UNL d   1     -38.926  13.520  17.709  0.00  0.00     0.000 A 
ATOM     13  C   UNL d   1     -38.624  13.881  18.389  0.00  0.00     0.005 A 
ENDBRANCH   1   4
BRANCH   2  14
ATOM     14  N   UNL d   1     -38.472  14.908  20.774  0.00  0.00    -0.127 NA
BRANCH  14  15
ATOM     15  C   UNL d   1     -38.447  14.492  21.488  0.00  0.00     0.178 A 
ATOM     16  N   UNL d   1     -38.660  14.861  22.191  0.00  0.00    -0.240 N 
ATOM     17  C   UNL d   1     -38.635  14.449  22.896  0.00  0.00     0.343 A 
ATOM     18  C   UNL d   1     -38.900  15.650  22.183  0.00  0.00     0.105 C 
ATOM     19  N   UNL d   1     -38.395  13.660  22.904  0.00  0.00    -0.224 N 
ATOM     20  O   UNL d   1     -38.849  14.822  23.601  0.00  0.00    -0.245 OA
ATOM     21  C   UNL d   1     -38.178  13.275  22.207  0.00  0.00     0.271 A 
ATOM     22  C   UNL d   1     -38.370  13.243  23.618  0.00  0.00     0.107 C 
ATOM     23  C   UNL d   1     -38.207  13.703  21.496  0.00  0.00     0.101 A 
ATOM     24  O   UNL d   1     -37.940  12.493  22.215  0.00  0.00    -0.266 OA
ENDBRANCH  14  15
ENDBRANCH   2  14
TORSDOF 3
ENDMDL
MODEL 7
REMARK VINA RESULT:      -5.8      8.983     10.162
REMARK  3 active torsions:
REMARK  status: ('A' for Active; 'I' for Inactive)
REMARK    1  A    between atoms: N_9  and  C_4 
REMARK       I    between atoms: C_7  and  N_10 
REMARK    2  A    between atoms: C_8  and  C_7 
REMARK    3  A    between atoms: N_10  and  N_9 
ROOT
ATOM      1  C   UNL d   1     -39.764  14.849  20.935  0.00  0.00     0.297 C 
ATOM      2  N   UNL d   1     -39.519  14.759  20.154  0.00  0.00    -0.104 NA
ATOM      3  O   UNL d   1     -40.563  14.772  21.128  0.00  0.00    -0.264 OA
ENDROOT
BRANCH   1   4
ATOM      4  C   UNL d   1     -39.212  15.017  21.521  0.00  0.00     0.059 A 
ATOM      5  C   UNL d   1     -39.039  14.439  22.090  0.00  0.00     0.005 A 
ATOM      6  C   UNL d   1     -38.481  14.618  22.677  0.00  0.00     0.000 A 
ATOM      7  C   UNL d   1     -39.406  13.715  22.072  0.00  0.00     0.000 A 
ATOM      8  C   UNL d   1     -38.304  14.052  23.242  0.00  0.00     0.000 A 
ATOM      9  C   UNL d   1     -38.108  15.353  22.695  0.00  0.00     0.000 A 
ATOM     10  C   UNL d   1     -38.669  13.326  23.228  0.00  0.00     0.000 A 
ATOM     11  C   UNL d   1     -39.227  13.152  22.638  0.00  0.00     0.000 A 
ATOM     12  C   UNL d   1     -38.286  15.921  22.126  0.00  0.00     0.000 A 
ATOM     13  C   UNL d   1     -38.841  15.754  21.536  0.00  0.00     0.005 A 
ENDBRANCH   1   4
BRANCH   2  14
ATOM     14  N   UNL d   1     -40.071  14.591  19.567  0.00  0.00    -0.127 NA
BRANCH  14  15
ATOM     15  C   UNL d   1     -39.820  14.418  18.799  0.00  0.00     0.178 A 
ATOM     16  N   UNL d   1     -40.132  14.826  18.158  0.00  0.00    -0.240 N 
ATOM     17  C   UNL d   1     -39.883  14.654  17.399  0.00  0.00     0.343 A 
ATOM     18  C   UNL d   1     -40.700  15.411  18.282  0.00  0.00     0.105 C 
ATOM     19  N   UNL d   1     -39.315  14.069  17.274  0.00  0.00    -0.224 N 
ATOM     20  O   UNL d   1     -40.199  15.065  16.756  0.00  0.00    -0.245 OA
ATOM     21  C   UNL d   1     -38.991  13.650  17.908  0.00  0.00     0.271 A 
ATOM     22  C   UNL d   1     -39.063  13.895  16.507  0.00  0.00     0.107 C 
ATOM     23  C   UNL d   1     -39.252  13.833  18.674  0.00  0.00     0.101 A 
ATOM     24  O   UNL d   1     -38.428  13.070  17.784  0.00  0.00    -0.266 OA
ENDBRANCH  14  15
ENDBRANCH   2  14
TORSDOF 3
ENDMDL
MODEL 8
REMARK VINA RESULT:      -5.7      8.458     10.394
REMARK  3 active torsions:
REMARK  status: ('A' for Active; 'I' for Inactive)
REMARK    1  A    between atoms: N_9  and  C_4 
REMARK       I    between atoms: C_7  and  N_10 
REMARK    2  A    between atoms: C_8  and  C_7 
REMARK    3  A    between atoms: N_10  and  N_9 
ROOT
ATOM      1  C   UNL d   1     -39.959  15.384  19.131  0.00  0.00     0.297 C 
ATOM      2  N   UNL d   1     -39.464  15.091  18.542  0.00  0.00    -0.104 NA
ATOM      3  O   UNL d   1     -40.715  15.652  18.939  0.00  0.00    -0.264 OA
ENDROOT
BRANCH   1   4
ATOM      4  C   UNL d   1     -39.699  15.409  19.911  0.00  0.00     0.059 A 
ATOM      5  C   UNL d   1     -40.079  14.939  20.479  0.00  0.00     0.005 A 
ATOM      6  C   UNL d   1     -39.809  14.972  21.263  0.00  0.00     0.000 A 
ATOM      7  C   UNL d   1     -40.701  14.459  20.273  0.00  0.00     0.000 A 
ATOM      8  C   UNL d   1     -40.180  14.511  21.830  0.00  0.00     0.000 A 
ATOM      9  C   UNL d   1     -39.178  15.459  21.472  0.00  0.00     0.000 A 
ATOM     10  C   UNL d   1     -40.802  14.029  21.628  0.00  0.00     0.000 A 
ATOM     11  C   UNL d   1     -41.069  14.000  20.841  0.00  0.00     0.000 A 
ATOM     12  C   UNL d   1     -38.806  15.922  20.902  0.00  0.00     0.000 A 
ATOM     13  C   UNL d   1     -39.067  15.898  20.117  0.00  0.00     0.005 A 
ENDBRANCH   1   4
BRANCH   2  14
ATOM     14  N   UNL d   1     -39.724  15.066  17.762  0.00  0.00    -0.127 NA
BRANCH  14  15
ATOM     15  C   UNL d   1     -39.276  14.673  17.188  0.00  0.00     0.178 A 
ATOM     16  N   UNL d   1     -39.040  15.065  16.506  0.00  0.00    -0.240 N 
ATOM     17  C   UNL d   1     -38.597  14.676  15.940  0.00  0.00     0.343 A 
ATOM     18  C   UNL d   1     -39.250  15.855  16.394  0.00  0.00     0.105 C 
ATOM     19  N   UNL d   1     -38.387  13.886  16.053  0.00  0.00    -0.224 N 
ATOM     20  O   UNL d   1     -38.360  15.072  15.255  0.00  0.00    -0.245 OA
ATOM     21  C   UNL d   1     -38.617  13.478  16.732  0.00  0.00     0.271 A 
ATOM     22  C   UNL d   1     -37.940  13.493  15.480  0.00  0.00     0.107 C 
ATOM     23  C   UNL d   1     -39.066  13.883  17.301  0.00  0.00     0.101 A 
ATOM     24  O   UNL d   1     -38.408  12.696  16.844  0.00  0.00    -0.266 OA
ENDBRANCH  14  15
ENDBRANCH   2  14
TORSDOF 3
ENDMDL
