MODEL 1
REMARK VINA RESULT:      74.8      0.000      0.000
REMARK  3 active torsions:
REMARK  status: ('A' for Active; 'I' for Inactive)
REMARK    1  A    between atoms: N_2  and  S_1 
REMARK    2  A    between atoms: C_3  and  S_1 
REMARK    3  A    between atoms: C_10  and  C_9 
ROOT
ATOM      1  C   UNL d   1     -55.372-100.122 -43.619  0.00  0.00     0.104 A 
ATOM      2  C   UNL d   1     -55.147-101.039 -42.256  0.00  0.00     0.000 A 
ATOM      3  C   UNL d   1     -55.805-100.815 -43.511  0.00  0.00     0.013 A 
ATOM      4  C   UNL d   1     -54.828 -99.886 -43.048  0.00  0.00     0.013 A 
ATOM      5  C   UNL d   1     -54.715-100.347 -42.363  0.00  0.00     0.001 A 
ATOM      6  C   UNL d   1     -55.691-101.276 -42.826  0.00  0.00     0.001 A 
ENDROOT
BRANCH   1   7
ATOM      7  S   UNL d   1     -55.488 -99.669 -44.298  0.00  0.00     0.271 S 
ATOM      8  O   UNL d   1     -54.713 -99.807 -44.528  0.00  0.00    -0.200 OA
ATOM      9  O   UNL d   1     -55.599 -99.221 -44.972  0.00  0.00    -0.200 OA
BRANCH   7  10
ATOM     10  N   UNL d   1     -56.260 -99.532 -44.070  0.00  0.00    -0.226 N 
ATOM     11  C   UNL d   1     -56.865-100.019 -44.344  0.00  0.00     0.111 A 
ATOM     12  C   UNL d   1     -57.641 -99.870 -44.106  0.00  0.00     0.100 A 
ATOM     13  N   UNL d   1     -57.812 -99.245 -43.602  0.00  0.00    -0.299 N 
ATOM     14  C   UNL d   1     -57.211 -98.757 -43.326  0.00  0.00     0.100 A 
ATOM     15  C   UNL d   1     -58.592 -99.107 -43.371  0.00  0.00     0.100 C 
ATOM     16  C   UNL d   1     -56.427 -98.897 -43.559  0.00  0.00     0.111 A 
ENDBRANCH   7  10
ENDBRANCH   1   7
BRANCH   2  17
ATOM     17  C   UNL d   1     -55.039-101.494 -41.586  0.00  0.00     0.000 A 
ATOM     18  C   UNL d   1     -54.881-101.131 -40.856  0.00  0.00     0.000 A 
ATOM     19  C   UNL d   1     -54.773-101.595 -40.182  0.00  0.00     0.000 A 
ATOM     20  C   UNL d   1     -54.822-102.415 -40.234  0.00  0.00     0.000 A 
ATOM     21  C   UNL d   1     -54.981-102.782 -40.965  0.00  0.00     0.000 A 
ATOM     22  C   UNL d   1     -54.714-102.878 -39.560  0.00  0.00     0.000 C 
ATOM     23  C   UNL d   1     -55.088-102.315 -41.637  0.00  0.00     0.000 A 
ENDBRANCH   2  17
TORSDOF 3
ENDMDL
