MODEL 1
REMARK VINA RESULT:      63.1      0.000      0.000
REMARK  3 active torsions:
REMARK  status: ('A' for Active; 'I' for Inactive)
REMARK    1  A    between atoms: C_12  and  C_9 
REMARK    2  A    between atoms: O_26  and  C_19 
REMARK    3  A    between atoms: O_27  and  C_22 
ROOT
ATOM      1  C   UNL d   1      14.003  15.038  -3.944  0.00  0.00     0.156 A 
ATOM      2  C   UNL d   1      14.177  14.675  -3.225  0.00  0.00     0.091 A 
ATOM      3  N   UNL d   1      14.178  15.833  -4.059  0.00  0.00    -0.241 N 
ATOM      4  N   UNL d   1      14.701  15.903  -2.738  0.00  0.00    -0.224 N 
ATOM      5  C   UNL d   1      14.526  16.264  -3.458  0.00  0.00     0.343 A 
ATOM      6  C   UNL d   1      14.528  15.113  -2.621  0.00  0.00     0.271 A 
ATOM      7  C   UNL d   1      13.653  13.447  -3.712  0.00  0.00     0.056 A 
ATOM      8  N   UNL d   1      13.653  14.604  -4.547  0.00  0.00    -0.228 NA
ATOM      9  C   UNL d   1      14.003  13.884  -3.108  0.00  0.00     0.012 A 
ATOM     10  C   UNL d   1      13.477  13.814  -4.438  0.00  0.00     0.082 A 
ATOM     11  C   UNL d   1      13.478  12.653  -3.597  0.00  0.00     0.193 A 
ATOM     12  C   UNL d   1      13.128  13.379  -5.041  0.00  0.00    -0.003 A 
ATOM     13  C   UNL d   1      12.950  12.584  -4.930  0.00  0.00     0.042 A 
ATOM     14  O   UNL d   1      14.702  17.061  -3.572  0.00  0.00    -0.245 OA
ATOM     15  C   UNL d   1      13.126  12.222  -4.207  0.00  0.00     0.019 A 
ATOM     16  O   UNL d   1      14.669  14.856  -2.065  0.00  0.00    -0.266 OA
ATOM     17  O   UNL d   1      13.633  12.340  -2.963  0.00  0.00    -0.287 OA
ATOM     18  C   UNL d   1      14.003  16.192  -4.779  0.00  0.00     0.105 C 
ATOM     19  C   UNL d   1      15.052  16.342  -2.134  0.00  0.00     0.107 C 
ATOM     20  C   UNL d   1      12.810  12.873  -5.507  0.00  0.00     0.009 C 
ATOM     21  C   UNL d   1      12.777  11.787  -4.810  0.00  0.00     0.009 C 
ENDROOT
BRANCH   9  22
ATOM     22  C   UNL d   1      14.189  13.502  -2.345  0.00  0.00     0.003 A 
ATOM     23  C   UNL d   1      13.652  12.778  -2.006  0.00  0.00     0.026 A 
ATOM     24  C   UNL d   1      13.880  12.429  -1.237  0.00  0.00     0.116 A 
ATOM     25  C   UNL d   1      14.561  12.737  -0.816  0.00  0.00     0.116 A 
ATOM     26  C   UNL d   1      15.027  13.393  -1.148  0.00  0.00     0.026 A 
ATOM     27  C   UNL d   1      14.805  13.738  -1.906  0.00  0.00     0.002 A 
BRANCH  24  28
ATOM     28  O   UNL d   1      13.415  11.781  -0.915  0.00  0.00    -0.326 OA
ATOM     29  C   UNL d   1      12.902  11.909  -0.229  0.00  0.00     0.181 C 
ENDBRANCH  24  28
BRANCH  25  30
ATOM     30  O   UNL d   1      14.774  12.390  -0.067  0.00  0.00    -0.326 OA
ATOM     31  C   UNL d   1      15.393  11.781  -0.015  0.00  0.00     0.181 C 
ENDBRANCH  25  30
ENDBRANCH   9  22
TORSDOF 3
ENDMDL
MODEL 2
REMARK VINA RESULT:      64.3      1.281      3.866
REMARK  3 active torsions:
REMARK  status: ('A' for Active; 'I' for Inactive)
REMARK    1  A    between atoms: C_12  and  C_9 
REMARK    2  A    between atoms: O_26  and  C_19 
REMARK    3  A    between atoms: O_27  and  C_22 
ROOT
ATOM      1  C   UNL d   1      13.690  12.870  -3.275  0.00  0.00     0.156 A 
ATOM      2  C   UNL d   1      13.877  13.670  -3.216  0.00  0.00     0.091 A 
ATOM      3  N   UNL d   1      13.322  12.579  -3.949  0.00  0.00    -0.241 N 
ATOM      4  N   UNL d   1      13.325  13.888  -4.508  0.00  0.00    -0.224 N 
ATOM      5  C   UNL d   1      13.139  13.087  -4.564  0.00  0.00     0.343 A 
ATOM      6  C   UNL d   1      13.692  14.179  -3.837  0.00  0.00     0.271 A 
ATOM      7  C   UNL d   1      14.429  13.452  -1.924  0.00  0.00     0.056 A 
ATOM      8  N   UNL d   1      13.874  12.361  -2.657  0.00  0.00    -0.228 NA
ATOM      9  C   UNL d   1      14.244  13.961  -2.545  0.00  0.00     0.012 A 
ATOM     10  C   UNL d   1      14.240  12.644  -1.984  0.00  0.00     0.082 A 
ATOM     11  C   UNL d   1      14.797  13.743  -1.250  0.00  0.00     0.193 A 
ATOM     12  C   UNL d   1      14.424  12.136  -1.366  0.00  0.00    -0.003 A 
ATOM     13  C   UNL d   1      14.793  12.422  -0.689  0.00  0.00     0.042 A 
ATOM     14  O   UNL d   1      12.769  12.797  -5.241  0.00  0.00    -0.245 OA
ATOM     15  C   UNL d   1      14.979  13.225  -0.633  0.00  0.00     0.019 A 
ATOM     16  O   UNL d   1      13.825  14.793  -3.814  0.00  0.00    -0.266 OA
ATOM     17  O   UNL d   1      14.958  14.446  -1.205  0.00  0.00    -0.287 OA
ATOM     18  C   UNL d   1      13.136  11.779  -4.005  0.00  0.00     0.105 C 
ATOM     19  C   UNL d   1      13.140  14.397  -5.129  0.00  0.00     0.107 C 
ATOM     20  C   UNL d   1      14.644  11.779  -0.734  0.00  0.00     0.009 C 
ATOM     21  C   UNL d   1      15.163  12.717  -0.015  0.00  0.00     0.009 C 
ENDROOT
BRANCH   9  22
ATOM     22  C   UNL d   1      14.440  14.810  -2.486  0.00  0.00     0.003 A 
ATOM     23  C   UNL d   1      14.843  15.281  -3.223  0.00  0.00     0.026 A 
ATOM     24  C   UNL d   1      15.020  16.131  -3.113  0.00  0.00     0.116 A 
ATOM     25  C   UNL d   1      14.834  16.511  -2.367  0.00  0.00     0.116 A 
ATOM     26  C   UNL d   1      14.470  16.058  -1.719  0.00  0.00     0.026 A 
ATOM     27  C   UNL d   1      14.294  15.221  -1.825  0.00  0.00     0.002 A 
BRANCH  24  28
ATOM     28  O   UNL d   1      15.380  16.572  -3.758  0.00  0.00    -0.326 OA
ATOM     29  C   UNL d   1      14.884  16.968  -4.348  0.00  0.00     0.181 C 
ENDBRANCH  24  28
BRANCH  25  30
ATOM     30  O   UNL d   1      15.011  17.339  -2.271  0.00  0.00    -0.326 OA
ATOM     31  C   UNL d   1      15.450  17.626  -1.577  0.00  0.00     0.181 C 
ENDBRANCH  25  30
ENDBRANCH   9  22
TORSDOF 3
ENDMDL
MODEL 3
REMARK VINA RESULT:      65.6      1.068      3.426
REMARK  3 active torsions:
REMARK  status: ('A' for Active; 'I' for Inactive)
REMARK    1  A    between atoms: C_12  and  C_9 
REMARK    2  A    between atoms: O_26  and  C_19 
REMARK    3  A    between atoms: O_27  and  C_22 
ROOT
ATOM      1  C   UNL d   1      14.598  14.956  -2.071  0.00  0.00     0.156 A 
ATOM      2  C   UNL d   1      14.270  14.511  -2.682  0.00  0.00     0.091 A 
ATOM      3  N   UNL d   1      14.692  15.768  -2.153  0.00  0.00    -0.241 N 
ATOM      4  N   UNL d   1      14.130  15.693  -3.459  0.00  0.00    -0.224 N 
ATOM      5  C   UNL d   1      14.458  16.135  -2.846  0.00  0.00     0.343 A 
ATOM      6  C   UNL d   1      14.036  14.885  -3.378  0.00  0.00     0.271 A 
ATOM      7  C   UNL d   1      14.411  13.329  -1.905  0.00  0.00     0.056 A 
ATOM      8  N   UNL d   1      14.832  14.585  -1.376  0.00  0.00    -0.228 NA
ATOM      9  C   UNL d   1      14.176  13.702  -2.601  0.00  0.00     0.012 A 
ATOM     10  C   UNL d   1      14.742  13.778  -1.288  0.00  0.00     0.082 A 
ATOM     11  C   UNL d   1      14.317  12.517  -1.823  0.00  0.00     0.193 A 
ATOM     12  C   UNL d   1      14.976  13.407  -0.594  0.00  0.00    -0.003 A 
ATOM     13  C   UNL d   1      14.884  12.595  -0.506  0.00  0.00     0.042 A 
ATOM     14  O   UNL d   1      14.551  16.950  -2.930  0.00  0.00    -0.245 OA
ATOM     15  C   UNL d   1      14.555  12.151  -1.122  0.00  0.00     0.019 A 
ATOM     16  O   UNL d   1      13.784  14.566  -3.857  0.00  0.00    -0.266 OA
ATOM     17  O   UNL d   1      14.029  12.133  -2.363  0.00  0.00    -0.287 OA
ATOM     18  C   UNL d   1      15.019  16.209  -1.541  0.00  0.00     0.105 C 
ATOM     19  C   UNL d   1      13.895  16.068  -4.155  0.00  0.00     0.107 C 
ATOM     20  C   UNL d   1      15.148  12.949  -0.014  0.00  0.00     0.009 C 
ATOM     21  C   UNL d   1      14.789  11.780  -0.427  0.00  0.00     0.009 C 
ENDROOT
BRANCH   9  22
ATOM     22  C   UNL d   1      13.829  13.234  -3.251  0.00  0.00     0.003 A 
ATOM     23  C   UNL d   1      14.072  13.396  -4.169  0.00  0.00     0.026 A 
ATOM     24  C   UNL d   1      13.696  12.900  -4.783  0.00  0.00     0.116 A 
ATOM     25  C   UNL d   1      13.131  12.296  -4.553  0.00  0.00     0.116 A 
ATOM     26  C   UNL d   1      12.931  12.173  -3.715  0.00  0.00     0.026 A 
ATOM     27  C   UNL d   1      13.301  12.660  -3.109  0.00  0.00     0.002 A 
BRANCH  24  28
ATOM     28  O   UNL d   1      13.898  13.027  -5.609  0.00  0.00    -0.326 OA
ATOM     29  C   UNL d   1      14.611  12.666  -5.945  0.00  0.00     0.181 C 
ENDBRANCH  24  28
BRANCH  25  30
ATOM     30  O   UNL d   1      12.770  11.817  -5.160  0.00  0.00    -0.326 OA
ATOM     31  C   UNL d   1      13.108  11.779  -5.960  0.00  0.00     0.181 C 
ENDBRANCH  25  30
ENDBRANCH   9  22
TORSDOF 3
ENDMDL
