MODEL 1
REMARK VINA RESULT:     122.7      0.000      0.000
REMARK  8 active torsions:
REMARK  status: ('A' for Active; 'I' for Inactive)
REMARK    1  A    between atoms: N_7  and  N_1 
REMARK    2  A    between atoms: S_9  and  C_2 
REMARK       I    between atoms: C_8  and  N_7 
REMARK    3  A    between atoms: C_19  and  C_8 
REMARK    4  A    between atoms: C_18  and  S_9 
REMARK    5  A    between atoms: C_10  and  C_18 
REMARK       I    between atoms: N_13  and  C_10 
REMARK    6  A    between atoms: C_12  and  C_14 
REMARK    7  A    between atoms: C_14  and  N_13 
REMARK    8  A    between atoms: C_22  and  C_19 
ROOT
ATOM      1  N   UNL d   1     -58.156 -99.346 -44.552  0.00  0.00    -0.168 N 
ATOM      2  C   UNL d   1     -58.108 -99.053 -43.800  0.00  0.00     0.199 A 
ATOM      3  C   UNL d   1     -57.479 -99.638 -44.929  0.00  0.00     0.283 A 
ATOM      4  N   UNL d   1     -57.375 -99.040 -43.389  0.00  0.00    -0.221 NA
ATOM      5  C   UNL d   1     -56.745 -99.627 -44.524  0.00  0.00     0.076 A 
ATOM      6  C   UNL d   1     -56.696 -99.328 -43.756  0.00  0.00     0.088 A 
ATOM      7  O   UNL d   1     -57.522 -99.938 -45.696  0.00  0.00    -0.265 OA
ATOM      8  C   UNL d   1     -56.070 -99.922 -44.906  0.00  0.00     0.006 A 
ATOM      9  C   UNL d   1     -55.975 -99.322 -43.368  0.00  0.00     0.019 A 
ATOM     10  C   UNL d   1     -55.348 -99.909 -44.503  0.00  0.00     0.000 A 
ATOM     11  C   UNL d   1     -55.299 -99.610 -43.735  0.00  0.00     0.002 A 
ENDROOT
BRANCH   2  12
ATOM     12  S   UNL d   1     -58.774 -98.765 -43.430  0.00  0.00    -0.043 SA
BRANCH  12  13
ATOM     13  C   UNL d   1     -58.889 -98.896 -42.624  0.00  0.00     0.101 C 
BRANCH  13  14
ATOM     14  C   UNL d   1     -59.285 -99.565 -42.371  0.00  0.00     0.286 C 
ATOM     15  N   UNL d   1     -59.327 -99.741 -41.570  0.00  0.00    -0.206 NA
ATOM     16  O   UNL d   1     -59.643-100.066 -42.921  0.00  0.00    -0.265 OA
BRANCH  15  17
ATOM     17  C   UNL d   1     -59.723-100.411 -41.316  0.00  0.00     0.103 C 
BRANCH  17  18
ATOM     18  C   UNL d   1     -59.702-100.626 -40.525  0.00  0.00     0.030 A 
ATOM     19  C   UNL d   1     -59.772-100.053 -39.934  0.00  0.00     0.059 A 
ATOM     20 CL   UNL d   1     -59.863 -99.260 -40.143  0.00  0.00    -0.082 Cl
ATOM     21  C   UNL d   1     -59.752-100.268 -39.143  0.00  0.00     0.011 A 
ATOM     22  C   UNL d   1     -59.661-101.060 -38.935  0.00  0.00     0.001 A 
ATOM     23  C   UNL d   1     -59.591-101.633 -39.527  0.00  0.00     0.000 A 
ATOM     24  C   UNL d   1     -59.612-101.418 -40.317  0.00  0.00     0.002 A 
ENDBRANCH  17  18
ENDBRANCH  15  17
ENDBRANCH  13  14
ENDBRANCH  12  13
ENDBRANCH   2  12
BRANCH   1  25
ATOM     25  N   UNL d   1     -58.870 -99.357 -44.947  0.00  0.00    -0.119 NA
ATOM     26  C   UNL d   1     -58.917 -99.063 -45.708  0.00  0.00     0.296 C 
ATOM     27  O   UNL d   1     -58.249 -98.755 -46.083  0.00  0.00    -0.264 OA
BRANCH  26  28
ATOM     28  C   UNL d   1     -59.642 -99.076 -46.106  0.00  0.00     0.064 C 
BRANCH  28  29
ATOM     29  C   UNL d   1     -59.703 -99.462 -46.817  0.00  0.00     0.005 A 
ATOM     30  C   UNL d   1     -59.609 -99.036 -47.518  0.00  0.00     0.000 A 
ATOM     31  C   UNL d   1     -59.672 -99.429 -48.241  0.00  0.00     0.000 A 
ATOM     32  C   UNL d   1     -59.824-100.227 -48.262  0.00  0.00     0.000 A 
ATOM     33  C   UNL d   1     -59.917-100.647 -47.552  0.00  0.00     0.000 A 
ATOM     34  C   UNL d   1     -59.855-100.259 -46.839  0.00  0.00     0.000 A 
ENDBRANCH  28  29
ENDBRANCH  26  28
ENDBRANCH   1  25
TORSDOF 8
ENDMDL
