MODEL 1
REMARK VINA RESULT:      -5.4      0.000      0.000
REMARK  6 active torsions:
REMARK  status: ('A' for Active; 'I' for Inactive)
REMARK       I    between atoms: C_2  and  N_1 
REMARK    1  A    between atoms: C_3  and  N_1 
REMARK    2  A    between atoms: C_6  and  C_2 
REMARK    3  A    between atoms: N_7  and  C_3 
REMARK    4  A    between atoms: C_8  and  N_7 
REMARK    5  A    between atoms: C_12  and  C_8 
REMARK    6  A    between atoms: C_9  and  C_12 
ROOT
ATOM      1  C   UNL d   1     -41.302-122.341 -51.381  0.00  0.00     0.179 C 
ATOM      2  S   UNL d   1     -41.168-121.535 -51.387  0.00  0.00    -0.040 SA
ENDROOT
BRANCH   1   3
ATOM      3  N   UNL d   1     -41.375-122.743 -50.669  0.00  0.00    -0.299 N 
ATOM      4  C   UNL d   1     -42.033-122.617 -50.214  0.00  0.00     0.259 C 
ATOM      5  O   UNL d   1     -42.615-122.098 -50.456  0.00  0.00    -0.267 OA
ATOM      6  H   UNL d   1     -40.797-123.258 -50.429  0.00  0.00     0.171 HD
BRANCH   4   7
ATOM      7  C   UNL d   1     -42.111-123.021 -49.493  0.00  0.00     0.056 A 
ATOM      8  C   UNL d   1     -41.498-123.027 -48.963  0.00  0.00     0.005 A 
ATOM      9  C   UNL d   1     -41.569-123.425 -48.249  0.00  0.00     0.000 A 
ATOM     10  C   UNL d   1     -42.270-123.817 -48.078  0.00  0.00     0.000 A 
ATOM     11  C   UNL d   1     -42.883-123.812 -48.608  0.00  0.00     0.000 A 
ATOM     12  C   UNL d   1     -42.811-123.414 -49.321  0.00  0.00     0.005 A 
ENDBRANCH   4   7
ENDBRANCH   1   3
BRANCH   1  13
ATOM     13  N   UNL d   1     -41.365-122.756 -52.084  0.00  0.00    -0.330 N 
ATOM     14  H   UNL d   1     -41.488-123.557 -52.078  0.00  0.00     0.168 HD
BRANCH  13  15
ATOM     15  C   UNL d   1     -41.303-122.352 -52.789  0.00  0.00     0.074 C 
BRANCH  15  16
ATOM     16  C   UNL d   1     -41.188-122.774 -53.489  0.00  0.00     0.018 C 
BRANCH  16  17
ATOM     17  C   UNL d   1     -41.531-122.507 -54.202  0.00  0.00     0.002 A 
ATOM     18  C   UNL d   1     -42.252-122.096 -54.191  0.00  0.00     0.000 A 
ATOM     19  C   UNL d   1     -42.587-121.835 -54.898  0.00  0.00     0.000 A 
ATOM     20  C   UNL d   1     -42.205-121.982 -55.619  0.00  0.00     0.000 A 
ATOM     21  C   UNL d   1     -41.489-122.390 -55.632  0.00  0.00     0.000 A 
ATOM     22  C   UNL d   1     -41.149-122.654 -54.923  0.00  0.00     0.000 A 
ENDBRANCH  16  17
ENDBRANCH  15  16
ENDBRANCH  13  15
ENDBRANCH   1  13
TORSDOF 6
ENDMDL
