MODEL 1
REMARK VINA RESULT:       2.1      0.000      0.000
REMARK  5 active torsions:
REMARK  status: ('A' for Active; 'I' for Inactive)
REMARK    1  A    between atoms: C_5  and  N_1 
REMARK    2  A    between atoms: C_8  and  C_2 
REMARK    3  A    between atoms: C_7  and  C_5 
REMARK    4  A    between atoms: N_10  and  C_8 
REMARK       I    between atoms: C_9  and  N_10 
REMARK    5  A    between atoms: C_17  and  C_9 
ROOT
ATOM      1  N   UNL d   1      58.131   0.267  31.261  0.00  0.00    -0.288 N 
ATOM      2  C   UNL d   1      57.723   0.292  31.976  0.00  0.00     0.167 A 
ATOM      3  N   UNL d   1      58.262   0.422  32.574  0.00  0.00    -0.225 NA
ATOM      4  C   UNL d   1      58.932   0.384  31.427  0.00  0.00     0.083 A 
ATOM      5  C   UNL d   1      59.008   0.479  32.239  0.00  0.00     0.099 A 
ATOM      6  C   UNL d   1      59.598   0.415  30.940  0.00  0.00     0.019 A 
ATOM      7  C   UNL d   1      59.754   0.608  32.578  0.00  0.00     0.021 A 
ATOM      8  C   UNL d   1      60.340   0.543  31.280  0.00  0.00     0.002 A 
ATOM      9  C   UNL d   1      60.420   0.639  32.092  0.00  0.00     0.002 A 
ENDROOT
BRANCH   1  10
ATOM     10  C   UNL d   1      57.797   0.146  30.517  0.00  0.00     0.084 C 
BRANCH  10  11
ATOM     11  C   UNL d   1      58.048  -0.477  30.052  0.00  0.00     0.045 A 
ATOM     12  C   UNL d   1      58.244  -0.342  29.252  0.00  0.00     0.141 A 
ATOM     13  F   UNL d   1      58.183   0.416  28.936  0.00  0.00    -0.204 F 
ATOM     14  C   UNL d   1      58.499  -0.970  28.774  0.00  0.00     0.030 A 
ATOM     15  C   UNL d   1      58.562  -1.734  29.088  0.00  0.00     0.002 A 
ATOM     16  C   UNL d   1      58.362  -1.856  29.893  0.00  0.00     0.000 A 
ATOM     17  C   UNL d   1      58.110  -1.236  30.364  0.00  0.00     0.004 A 
ENDBRANCH  10  11
ENDBRANCH   1  10
BRANCH   2  18
ATOM     18  C   UNL d   1      56.907   0.200  32.068  0.00  0.00     0.140 C 
BRANCH  18  19
ATOM     19  N   UNL d   1      56.597   0.044  32.817  0.00  0.00    -0.203 NA
ATOM     20  C   UNL d   1      55.833   0.263  33.002  0.00  0.00     0.279 C 
ATOM     21  O   UNL d   1      55.367   0.643  32.434  0.00  0.00    -0.265 OA
BRANCH  20  22
ATOM     22  C   UNL d   1      55.523   0.110  33.742  0.00  0.00     0.062 C 
ATOM     23  C   UNL d   1      55.711   0.587  34.367  0.00  0.00     0.005 C 
ENDBRANCH  20  22
ENDBRANCH  18  19
ENDBRANCH   2  18
TORSDOF 5
ENDMDL
