MODEL 1
REMARK VINA RESULT:      60.8      0.000      0.000
REMARK  6 active torsions:
REMARK  status: ('A' for Active; 'I' for Inactive)
REMARK    1  A    between atoms: N_5  and  S_1 
REMARK    2  A    between atoms: C_6  and  S_1 
REMARK    3  A    between atoms: C_2  and  C_10 
REMARK       I    between atoms: N_3  and  C_2 
REMARK    4  A    between atoms: C_11  and  N_4 
REMARK    5  A    between atoms: C_17  and  N_5 
REMARK    6  A    between atoms: O_29  and  C_23 
ROOT
ATOM      1  C   UNL d   1      46.274 -18.450  42.564  0.00  0.00     0.057 A 
ATOM      2  C   UNL d   1      46.154 -17.698  44.027  0.00  0.00     0.094 A 
ATOM      3  C   UNL d   1      46.554 -17.675  42.655  0.00  0.00     0.006 A 
ATOM      4  C   UNL d   1      45.937 -18.840  43.208  0.00  0.00     0.006 A 
ATOM      5  C   UNL d   1      46.490 -17.305  43.390  0.00  0.00     0.020 A 
ATOM      6  C   UNL d   1      45.877 -18.471  43.930  0.00  0.00     0.020 A 
ENDROOT
BRANCH   1   7
ATOM      7  C   UNL d   1      46.334 -18.831  41.827  0.00  0.00     0.265 C 
ATOM      8  N   UNL d   1      46.080 -18.449  41.135  0.00  0.00    -0.269 N 
ATOM      9  C   UNL d   1      46.140 -18.825  40.415  0.00  0.00     0.102 A 
ATOM     10  C   UNL d   1      45.767 -17.688  41.181  0.00  0.00     0.102 A 
ATOM     11  C   UNL d   1      45.886 -18.444  39.728  0.00  0.00     0.100 A 
ATOM     12  N   UNL d   1      45.575 -17.686  39.778  0.00  0.00    -0.301 N 
ATOM     13  C   UNL d   1      45.515 -17.309  40.500  0.00  0.00     0.100 A 
ATOM     14  O   UNL d   1      46.647 -19.590  41.786  0.00  0.00    -0.267 OA
BRANCH  12  15
ATOM     15  C   UNL d   1      45.326 -17.309  39.106  0.00  0.00     0.064 A 
ATOM     16  C   UNL d   1      44.521 -17.284  38.925  0.00  0.00     0.020 A 
ATOM     17  C   UNL d   1      44.266 -16.904  38.246  0.00  0.00     0.026 A 
ATOM     18  C   UNL d   1      44.811 -16.545  37.740  0.00  0.00     0.094 A 
ATOM     19  C   UNL d   1      45.619 -16.576  37.930  0.00  0.00     0.026 A 
ATOM     20  C   UNL d   1      45.867 -16.955  38.605  0.00  0.00     0.020 A 
BRANCH  18  21
ATOM     21  O   UNL d   1      44.557 -16.165  37.059  0.00  0.00    -0.328 OA
ATOM     22  C   UNL d   1      44.832 -15.409  36.888  0.00  0.00     0.181 C 
ENDBRANCH  18  21
ENDBRANCH  12  15
ENDBRANCH   1   7
BRANCH   2  23
ATOM     23  N   UNL d   1      46.097 -17.322  44.747  0.00  0.00    -0.158 NA
BRANCH  23  24
ATOM     24  S   UNL d   1      45.849 -16.535  44.794  0.00  0.00     0.285 S 
ATOM     25  O   UNL d   1      46.618 -16.305  44.955  0.00  0.00    -0.198 OA
ATOM     26  O   UNL d   1      45.080 -16.779  44.632  0.00  0.00    -0.198 OA
BRANCH  24  27
ATOM     27  C   UNL d   1      45.593 -15.758  44.839  0.00  0.00     0.107 A 
ATOM     28  C   UNL d   1      46.133 -15.143  44.814  0.00  0.00     0.043 A 
ATOM     29  C   UNL d   1      45.874 -14.357  44.859  0.00  0.00     0.141 A 
ATOM     30  F   UNL d   1      46.418 -13.729  44.835  0.00  0.00    -0.204 F 
ATOM     31  C   UNL d   1      45.066 -14.197  44.930  0.00  0.00     0.030 A 
ATOM     32  C   UNL d   1      44.518 -14.821  44.955  0.00  0.00     0.003 A 
ATOM     33  C   UNL d   1      44.786 -15.601  44.909  0.00  0.00     0.013 A 
ENDBRANCH  24  27
ENDBRANCH  23  24
ENDBRANCH   2  23
TORSDOF 6
ENDMDL
