MODEL 1
REMARK VINA RESULT:      -2.7      0.000      0.000
REMARK  5 active torsions:
REMARK  status: ('A' for Active; 'I' for Inactive)
REMARK    1  A    between atoms: C_10  and  C_3 
REMARK    2  A    between atoms: N_12  and  C_4 
REMARK    3  A    between atoms: N_11  and  C_15 
REMARK    4  A    between atoms: C_14  and  N_12 
REMARK    5  A    between atoms: C_15  and  C_14 
ROOT
ATOM      1  C   UNL d   1      30.400  16.813 -24.212  0.00  0.00     0.167 A 
ATOM      2  N   UNL d   1      30.913  17.428 -24.424  0.00  0.00    -0.195 N 
ATOM      3  C   UNL d   1      29.654  17.013 -24.476  0.00  0.00     0.057 A 
ATOM      4  C   UNL d   1      31.709  17.381 -24.229  0.00  0.00     0.167 A 
ATOM      5  N   UNL d   1      30.471  17.994 -24.814  0.00  0.00    -0.161 NA
ATOM      6  N   UNL d   1      30.692  16.161 -23.809  0.00  0.00    -0.227 NA
ATOM      7  C   UNL d   1      31.998  16.720 -23.822  0.00  0.00     0.058 A 
ATOM      8  C   UNL d   1      29.704  17.747 -24.849  0.00  0.00     0.124 A 
ATOM      9  C   UNL d   1      31.496  16.118 -23.614  0.00  0.00     0.086 A 
ATOM     10  C   UNL d   1      31.800  15.462 -23.206  0.00  0.00     0.021 C 
ENDROOT
BRANCH   4  11
ATOM     11  N   UNL d   1      32.221  17.996 -24.441  0.00  0.00    -0.224 NA
BRANCH  11  12
ATOM     12  C   UNL d   1      32.763  18.282 -23.895  0.00  0.00     0.120 C 
BRANCH  12  13
ATOM     13  C   UNL d   1      33.188  18.973 -24.060  0.00  0.00     0.101 C 
BRANCH  13  14
ATOM     14  N   UNL d   1      33.204  19.593 -23.516  0.00  0.00    -0.298 N 
ATOM     15  C   UNL d   1      33.222  20.371 -23.791  0.00  0.00     0.107 A 
ATOM     16  C   UNL d   1      33.238  20.999 -23.245  0.00  0.00     0.142 A 
ATOM     17  O   UNL d   1      33.236  20.845 -22.441  0.00  0.00    -0.300 OA
ATOM     18  C   UNL d   1      33.218  20.058 -22.168  0.00  0.00     0.142 A 
ATOM     19  C   UNL d   1      33.202  19.437 -22.707  0.00  0.00     0.107 A 
ENDBRANCH  13  14
ENDBRANCH  12  13
ENDBRANCH  11  12
ENDBRANCH   4  11
BRANCH   3  20
ATOM     20  C   UNL d   1      29.015  16.504 -24.347  0.00  0.00     0.004 A 
ATOM     21  C   UNL d   1      28.598  16.544 -23.629  0.00  0.00     0.000 A 
ATOM     22  C   UNL d   1      27.966  16.045 -23.496  0.00  0.00     0.000 A 
ATOM     23  C   UNL d   1      27.737  15.496 -24.077  0.00  0.00     0.000 A 
ATOM     24  C   UNL d   1      28.146  15.456 -24.784  0.00  0.00     0.000 A 
ATOM     25  C   UNL d   1      28.785  15.962 -24.917  0.00  0.00     0.000 A 
ENDBRANCH   3  20
TORSDOF 5
ENDMDL
MODEL 2
REMARK VINA RESULT:      -2.5      2.304      5.853
REMARK  5 active torsions:
REMARK  status: ('A' for Active; 'I' for Inactive)
REMARK    1  A    between atoms: C_10  and  C_3 
REMARK    2  A    between atoms: N_12  and  C_4 
REMARK    3  A    between atoms: N_11  and  C_15 
REMARK    4  A    between atoms: C_14  and  N_12 
REMARK    5  A    between atoms: C_15  and  C_14 
ROOT
ATOM      1  C   UNL d   1      32.910  21.266 -21.607  0.00  0.00     0.167 A 
ATOM      2  N   UNL d   1      32.993  20.869 -22.330  0.00  0.00    -0.195 N 
ATOM      3  C   UNL d   1      32.752  22.050 -21.774  0.00  0.00     0.057 A 
ATOM      4  C   UNL d   1      33.155  20.065 -22.336  0.00  0.00     0.167 A 
ATOM      5  N   UNL d   1      32.884  21.417 -22.926  0.00  0.00    -0.161 NA
ATOM      6  N   UNL d   1      32.992  20.852 -20.903  0.00  0.00    -0.227 NA
ATOM      7  C   UNL d   1      33.237  19.652 -21.623  0.00  0.00     0.058 A 
ATOM      8  C   UNL d   1      32.737  22.138 -22.594  0.00  0.00     0.124 A 
ATOM      9  C   UNL d   1      33.156  20.041 -20.916  0.00  0.00     0.086 A 
ATOM     10  C   UNL d   1      33.241  19.613 -20.209  0.00  0.00     0.021 C 
ENDROOT
BRANCH   4  11
ATOM     11  N   UNL d   1      33.238  19.668 -23.058  0.00  0.00    -0.224 NA
BRANCH  11  12
ATOM     12  C   UNL d   1      33.041  18.874 -23.112  0.00  0.00     0.120 C 
BRANCH  12  13
ATOM     13  C   UNL d   1      32.901  18.533 -23.854  0.00  0.00     0.101 C 
BRANCH  13  14
ATOM     14  N   UNL d   1      32.411  17.873 -23.924  0.00  0.00    -0.298 N 
ATOM     15  C   UNL d   1      32.641  17.161 -23.577  0.00  0.00     0.107 A 
ATOM     16  C   UNL d   1      32.150  16.492 -23.646  0.00  0.00     0.142 A 
ATOM     17  O   UNL d   1      31.443  16.543 -24.056  0.00  0.00    -0.300 OA
ATOM     18  C   UNL d   1      31.214  17.264 -24.405  0.00  0.00     0.142 A 
ATOM     19  C   UNL d   1      31.700  17.925 -24.337  0.00  0.00     0.107 A 
ENDBRANCH  13  14
ENDBRANCH  12  13
ENDBRANCH  11  12
ENDBRANCH   4  11
BRANCH   3  20
ATOM     20  C   UNL d   1      32.640  22.593 -21.161  0.00  0.00     0.004 A 
ATOM     21  C   UNL d   1      31.909  22.622 -20.767  0.00  0.00     0.000 A 
ATOM     22  C   UNL d   1      31.792  23.156 -20.162  0.00  0.00     0.000 A 
ATOM     23  C   UNL d   1      32.404  23.673 -19.936  0.00  0.00     0.000 A 
ATOM     24  C   UNL d   1      33.124  23.646 -20.323  0.00  0.00     0.000 A 
ATOM     25  C   UNL d   1      33.240  23.105 -20.935  0.00  0.00     0.000 A 
ENDBRANCH   3  20
TORSDOF 5
ENDMDL
