MODEL 1
REMARK VINA RESULT:      -9.2      0.000      0.000
REMARK  4 active torsions:
REMARK  status: ('A' for Active; 'I' for Inactive)
REMARK       I    between atoms: N_3  and  C_1 
REMARK       I    between atoms: N_7  and  C_1 
REMARK    1  A    between atoms: C_2  and  N_3 
REMARK    2  A    between atoms: C_4  and  C_5 
REMARK    3  A    between atoms: O_13  and  C_4 
REMARK    4  A    between atoms: C_15  and  N_7 
ROOT
ATOM      1  C   UNL d   1      53.215  33.536  53.480  0.00  0.00     0.097 A 
ATOM      2  C   UNL d   1      52.067  34.296  53.103  0.00  0.00     0.065 A 
ATOM      3  C   UNL d   1      52.538  33.624  53.018  0.00  0.00     0.025 A 
ATOM      4  C   UNL d   1      53.422  34.120  54.026  0.00  0.00     0.075 A 
ATOM      5  C   UNL d   1      52.276  34.886  53.654  0.00  0.00     0.006 A 
ATOM      6  C   UNL d   1      52.952  34.792  54.111  0.00  0.00     0.013 A 
ATOM      7 CL   UNL d   1      54.103  34.030  54.489  0.00  0.00    -0.081 Cl
ENDROOT
BRANCH   1   8
ATOM      8  N   UNL d   1      53.685  32.864  53.396  0.00  0.00    -0.190 NA
ATOM      9  C   UNL d   1      53.355  32.116  53.498  0.00  0.00     0.369 C 
ATOM     10  N   UNL d   1      53.830  31.444  53.413  0.00  0.00    -0.191 NA
ATOM     11  O   UNL d   1      52.554  32.039  53.685  0.00  0.00    -0.242 OA
BRANCH  10  12
ATOM     12  C   UNL d   1      53.500  30.693  53.515  0.00  0.00     0.086 A 
ATOM     13  C   UNL d   1      53.611  30.293  54.233  0.00  0.00     0.019 A 
ATOM     14  C   UNL d   1      53.278  29.543  54.325  0.00  0.00     0.002 A 
ATOM     15  C   UNL d   1      52.841  29.198  53.714  0.00  0.00     0.000 A 
ATOM     16  C   UNL d   1      52.739  29.601  53.013  0.00  0.00     0.002 A 
ATOM     17  C   UNL d   1      53.063  30.347  52.905  0.00  0.00     0.019 A 
ENDBRANCH  10  12
ENDBRANCH   1   8
BRANCH   2  18
ATOM     18  C   UNL d   1      51.383  34.388  52.639  0.00  0.00     0.296 C 
ATOM     19  O   UNL d   1      51.446  34.410  51.815  0.00  0.00    -0.259 OA
BRANCH  18  20
ATOM     20  O   UNL d   1      50.645  34.458  52.999  0.00  0.00    -0.296 OA
ATOM     21  C   UNL d   1      49.959  34.461  52.539  0.00  0.00     0.185 C 
ENDBRANCH  18  20
ENDBRANCH   2  18
TORSDOF 4
ENDMDL
MODEL 2
REMARK VINA RESULT:      -8.7      1.475      2.226
REMARK  4 active torsions:
REMARK  status: ('A' for Active; 'I' for Inactive)
REMARK       I    between atoms: N_3  and  C_1 
REMARK       I    between atoms: N_7  and  C_1 
REMARK    1  A    between atoms: C_2  and  N_3 
REMARK    2  A    between atoms: C_4  and  C_5 
REMARK    3  A    between atoms: O_13  and  C_4 
REMARK    4  A    between atoms: C_15  and  N_7 
ROOT
ATOM      1  C   UNL d   1      52.711  33.516  53.085  0.00  0.00     0.097 A 
ATOM      2  C   UNL d   1      53.178  34.371  54.128  0.00  0.00     0.065 A 
ATOM      3  C   UNL d   1      53.232  33.665  53.706  0.00  0.00     0.025 A 
ATOM      4  C   UNL d   1      52.134  34.074  52.887  0.00  0.00     0.075 A 
ATOM      5  C   UNL d   1      52.596  34.934  53.928  0.00  0.00     0.006 A 
ATOM      6  C   UNL d   1      52.080  34.780  53.309  0.00  0.00     0.013 A 
ATOM      7 CL   UNL d   1      51.611  33.923  52.263  0.00  0.00    -0.081 Cl
ENDROOT
BRANCH   1   8
ATOM      8  N   UNL d   1      52.765  32.810  52.663  0.00  0.00    -0.190 NA
ATOM      9  C   UNL d   1      52.818  32.094  53.066  0.00  0.00     0.369 C 
ATOM     10  N   UNL d   1      52.872  31.387  52.640  0.00  0.00    -0.191 NA
ATOM     11  O   UNL d   1      52.816  32.082  53.892  0.00  0.00    -0.242 OA
BRANCH  10  12
ATOM     12  C   UNL d   1      52.925  30.667  53.043  0.00  0.00     0.086 A 
ATOM     13  C   UNL d   1      53.660  30.416  53.335  0.00  0.00     0.019 A 
ATOM     14  C   UNL d   1      53.701  29.696  53.736  0.00  0.00     0.002 A 
ATOM     15  C   UNL d   1      53.026  29.233  53.845  0.00  0.00     0.000 A 
ATOM     16  C   UNL d   1      52.308  29.491  53.553  0.00  0.00     0.002 A 
ATOM     17  C   UNL d   1      52.250  30.204  53.152  0.00  0.00     0.019 A 
ENDBRANCH  10  12
ENDBRANCH   1   8
BRANCH   2  18
ATOM     18  C   UNL d   1      53.702  34.525  54.756  0.00  0.00     0.296 C 
ATOM     19  O   UNL d   1      53.418  34.857  55.456  0.00  0.00    -0.259 OA
BRANCH  18  20
ATOM     20  O   UNL d   1      54.503  34.346  54.679  0.00  0.00    -0.296 OA
ATOM     21  C   UNL d   1      54.970  34.240  55.352  0.00  0.00     0.185 C 
ENDBRANCH  18  20
ENDBRANCH   2  18
TORSDOF 4
ENDMDL
MODEL 3
REMARK VINA RESULT:      -8.6      1.159      3.997
REMARK  4 active torsions:
REMARK  status: ('A' for Active; 'I' for Inactive)
REMARK       I    between atoms: N_3  and  C_1 
REMARK       I    between atoms: N_7  and  C_1 
REMARK    1  A    between atoms: C_2  and  N_3 
REMARK    2  A    between atoms: C_4  and  C_5 
REMARK    3  A    between atoms: O_13  and  C_4 
REMARK    4  A    between atoms: C_15  and  N_7 
ROOT
ATOM      1  C   UNL d   1      53.404  33.250  53.872  0.00  0.00     0.097 A 
ATOM      2  C   UNL d   1      53.724  31.866  54.001  0.00  0.00     0.065 A 
ATOM      3  C   UNL d   1      53.399  32.486  53.564  0.00  0.00     0.025 A 
ATOM      4  C   UNL d   1      53.732  33.395  54.616  0.00  0.00     0.075 A 
ATOM      5  C   UNL d   1      54.056  32.012  54.752  0.00  0.00     0.006 A 
ATOM      6  C   UNL d   1      54.056  32.776  55.052  0.00  0.00     0.013 A 
ATOM      7 CL   UNL d   1      53.735  34.165  54.923  0.00  0.00    -0.081 Cl
ENDROOT
BRANCH   1   8
ATOM      8  N   UNL d   1      53.079  33.870  53.436  0.00  0.00    -0.190 NA
ATOM      9  C   UNL d   1      52.285  33.846  53.215  0.00  0.00     0.369 C 
ATOM     10  N   UNL d   1      51.963  34.469  52.778  0.00  0.00    -0.191 NA
ATOM     11  O   UNL d   1      51.815  33.202  53.431  0.00  0.00    -0.242 OA
BRANCH  10  12
ATOM     12  C   UNL d   1      51.166  34.446  52.556  0.00  0.00     0.086 A 
ATOM     13  C   UNL d   1      50.963  34.205  51.789  0.00  0.00     0.019 A 
ATOM     14  C   UNL d   1      50.166  34.186  51.578  0.00  0.00     0.002 A 
ATOM     15  C   UNL d   1      49.580  34.403  52.119  0.00  0.00     0.000 A 
ATOM     16  C   UNL d   1      49.793  34.638  52.871  0.00  0.00     0.002 A 
ATOM     17  C   UNL d   1      50.581  34.663  53.097  0.00  0.00     0.019 A 
ENDBRANCH  10  12
ENDBRANCH   1   8
BRANCH   2  18
ATOM     18  C   UNL d   1      53.722  31.093  53.694  0.00  0.00     0.296 C 
ATOM     19  O   UNL d   1      54.202  30.906  53.048  0.00  0.00    -0.259 OA
BRANCH  18  20
ATOM     20  O   UNL d   1      53.243  30.514  54.033  0.00  0.00    -0.296 OA
ATOM     21  C   UNL d   1      53.191  29.765  53.688  0.00  0.00     0.185 C 
ENDBRANCH  18  20
ENDBRANCH   2  18
TORSDOF 4
ENDMDL
MODEL 4
REMARK VINA RESULT:      -7.9      1.628      4.219
REMARK  4 active torsions:
REMARK  status: ('A' for Active; 'I' for Inactive)
REMARK       I    between atoms: N_3  and  C_1 
REMARK       I    between atoms: N_7  and  C_1 
REMARK    1  A    between atoms: C_2  and  N_3 
REMARK    2  A    between atoms: C_4  and  C_5 
REMARK    3  A    between atoms: O_13  and  C_4 
REMARK    4  A    between atoms: C_15  and  N_7 
ROOT
ATOM      1  C   UNL d   1      53.071  32.403  53.104  0.00  0.00     0.097 A 
ATOM      2  C   UNL d   1      53.899  32.416  54.266  0.00  0.00     0.065 A 
ATOM      3  C   UNL d   1      53.479  32.823  53.684  0.00  0.00     0.025 A 
ATOM      4  C   UNL d   1      53.083  31.577  53.104  0.00  0.00     0.075 A 
ATOM      5  C   UNL d   1      53.911  31.582  54.266  0.00  0.00     0.006 A 
ATOM      6  C   UNL d   1      53.503  31.171  53.685  0.00  0.00     0.013 A 
ATOM      7 CL   UNL d   1      52.672  31.158  52.520  0.00  0.00    -0.081 Cl
ENDROOT
BRANCH   1   8
ATOM      8  N   UNL d   1      52.651  32.810  52.522  0.00  0.00    -0.190 NA
ATOM      9  C   UNL d   1      51.967  33.223  52.723  0.00  0.00     0.369 C 
ATOM     10  N   UNL d   1      51.548  33.629  52.137  0.00  0.00    -0.191 NA
ATOM     11  O   UNL d   1      51.702  33.229  53.505  0.00  0.00    -0.242 OA
BRANCH  10  12
ATOM     12  C   UNL d   1      50.860  34.044  52.337  0.00  0.00     0.086 A 
ATOM     13  C   UNL d   1      50.197  33.998  51.842  0.00  0.00     0.019 A 
ATOM     14  C   UNL d   1      49.517  34.416  52.051  0.00  0.00     0.002 A 
ATOM     15  C   UNL d   1      49.496  34.872  52.739  0.00  0.00     0.000 A 
ATOM     16  C   UNL d   1      50.155  34.910  53.219  0.00  0.00     0.002 A 
ATOM     17  C   UNL d   1      50.840  34.501  53.026  0.00  0.00     0.019 A 
ENDBRANCH  10  12
ENDBRANCH   1   8
BRANCH   2  18
ATOM     18  C   UNL d   1      54.312  32.835  54.853  0.00  0.00     0.296 C 
ATOM     19  O   UNL d   1      54.088  32.761  55.645  0.00  0.00    -0.259 OA
BRANCH  18  20
ATOM     20  O   UNL d   1      54.943  33.323  54.647  0.00  0.00    -0.296 OA
ATOM     21  C   UNL d   1      55.270  33.837  55.206  0.00  0.00     0.185 C 
ENDBRANCH  18  20
ENDBRANCH   2  18
TORSDOF 4
ENDMDL
MODEL 5
REMARK VINA RESULT:      -7.4      2.127      4.600
REMARK  4 active torsions:
REMARK  status: ('A' for Active; 'I' for Inactive)
REMARK       I    between atoms: N_3  and  C_1 
REMARK       I    between atoms: N_7  and  C_1 
REMARK    1  A    between atoms: C_2  and  N_3 
REMARK    2  A    between atoms: C_4  and  C_5 
REMARK    3  A    between atoms: O_13  and  C_4 
REMARK    4  A    between atoms: C_15  and  N_7 
ROOT
ATOM      1  C   UNL d   1      53.446  30.801  53.331  0.00  0.00     0.097 A 
ATOM      2  C   UNL d   1      53.199  29.562  53.994  0.00  0.00     0.065 A 
ATOM      3  C   UNL d   1      53.658  30.240  53.897  0.00  0.00     0.025 A 
ATOM      4  C   UNL d   1      52.775  30.685  52.864  0.00  0.00     0.075 A 
ATOM      5  C   UNL d   1      52.522  29.444  53.522  0.00  0.00     0.006 A 
ATOM      6  C   UNL d   1      52.317  30.007  52.961  0.00  0.00     0.013 A 
ATOM      7 CL   UNL d   1      52.565  31.250  52.296  0.00  0.00    -0.081 Cl
ENDROOT
BRANCH   1   8
ATOM      8  N   UNL d   1      53.905  31.479  53.234  0.00  0.00    -0.190 NA
ATOM      9  C   UNL d   1      53.920  32.053  53.825  0.00  0.00     0.369 C 
ATOM     10  N   UNL d   1      54.382  32.732  53.724  0.00  0.00    -0.191 NA
ATOM     11  O   UNL d   1      53.477  31.950  54.514  0.00  0.00    -0.242 OA
BRANCH  10  12
ATOM     12  C   UNL d   1      54.398  33.309  54.316  0.00  0.00     0.086 A 
ATOM     13  C   UNL d   1      53.779  33.859  54.368  0.00  0.00     0.019 A 
ATOM     14  C   UNL d   1      53.806  34.430  54.962  0.00  0.00     0.002 A 
ATOM     15  C   UNL d   1      54.436  34.456  55.496  0.00  0.00     0.000 A 
ATOM     16  C   UNL d   1      55.039  33.909  55.435  0.00  0.00     0.002 A 
ATOM     17  C   UNL d   1      55.028  33.335  54.850  0.00  0.00     0.019 A 
ENDBRANCH  10  12
ENDBRANCH   1   8
BRANCH   2  18
ATOM     18  C   UNL d   1      53.409  28.993  54.564  0.00  0.00     0.296 C 
ATOM     19  O   UNL d   1      54.015  28.455  54.402  0.00  0.00    -0.259 OA
BRANCH  18  20
ATOM     20  O   UNL d   1      53.014  28.966  55.287  0.00  0.00    -0.296 OA
ATOM     21  C   UNL d   1      53.318  28.512  55.907  0.00  0.00     0.185 C 
ENDBRANCH  18  20
ENDBRANCH   2  18
TORSDOF 4
ENDMDL
