MODEL 1
REMARK VINA RESULT:      60.9      0.000      0.000
REMARK  5 active torsions:
REMARK  status: ('A' for Active; 'I' for Inactive)
REMARK    1  A    between atoms: S_10  and  C_1 
REMARK    2  A    between atoms: C_2  and  C_3 
REMARK    3  A    between atoms: C_13  and  C_6 
REMARK       I    between atoms: N_8  and  C_9 
REMARK    4  A    between atoms: C_9  and  C_11 
REMARK    5  A    between atoms: C_11  and  S_10 
ROOT
ATOM      1  C   UNL d   1     -55.821-100.278 -43.577  0.00  0.00     0.194 A 
ATOM      2  C   UNL d   1     -55.680 -99.392 -44.698  0.00  0.00     0.156 A 
ATOM      3  N   UNL d   1     -55.358 -99.952 -44.186  0.00  0.00    -0.217 NA
ATOM      4  N   UNL d   1     -56.588-100.045 -43.489  0.00  0.00    -0.221 NA
ATOM      5  C   UNL d   1     -56.909 -99.479 -44.008  0.00  0.00     0.085 A 
ATOM      6  C   UNL d   1     -56.446 -99.158 -44.610  0.00  0.00     0.042 A 
ENDROOT
BRANCH   1   7
ATOM      7  S   UNL d   1     -55.487-100.846 -43.063  0.00  0.00    -0.043 SA
BRANCH   7   8
ATOM      8  C   UNL d   1     -55.014-101.456 -43.358  0.00  0.00     0.099 C 
BRANCH   8   9
ATOM      9  C   UNL d   1     -54.866-102.124 -42.897  0.00  0.00     0.272 C 
ATOM     10  N   UNL d   1     -54.862-102.067 -42.068  0.00  0.00    -0.267 N 
ATOM     11  C   UNL d   1     -55.007-101.338 -41.705  0.00  0.00     0.110 A 
ATOM     12  C   UNL d   1     -54.715-102.729 -41.619  0.00  0.00     0.110 A 
ATOM     13  C   UNL d   1     -55.005-101.272 -40.894  0.00  0.00     0.142 A 
ATOM     14  O   UNL d   1     -54.856-101.942 -40.429  0.00  0.00    -0.300 OA
ATOM     15  C   UNL d   1     -54.711-102.671 -40.791  0.00  0.00     0.142 A 
ATOM     16  O   UNL d   1     -54.719-102.860 -43.263  0.00  0.00    -0.266 OA
ENDBRANCH   8   9
ENDBRANCH   7   8
ENDBRANCH   1   7
BRANCH   2  17
ATOM     17  C   UNL d   1     -55.206 -99.083 -45.292  0.00  0.00     0.435 C 
ATOM     18  F   UNL d   1     -54.718 -98.764 -45.890  0.00  0.00    -0.165 F 
ATOM     19  F   UNL d   1     -54.712 -98.755 -44.698  0.00  0.00    -0.165 F 
ATOM     20  F   UNL d   1     -55.701 -99.411 -45.879  0.00  0.00    -0.165 F 
ENDBRANCH   2  17
BRANCH   5  21
ATOM     21  C   UNL d   1     -57.703 -99.237 -43.917  0.00  0.00     0.018 A 
ATOM     22  C   UNL d   1     -57.984 -98.998 -43.168  0.00  0.00     0.002 A 
ATOM     23  C   UNL d   1     -58.766 -98.760 -43.079  0.00  0.00     0.000 A 
ATOM     24  C   UNL d   1     -59.280 -98.757 -43.736  0.00  0.00     0.000 A 
ATOM     25  C   UNL d   1     -59.010 -98.991 -44.475  0.00  0.00     0.000 A 
ATOM     26  C   UNL d   1     -58.204 -99.237 -44.567  0.00  0.00     0.002 A 
ENDBRANCH   5  21
TORSDOF 5
ENDMDL
