MODEL 1
REMARK VINA RESULT:      -5.6      0.000      0.000
REMARK  5 active torsions:
REMARK  status: ('A' for Active; 'I' for Inactive)
REMARK    1  A    between atoms: O_8  and  S_1 
REMARK    2  A    between atoms: C_9  and  S_1 
REMARK    3  A    between atoms: C_7  and  C_2 
REMARK    4  A    between atoms: C_20  and  C_7 
REMARK    5  A    between atoms: C_14  and  O_8 
ROOT
ATOM      1  C   UNL d   1     -42.676-123.238 -49.393  0.00  0.00     0.139 A 
ATOM      2  C   UNL d   1     -42.480-122.498 -50.484  0.00  0.00     0.064 A 
ATOM      3  C   UNL d   1     -42.872-122.526 -49.759  0.00  0.00     0.220 A 
ATOM      4  C   UNL d   1     -42.040-123.194 -50.565  0.00  0.00     0.105 A 
ATOM      5  O   UNL d   1     -42.163-123.650 -49.891  0.00  0.00    -0.304 OA
ATOM      6  C   UNL d   1     -41.585-123.317 -51.250  0.00  0.00     0.050 A 
ATOM      7  C   UNL d   1     -42.465-121.923 -51.087  0.00  0.00     0.007 A 
ATOM      8  C   UNL d   1     -41.571-122.749 -51.844  0.00  0.00     0.116 A 
ATOM      9  O   UNL d   1     -43.371-121.944 -49.457  0.00  0.00    -0.284 OA
ATOM     10  C   UNL d   1     -42.011-122.052 -51.763  0.00  0.00     0.026 A 
ENDROOT
BRANCH   8  11
ATOM     11  O   UNL d   1     -41.123-122.870 -52.520  0.00  0.00    -0.227 OA
BRANCH  11  12
ATOM     12  S   UNL d   1     -41.421-122.688 -53.258  0.00  0.00     0.304 S 
ATOM     13  O   UNL d   1     -41.669-123.464 -53.354  0.00  0.00    -0.193 OA
ATOM     14  O   UNL d   1     -41.173-121.914 -53.163  0.00  0.00    -0.193 OA
BRANCH  12  15
ATOM     15  C   UNL d   1     -41.722-122.504 -54.003  0.00  0.00     0.111 A 
ATOM     16  C   UNL d   1     -41.823-121.717 -54.225  0.00  0.00     0.013 A 
ATOM     17  C   UNL d   1     -42.125-121.530 -54.974  0.00  0.00     0.001 A 
ATOM     18  C   UNL d   1     -42.324-122.138 -55.493  0.00  0.00     0.000 A 
ATOM     19  C   UNL d   1     -42.224-122.929 -55.273  0.00  0.00     0.001 A 
ATOM     20  C   UNL d   1     -42.624-121.954 -56.237  0.00  0.00     0.000 C 
ATOM     21  C   UNL d   1     -41.924-123.109 -54.531  0.00  0.00     0.013 A 
ENDBRANCH  12  15
ENDBRANCH  11  12
ENDBRANCH   8  11
BRANCH   1  22
ATOM     22  C   UNL d   1     -42.946-123.496 -48.654  0.00  0.00     0.029 C 
BRANCH  22  23
ATOM     23  C   UNL d   1     -42.452-123.451 -48.003  0.00  0.00     0.021 A 
ATOM     24  C   UNL d   1     -41.709-123.817 -48.025  0.00  0.00     0.099 A 
ATOM     25  N   UNL d   1     -41.206-123.776 -47.373  0.00  0.00    -0.242 NA
ATOM     26  C   UNL d   1     -41.449-123.369 -46.698  0.00  0.00     0.099 A 
ATOM     27  C   UNL d   1     -42.192-123.004 -46.676  0.00  0.00     0.021 A 
ATOM     28  C   UNL d   1     -42.686-123.049 -47.328  0.00  0.00     0.003 A 
ENDBRANCH  22  23
ENDBRANCH   1  22
TORSDOF 5
ENDMDL
MODEL 2
REMARK VINA RESULT:      -3.8      1.944      5.688
REMARK  5 active torsions:
REMARK  status: ('A' for Active; 'I' for Inactive)
REMARK    1  A    between atoms: O_8  and  S_1 
REMARK    2  A    between atoms: C_9  and  S_1 
REMARK    3  A    between atoms: C_7  and  C_2 
REMARK    4  A    between atoms: C_20  and  C_7 
REMARK    5  A    between atoms: C_14  and  O_8 
ROOT
ATOM      1  C   UNL d   1     -41.315-121.624 -53.288  0.00  0.00     0.139 A 
ATOM      2  C   UNL d   1     -41.209-121.723 -51.963  0.00  0.00     0.064 A 
ATOM      3  C   UNL d   1     -41.211-121.191 -52.594  0.00  0.00     0.220 A 
ATOM      4  C   UNL d   1     -41.313-122.485 -52.269  0.00  0.00     0.105 A 
ATOM      5  O   UNL d   1     -41.378-122.421 -53.087  0.00  0.00    -0.304 OA
ATOM      6  C   UNL d   1     -41.333-123.137 -51.753  0.00  0.00     0.050 A 
ATOM      7  C   UNL d   1     -41.125-121.612 -51.141  0.00  0.00     0.007 A 
ATOM      8  C   UNL d   1     -41.250-123.026 -50.943  0.00  0.00     0.116 A 
ATOM      9  O   UNL d   1     -41.123-120.374 -52.537  0.00  0.00    -0.284 OA
ATOM     10  C   UNL d   1     -41.146-122.263 -50.637  0.00  0.00     0.026 A 
ENDROOT
BRANCH   8  11
ATOM     11  O   UNL d   1     -41.270-123.669 -50.435  0.00  0.00    -0.227 OA
BRANCH  11  12
ATOM     12  S   UNL d   1     -41.763-123.672 -49.784  0.00  0.00     0.304 S 
ATOM     13  O   UNL d   1     -41.123-123.526 -49.293  0.00  0.00    -0.193 OA
ATOM     14  O   UNL d   1     -42.403-123.817 -50.273  0.00  0.00    -0.193 OA
BRANCH  12  15
ATOM     15  C   UNL d   1     -42.261-123.674 -49.127  0.00  0.00     0.111 A 
ATOM     16  C   UNL d   1     -43.076-123.744 -49.226  0.00  0.00     0.013 A 
ATOM     17  C   UNL d   1     -43.578-123.747 -48.567  0.00  0.00     0.001 A 
ATOM     18  C   UNL d   1     -43.255-123.680 -47.813  0.00  0.00     0.000 A 
ATOM     19  C   UNL d   1     -42.438-123.609 -47.709  0.00  0.00     0.001 A 
ATOM     20  C   UNL d   1     -43.752-123.682 -47.156  0.00  0.00     0.000 C 
ATOM     21  C   UNL d   1     -41.945-123.607 -48.365  0.00  0.00     0.013 A 
ENDBRANCH  12  15
ENDBRANCH  11  12
ENDBRANCH   8  11
BRANCH   1  22
ATOM     22  C   UNL d   1     -41.351-121.312 -54.054  0.00  0.00     0.029 C 
BRANCH  22  23
ATOM     23  C   UNL d   1     -41.804-121.686 -54.624  0.00  0.00     0.021 A 
ATOM     24  C   UNL d   1     -42.627-121.597 -54.619  0.00  0.00     0.099 A 
ATOM     25  N   UNL d   1     -43.090-121.971 -55.190  0.00  0.00    -0.242 NA
ATOM     26  C   UNL d   1     -42.725-122.435 -55.767  0.00  0.00     0.099 A 
ATOM     27  C   UNL d   1     -41.902-122.524 -55.772  0.00  0.00     0.021 A 
ATOM     28  C   UNL d   1     -41.449-122.149 -55.201  0.00  0.00     0.003 A 
ENDBRANCH  22  23
ENDBRANCH   1  22
TORSDOF 5
ENDMDL
