MODEL 1
REMARK VINA RESULT:      -3.6      0.000      0.000
REMARK  3 active torsions:
REMARK  status: ('A' for Active; 'I' for Inactive)
REMARK    1  A    between atoms: C_8  and  C_1 
REMARK    2  A    between atoms: C_3  and  N_14 
REMARK       I    between atoms: N_13  and  C_8 
REMARK    3  A    between atoms: N_14  and  N_13 
ROOT
ATOM      1  C   UNL d   1     -41.366-121.387 -51.148  0.00  0.00     0.320 C 
ATOM      2  N   UNL d   1     -41.233-121.636 -51.917  0.00  0.00    -0.102 NA
ATOM      3  O   UNL d   1     -41.220-120.670 -50.748  0.00  0.00    -0.261 OA
ENDROOT
BRANCH   1   4
ATOM      4  C   UNL d   1     -41.714-121.954 -50.667  0.00  0.00     0.162 A 
ATOM      5  C   UNL d   1     -41.253-122.552 -50.349  0.00  0.00     0.072 A 
ATOM      6  C   UNL d   1     -41.596-123.125 -49.865  0.00  0.00     0.200 A 
ATOM      7  O   UNL d   1     -41.124-123.738 -49.539  0.00  0.00    -0.286 OA
ATOM      8  C   UNL d   1     -42.408-123.096 -49.698  0.00  0.00     0.062 A 
ATOM      9  C   UNL d   1     -42.865-122.496 -50.017  0.00  0.00     0.103 A 
ATOM     10  C   UNL d   1     -42.751-123.668 -49.213  0.00  0.00     0.005 A 
ATOM     11  O   UNL d   1     -42.517-121.929 -50.499  0.00  0.00    -0.302 OA
ATOM     12  C   UNL d   1     -43.667-122.461 -49.856  0.00  0.00     0.025 A 
ATOM     13  C   UNL d   1     -44.017-123.030 -49.372  0.00  0.00     0.002 A 
ATOM     14  C   UNL d   1     -43.552-123.634 -49.052  0.00  0.00     0.000 A 
ENDBRANCH   1   4
BRANCH   2  15
ATOM     15  N   UNL d   1     -41.447-122.397 -52.138  0.00  0.00    -0.118 NA
BRANCH  15  16
ATOM     16  C   UNL d   1     -41.512-122.597 -52.944  0.00  0.00     0.215 A 
ATOM     17  N   UNL d   1     -41.865-122.142 -53.528  0.00  0.00    -0.219 NA
ATOM     18  C   UNL d   1     -41.810-122.539 -54.244  0.00  0.00     0.090 A 
ATOM     19  C   UNL d   1     -42.061-122.357 -55.004  0.00  0.00     0.018 A 
ATOM     20  C   UNL d   1     -41.414-123.256 -54.097  0.00  0.00     0.050 A 
ATOM     21  C   UNL d   1     -41.920-122.884 -55.623  0.00  0.00     0.002 A 
ATOM     22  C   UNL d   1     -42.457-121.641 -55.147  0.00  0.00     0.002 C 
ATOM     23  C   UNL d   1     -41.527-123.592 -55.476  0.00  0.00     0.001 A 
ATOM     24  C   UNL d   1     -41.267-123.789 -54.710  0.00  0.00     0.008 A 
ATOM     25  S   UNL d   1     -41.232-123.286 -53.296  0.00  0.00    -0.045 SA
ENDBRANCH  15  16
ENDBRANCH   2  15
TORSDOF 3
ENDMDL
MODEL 2
REMARK VINA RESULT:      -2.9      1.455      4.656
REMARK  3 active torsions:
REMARK  status: ('A' for Active; 'I' for Inactive)
REMARK    1  A    between atoms: C_8  and  C_1 
REMARK    2  A    between atoms: C_3  and  N_14 
REMARK       I    between atoms: N_13  and  C_8 
REMARK    3  A    between atoms: N_14  and  N_13 
ROOT
ATOM      1  C   UNL d   1     -41.418-121.205 -51.890  0.00  0.00     0.320 C 
ATOM      2  N   UNL d   1     -41.629-121.546 -51.176  0.00  0.00    -0.102 NA
ATOM      3  O   UNL d   1     -41.124-120.453 -52.099  0.00  0.00    -0.261 OA
ENDROOT
BRANCH   1   4
ATOM      4  C   UNL d   1     -41.513-121.699 -52.539  0.00  0.00     0.162 A 
ATOM      5  C   UNL d   1     -41.275-122.481 -52.490  0.00  0.00     0.072 A 
ATOM      6  C   UNL d   1     -41.367-122.982 -53.139  0.00  0.00     0.200 A 
ATOM      7  O   UNL d   1     -41.123-123.784 -53.088  0.00  0.00    -0.286 OA
ATOM      8  C   UNL d   1     -41.702-122.696 -53.841  0.00  0.00     0.062 A 
ATOM      9  C   UNL d   1     -41.939-121.913 -53.886  0.00  0.00     0.103 A 
ATOM     10  C   UNL d   1     -41.794-123.197 -54.490  0.00  0.00     0.005 A 
ATOM     11  O   UNL d   1     -41.844-121.419 -53.236  0.00  0.00    -0.302 OA
ATOM     12  C   UNL d   1     -42.270-121.624 -54.577  0.00  0.00     0.025 A 
ATOM     13  C   UNL d   1     -42.365-122.119 -55.229  0.00  0.00     0.002 A 
ATOM     14  C   UNL d   1     -42.125-122.909 -55.180  0.00  0.00     0.000 A 
ENDBRANCH   1   4
BRANCH   2  15
ATOM     15  N   UNL d   1     -41.905-122.318 -51.162  0.00  0.00    -0.118 NA
BRANCH  15  16
ATOM     16  C   UNL d   1     -42.141-122.667 -50.444  0.00  0.00     0.215 A 
ATOM     17  N   UNL d   1     -41.656-122.830 -49.803  0.00  0.00    -0.219 NA
ATOM     18  C   UNL d   1     -42.106-123.172 -49.209  0.00  0.00     0.090 A 
ATOM     19  C   UNL d   1     -41.922-123.445 -48.457  0.00  0.00     0.018 A 
ATOM     20  C   UNL d   1     -42.887-123.222 -49.490  0.00  0.00     0.050 A 
ATOM     21  C   UNL d   1     -42.513-123.769 -47.980  0.00  0.00     0.002 A 
ATOM     22  C   UNL d   1     -41.141-123.395 -48.179  0.00  0.00     0.002 C 
ATOM     23  C   UNL d   1     -43.286-123.817 -48.260  0.00  0.00     0.001 A 
ATOM     24  C   UNL d   1     -43.485-123.544 -49.020  0.00  0.00     0.008 A 
ATOM     25  S   UNL d   1     -42.904-122.909 -50.250  0.00  0.00    -0.045 SA
ENDBRANCH  15  16
ENDBRANCH   2  15
TORSDOF 3
ENDMDL
