MODEL 1
REMARK VINA RESULT:      34.8      0.000      0.000
REMARK  3 active torsions:
REMARK  status: ('A' for Active; 'I' for Inactive)
REMARK    1  A    between atoms: C_2  and  C_1 
REMARK    2  A    between atoms: C_3  and  C_1 
REMARK       I    between atoms: N_4  and  C_2 
REMARK    3  A    between atoms: C_6  and  N_4 
ROOT
ATOM      1  C   UNL d   1      14.742  12.956  -1.249  0.00  0.00     0.150 A 
ATOM      2  O   UNL d   1      16.167  12.129  -1.381  0.00  0.00    -0.304 OA
ATOM      3  C   UNL d   1      14.750  12.197  -1.577  0.00  0.00     0.019 A 
ATOM      4  C   UNL d   1      15.438  13.295  -0.992  0.00  0.00     0.019 A 
ATOM      5  C   UNL d   1      16.156  12.878  -1.058  0.00  0.00     0.119 A 
ATOM      6  C   UNL d   1      15.465  11.784  -1.643  0.00  0.00     0.119 A 
ENDROOT
BRANCH   1   7
ATOM      7  C   UNL d   1      14.036  12.612  -1.510  0.00  0.00     0.315 C 
ATOM      8  N   UNL d   1      13.762  12.749  -2.275  0.00  0.00    -0.367 NA
ATOM      9  O   UNL d   1      13.609  12.130  -0.998  0.00  0.00    -0.255 OA
BRANCH   8  10
ATOM     10  C   UNL d   1      13.482  12.883  -3.037  0.00  0.00     0.135 A 
ATOM     11  C   UNL d   1      13.301  13.645  -3.254  0.00  0.00     0.032 A 
ATOM     12  C   UNL d   1      13.016  13.785  -4.029  0.00  0.00     0.003 A 
ATOM     13  C   UNL d   1      12.830  14.559  -4.254  0.00  0.00     0.000 C 
ATOM     14  C   UNL d   1      12.930  13.176  -4.532  0.00  0.00     0.000 A 
ATOM     15  C   UNL d   1      13.111  12.417  -4.316  0.00  0.00     0.003 A 
ATOM     16  C   UNL d   1      13.388  12.274  -3.565  0.00  0.00     0.032 A 
ATOM     17  C   UNL d   1      13.019  11.792  -4.843  0.00  0.00     0.000 C 
ENDBRANCH   8  10
ENDBRANCH   1   7
BRANCH   1  18
ATOM     18  C   UNL d   1      14.731  13.717  -0.921  0.00  0.00     0.024 A 
ATOM     19  S   UNL d   1      14.614  13.912  -0.122  0.00  0.00    -0.090 SA
ATOM     20  C   UNL d   1      14.645  14.732  -0.038  0.00  0.00     0.035 A 
ATOM     21  C   UNL d   1      14.780  15.065  -0.777  0.00  0.00     0.007 A 
ATOM     22  C   UNL d   1      14.833  14.436  -1.327  0.00  0.00     0.004 A 
ENDBRANCH   1  18
TORSDOF 3
ENDMDL
MODEL 2
REMARK VINA RESULT:      36.9      1.870      3.572
REMARK  3 active torsions:
REMARK  status: ('A' for Active; 'I' for Inactive)
REMARK    1  A    between atoms: C_2  and  C_1 
REMARK    2  A    between atoms: C_3  and  C_1 
REMARK       I    between atoms: N_4  and  C_2 
REMARK    3  A    between atoms: C_6  and  N_4 
ROOT
ATOM      1  C   UNL d   1      13.588  12.907  -4.266  0.00  0.00     0.150 A 
ATOM      2  O   UNL d   1      14.260  12.486  -5.717  0.00  0.00    -0.304 OA
ATOM      3  C   UNL d   1      13.683  12.108  -4.462  0.00  0.00     0.019 A 
ATOM      4  C   UNL d   1      13.827  13.485  -4.790  0.00  0.00     0.019 A 
ATOM      5  C   UNL d   1      14.166  13.273  -5.521  0.00  0.00     0.119 A 
ATOM      6  C   UNL d   1      14.020  11.900  -5.189  0.00  0.00     0.119 A 
ENDROOT
BRANCH   1   7
ATOM      7  C   UNL d   1      13.346  12.320  -3.735  0.00  0.00     0.315 C 
ATOM      8  N   UNL d   1      13.678  12.275  -2.982  0.00  0.00    -0.367 NA
ATOM      9  O   UNL d   1      12.769  11.781  -3.965  0.00  0.00    -0.255 OA
BRANCH   8  10
ATOM     10  C   UNL d   1      14.005  12.224  -2.229  0.00  0.00     0.135 A 
ATOM     11  C   UNL d   1      13.516  12.030  -1.608  0.00  0.00     0.032 A 
ATOM     12  C   UNL d   1      13.846  11.978  -0.840  0.00  0.00     0.003 A 
ATOM     13  C   UNL d   1      13.353  11.780  -0.205  0.00  0.00     0.000 C 
ATOM     14  C   UNL d   1      14.621  12.117  -0.734  0.00  0.00     0.000 A 
ATOM     15  C   UNL d   1      15.107  12.311  -1.352  0.00  0.00     0.003 A 
ATOM     16  C   UNL d   1      14.793  12.363  -2.101  0.00  0.00     0.032 A 
ATOM     17  C   UNL d   1      15.908  12.454  -1.234  0.00  0.00     0.000 C 
ENDBRANCH   8  10
ENDBRANCH   1   7
BRANCH   1  18
ATOM     18  C   UNL d   1      13.492  13.705  -4.067  0.00  0.00     0.024 A 
ATOM     19  S   UNL d   1      12.785  14.140  -4.086  0.00  0.00    -0.090 SA
ATOM     20  C   UNL d   1      12.940  14.914  -3.845  0.00  0.00     0.035 A 
ATOM     21  C   UNL d   1      13.739  14.979  -3.672  0.00  0.00     0.007 A 
ATOM     22  C   UNL d   1      14.085  14.229  -3.809  0.00  0.00     0.004 A 
ENDBRANCH   1  18
TORSDOF 3
ENDMDL
