MODEL 1
REMARK VINA RESULT:      44.0      0.000      0.000
REMARK  4 active torsions:
REMARK  status: ('A' for Active; 'I' for Inactive)
REMARK    1  A    between atoms: N_2  and  S_1 
REMARK    2  A    between atoms: C_4  and  S_1 
REMARK    3  A    between atoms: C_5  and  N_3 
REMARK    4  A    between atoms: C_12  and  C_13 
ROOT
ATOM      1  N   UNL d   1      45.455 -17.475  39.724  0.00  0.00    -0.226 N 
ATOM      2  N   UNL d   1      45.057 -16.616  38.373  0.00  0.00    -0.299 N 
ATOM      3  C   UNL d   1      44.667 -17.401  39.500  0.00  0.00     0.111 A 
ATOM      4  C   UNL d   1      46.053 -17.119  39.271  0.00  0.00     0.111 A 
ATOM      5  C   UNL d   1      44.468 -16.971  38.824  0.00  0.00     0.100 A 
ATOM      6  C   UNL d   1      45.854 -16.689  38.596  0.00  0.00     0.100 A 
ENDROOT
BRANCH   1   7
ATOM      7  S   UNL d   1      45.654 -17.907  40.403  0.00  0.00     0.271 S 
ATOM      8  O   UNL d   1      46.450 -17.876  40.189  0.00  0.00    -0.200 OA
ATOM      9  O   UNL d   1      44.858 -17.939  40.617  0.00  0.00    -0.200 OA
BRANCH   7  10
ATOM     10  C   UNL d   1      45.852 -18.335  41.075  0.00  0.00     0.104 A 
ATOM     11  C   UNL d   1      46.439 -18.911  41.040  0.00  0.00     0.013 A 
ATOM     12  C   UNL d   1      46.637 -19.341  41.716  0.00  0.00    -0.004 A 
ATOM     13  C   UNL d   1      46.249 -19.195  42.426  0.00  0.00    -0.023 A 
ATOM     14  C   UNL d   1      45.665 -18.620  42.460  0.00  0.00    -0.004 A 
ATOM     15  C   UNL d   1      45.466 -18.191  41.785  0.00  0.00     0.013 A 
BRANCH  13  16
ATOM     16  C   UNL d   1      46.449 -19.627  43.105  0.00  0.00     0.019 C 
ATOM     17  C   UNL d   1      46.622 -18.924  43.501  0.00  0.00     0.004 C 
ATOM     18  C   UNL d   1      46.276 -20.329  42.709  0.00  0.00     0.004 C 
ATOM     19  C   UNL d   1      46.647 -20.054  43.777  0.00  0.00     0.004 C 
ENDBRANCH  13  16
ENDBRANCH   7  10
ENDBRANCH   1   7
BRANCH   2  20
ATOM     20  C   UNL d   1      44.857 -16.182  37.690  0.00  0.00     0.092 A 
ATOM     21  C   UNL d   1      45.403 -15.646  37.362  0.00  0.00     0.156 A 
ATOM     22  F   UNL d   1      46.094 -15.553  37.691  0.00  0.00    -0.203 F 
ATOM     23  C   UNL d   1      45.205 -15.218  36.689  0.00  0.00     0.031 A 
ATOM     24  C   UNL d   1      44.458 -15.320  36.336  0.00  0.00     0.002 A 
ATOM     25  C   UNL d   1      43.920 -15.852  36.664  0.00  0.00     0.002 A 
ATOM     26  C   UNL d   1      44.118 -16.280  37.336  0.00  0.00     0.020 A 
ENDBRANCH   2  20
TORSDOF 4
ENDMDL
