MODEL 1
REMARK VINA RESULT:      93.4      0.000      0.000
REMARK  4 active torsions:
REMARK  status: ('A' for Active; 'I' for Inactive)
REMARK    1  A    between atoms: C_13  and  N_5 
REMARK    2  A    between atoms: C_14  and  C_6 
REMARK    3  A    between atoms: C_21  and  C_13 
REMARK    4  A    between atoms: O_25  and  C_20 
ROOT
ATOM      1  C   UNL d   1     -51.299  26.125  33.436  0.00  0.00     0.080 A 
ATOM      2  C   UNL d   1     -50.606  26.585  33.480  0.00  0.00     0.267 A 
ATOM      3  C   UNL d   1     -52.035  26.487  33.350  0.00  0.00     0.108 A 
ATOM      4  C   UNL d   1     -51.924  24.835  33.437  0.00  0.00     0.111 A 
ATOM      5  N   UNL d   1     -50.675  27.411  33.435  0.00  0.00    -0.273 N 
ATOM      6  C   UNL d   1     -51.237  25.303  33.480  0.00  0.00     0.020 A 
ATOM      7  C   UNL d   1     -52.666  25.205  33.350  0.00  0.00     0.213 A 
ATOM      8  C   UNL d   1     -52.094  27.307  33.307  0.00  0.00     0.043 A 
ATOM      9  O   UNL d   1     -52.716  26.024  33.308  0.00  0.00    -0.287 OA
ATOM     10  C   UNL d   1     -51.414  27.769  33.349  0.00  0.00     0.069 A 
ATOM     11  C   UNL d   1     -51.875  24.015  33.479  0.00  0.00     0.105 C 
ATOM     12  N   UNL d   1     -51.809  23.191  33.523  0.00  0.00    -0.191 NA
ATOM     13  O   UNL d   1     -49.867  26.228  33.566  0.00  0.00    -0.267 OA
ATOM     14  N   UNL d   1     -53.350  24.744  33.307  0.00  0.00    -0.120 N 
ATOM     15  C   UNL d   1     -51.469  28.597  33.306  0.00  0.00     0.019 C 
ENDROOT
BRANCH   6  16
ATOM     16  C   UNL d   1     -50.501  24.938  33.566  0.00  0.00     0.001 A 
ATOM     17  C   UNL d   1     -49.858  25.362  33.851  0.00  0.00     0.002 A 
ATOM     18  C   UNL d   1     -49.125  24.994  33.936  0.00  0.00     0.024 A 
ATOM     19  C   UNL d   1     -49.041  24.200  33.733  0.00  0.00     0.094 A 
ATOM     20  C   UNL d   1     -49.692  23.768  33.442  0.00  0.00     0.024 A 
ATOM     21  C   UNL d   1     -50.420  24.146  33.362  0.00  0.00     0.002 A 
BRANCH  19  22
ATOM     22  O   UNL d   1     -48.309  23.828  33.816  0.00  0.00    -0.328 OA
ATOM     23  C   UNL d   1     -48.113  23.189  33.334  0.00  0.00     0.181 C 
ENDBRANCH  19  22
ENDBRANCH   6  16
BRANCH   5  24
ATOM     24  C   UNL d   1     -49.989  27.880  33.478  0.00  0.00     0.083 C 
BRANCH  24  25
ATOM     25  C   UNL d   1     -49.657  28.083  34.211  0.00  0.00     0.021 A 
ATOM     26  C   UNL d   1     -48.996  27.686  34.499  0.00  0.00     0.022 A 
ATOM     27  C   UNL d   1     -48.676  27.898  35.228  0.00  0.00     0.099 A 
ATOM     28  N   UNL d   1     -49.013  28.503  35.669  0.00  0.00    -0.242 NA
ATOM     29  C   UNL d   1     -49.679  28.903  35.380  0.00  0.00     0.099 A 
ATOM     30  C   UNL d   1     -49.999  28.691  34.652  0.00  0.00     0.022 A 
ENDBRANCH  24  25
ENDBRANCH   5  24
TORSDOF 4
ENDMDL
