MODEL 1
REMARK VINA RESULT:     110.2      0.000      0.000
REMARK  6 active torsions:
REMARK  status: ('A' for Active; 'I' for Inactive)
REMARK    1  A    between atoms: S_13  and  C_3 
REMARK    2  A    between atoms: C_21  and  C_4 
REMARK       I    between atoms: N_7  and  C_10 
REMARK    3  A    between atoms: C_10  and  C_20 
REMARK    4  A    between atoms: C_20  and  S_13 
REMARK    5  A    between atoms: O_24  and  C_16 
REMARK    6  A    between atoms: O_25  and  C_17 
ROOT
ATOM      1  N   UNL d   1     -52.304  25.952  37.421  0.00  0.00    -0.272 N 
ATOM      2  C   UNL d   1     -52.877  25.418  37.089  0.00  0.00     0.271 C 
ATOM      3  C   UNL d   1     -51.999  27.078  38.230  0.00  0.00     0.020 A 
ATOM      4  C   UNL d   1     -52.552  26.566  37.913  0.00  0.00     0.083 A 
ATOM      5  C   UNL d   1     -51.214  26.984  38.065  0.00  0.00     0.005 A 
ATOM      6  C   UNL d   1     -52.244  27.700  38.727  0.00  0.00     0.028 A 
ATOM      7  C   UNL d   1     -51.689  28.219  39.049  0.00  0.00     0.116 A 
ATOM      8  C   UNL d   1     -50.905  28.125  38.884  0.00  0.00     0.116 A 
ATOM      9  C   UNL d   1     -50.649  27.508  38.390  0.00  0.00     0.026 A 
ATOM     10  C   UNL d   1     -51.520  25.858  37.256  0.00  0.00     0.083 A 
ATOM     11  O   UNL d   1     -53.678  25.521  37.264  0.00  0.00    -0.266 OA
ATOM     12  C   UNL d   1     -50.956  26.375  37.576  0.00  0.00     0.019 A 
ENDROOT
BRANCH   2  13
ATOM     13  C   UNL d   1     -52.628  24.803  36.598  0.00  0.00     0.099 C 
BRANCH  13  14
ATOM     14  S   UNL d   1     -52.771  24.847  35.792  0.00  0.00    -0.043 SA
BRANCH  14  15
ATOM     15  C   UNL d   1     -53.177  24.225  35.405  0.00  0.00     0.202 A 
ATOM     16  N   UNL d   1     -53.114  24.050  34.622  0.00  0.00    -0.263 N 
ATOM     17  C   UNL d   1     -53.601  23.407  34.479  0.00  0.00     0.202 A 
ATOM     18  C   UNL d   1     -52.756  24.258  33.907  0.00  0.00     0.074 A 
ATOM     19  N   UNL d   1     -53.961  23.191  35.177  0.00  0.00    -0.121 NA
ATOM     20  S   UNL d   1     -53.548  23.213  33.675  0.00  0.00    -0.046 SA
ATOM     21  N   UNL d   1     -53.693  23.704  35.752  0.00  0.00    -0.121 NA
ATOM     22  C   UNL d   1     -53.022  23.742  33.320  0.00  0.00     0.056 A 
BRANCH  18  23
ATOM     23  C   UNL d   1     -52.227  24.873  33.805  0.00  0.00     0.017 A 
ATOM     24  C   UNL d   1     -51.409  24.732  33.897  0.00  0.00     0.002 A 
ATOM     25  C   UNL d   1     -50.891  25.345  33.794  0.00  0.00     0.000 A 
ATOM     26  C   UNL d   1     -51.144  26.101  33.603  0.00  0.00     0.000 A 
ATOM     27  C   UNL d   1     -51.965  26.230  33.514  0.00  0.00     0.000 A 
ATOM     28  C   UNL d   1     -52.487  25.619  33.616  0.00  0.00     0.002 A 
ENDBRANCH  18  23
ENDBRANCH  14  15
ENDBRANCH  13  14
ENDBRANCH   2  13
BRANCH   7  29
ATOM     29  O   UNL d   1     -51.951  28.829  39.539  0.00  0.00    -0.326 OA
ATOM     30  C   UNL d   1     -52.581  29.327  39.280  0.00  0.00     0.181 C 
ENDBRANCH   7  29
BRANCH   8  31
ATOM     31  O   UNL d   1     -50.343  28.636  39.199  0.00  0.00    -0.326 OA
ATOM     32  C   UNL d   1     -49.675  28.837  38.737  0.00  0.00     0.181 C 
ENDBRANCH   8  31
TORSDOF 6
ENDMDL
MODEL 2
REMARK VINA RESULT:     110.2      4.294      6.991
REMARK  6 active torsions:
REMARK  status: ('A' for Active; 'I' for Inactive)
REMARK    1  A    between atoms: S_13  and  C_3 
REMARK    2  A    between atoms: C_21  and  C_4 
REMARK       I    between atoms: N_7  and  C_10 
REMARK    3  A    between atoms: C_10  and  C_20 
REMARK    4  A    between atoms: C_20  and  S_13 
REMARK    5  A    between atoms: O_24  and  C_16 
REMARK    6  A    between atoms: O_25  and  C_17 
ROOT
ATOM      1  N   UNL d   1     -49.993  27.488  33.559  0.00  0.00    -0.272 N 
ATOM      2  C   UNL d   1     -49.340  28.031  33.617  0.00  0.00     0.271 C 
ATOM      3  C   UNL d   1     -50.480  26.157  33.472  0.00  0.00     0.020 A 
ATOM      4  C   UNL d   1     -49.850  26.676  33.527  0.00  0.00     0.083 A 
ATOM      5  C   UNL d   1     -51.237  26.436  33.449  0.00  0.00     0.005 A 
ATOM      6  C   UNL d   1     -50.341  25.337  33.440  0.00  0.00     0.028 A 
ATOM      7  C   UNL d   1     -50.974  24.810  33.384  0.00  0.00     0.116 A 
ATOM      8  C   UNL d   1     -51.731  25.089  33.361  0.00  0.00     0.116 A 
ATOM      9  C   UNL d   1     -51.881  25.904  33.393  0.00  0.00     0.026 A 
ATOM     10  C   UNL d   1     -50.750  27.767  33.536  0.00  0.00     0.083 A 
ATOM     11  O   UNL d   1     -48.568  27.736  33.640  0.00  0.00    -0.266 OA
ATOM     12  C   UNL d   1     -51.391  27.244  33.480  0.00  0.00     0.019 A 
ENDROOT
BRANCH   2  13
ATOM     13  C   UNL d   1     -49.483  28.843  33.648  0.00  0.00     0.099 C 
BRANCH  13  14
ATOM     14  S   UNL d   1     -48.925  29.338  33.986  0.00  0.00    -0.043 SA
BRANCH  14  15
ATOM     15  C   UNL d   1     -48.971  30.165  33.863  0.00  0.00     0.202 A 
ATOM     16  N   UNL d   1     -48.529  30.715  34.252  0.00  0.00    -0.263 N 
ATOM     17  C   UNL d   1     -48.750  31.449  33.963  0.00  0.00     0.202 A 
ATOM     18  C   UNL d   1     -47.945  30.835  34.823  0.00  0.00     0.074 A 
ATOM     19  N   UNL d   1     -49.327  31.345  33.397  0.00  0.00    -0.121 NA
ATOM     20  S   UNL d   1     -48.304  32.028  34.353  0.00  0.00    -0.046 SA
ATOM     21  N   UNL d   1     -49.461  30.543  33.338  0.00  0.00    -0.121 NA
ATOM     22  C   UNL d   1     -47.804  31.646  34.888  0.00  0.00     0.056 A 
BRANCH  18  23
ATOM     23  C   UNL d   1     -47.573  30.245  35.250  0.00  0.00     0.017 A 
ATOM     24  C   UNL d   1     -46.838  29.948  34.986  0.00  0.00     0.002 A 
ATOM     25  C   UNL d   1     -46.475  29.364  35.413  0.00  0.00     0.000 A 
ATOM     26  C   UNL d   1     -46.807  29.055  36.096  0.00  0.00     0.000 A 
ATOM     27  C   UNL d   1     -47.543  29.359  36.349  0.00  0.00     0.000 A 
ATOM     28  C   UNL d   1     -47.910  29.944  35.925  0.00  0.00     0.002 A 
ENDBRANCH  18  23
ENDBRANCH  14  15
ENDBRANCH  13  14
ENDBRANCH   2  13
BRANCH   7  29
ATOM     29  O   UNL d   1     -50.817  24.001  33.353  0.00  0.00    -0.326 OA
ATOM     30  C   UNL d   1     -51.325  23.463  33.759  0.00  0.00     0.181 C 
ENDBRANCH   7  29
BRANCH   8  31
ATOM     31  O   UNL d   1     -52.369  24.573  33.305  0.00  0.00    -0.326 OA
ATOM     32  C   UNL d   1     -53.129  24.845  33.526  0.00  0.00     0.181 C 
ENDBRANCH   8  31
TORSDOF 6
ENDMDL
MODEL 3
REMARK VINA RESULT:     111.6      4.116      5.412
REMARK  6 active torsions:
REMARK  status: ('A' for Active; 'I' for Inactive)
REMARK    1  A    between atoms: S_13  and  C_3 
REMARK    2  A    between atoms: C_21  and  C_4 
REMARK       I    between atoms: N_7  and  C_10 
REMARK    3  A    between atoms: C_10  and  C_20 
REMARK    4  A    between atoms: C_20  and  S_13 
REMARK    5  A    between atoms: O_24  and  C_16 
REMARK    6  A    between atoms: O_25  and  C_17 
ROOT
ATOM      1  N   UNL d   1     -48.347  29.436  35.043  0.00  0.00    -0.272 N 
ATOM      2  C   UNL d   1     -48.791  28.735  34.856  0.00  0.00     0.271 C 
ATOM      3  C   UNL d   1     -47.899  30.737  34.692  0.00  0.00     0.020 A 
ATOM      4  C   UNL d   1     -48.326  30.064  34.509  0.00  0.00     0.083 A 
ATOM      5  C   UNL d   1     -47.499  30.788  35.391  0.00  0.00     0.005 A 
ATOM      6  C   UNL d   1     -47.875  31.373  34.155  0.00  0.00     0.028 A 
ATOM      7  C   UNL d   1     -47.444  32.054  34.336  0.00  0.00     0.116 A 
ATOM      8  C   UNL d   1     -47.044  32.105  35.036  0.00  0.00     0.116 A 
ATOM      9  C   UNL d   1     -47.061  31.477  35.578  0.00  0.00     0.026 A 
ATOM     10  C   UNL d   1     -47.948  29.487  35.743  0.00  0.00     0.083 A 
ATOM     11  O   UNL d   1     -49.198  28.691  34.138  0.00  0.00    -0.266 OA
ATOM     12  C   UNL d   1     -47.513  30.168  35.932  0.00  0.00     0.019 A 
ENDROOT
BRANCH   2  13
ATOM     13  C   UNL d   1     -48.812  28.107  35.392  0.00  0.00     0.099 C 
BRANCH  13  14
ATOM     14  S   UNL d   1     -49.451  27.596  35.389  0.00  0.00    -0.043 SA
BRANCH  14  15
ATOM     15  C   UNL d   1     -49.843  27.413  36.106  0.00  0.00     0.202 A 
ATOM     16  N   UNL d   1     -50.509  26.963  36.166  0.00  0.00    -0.263 N 
ATOM     17  C   UNL d   1     -50.703  26.926  36.962  0.00  0.00     0.202 A 
ATOM     18  C   UNL d   1     -51.072  26.526  35.750  0.00  0.00     0.074 A 
ATOM     19  N   UNL d   1     -50.154  27.354  37.386  0.00  0.00    -0.121 NA
ATOM     20  S   UNL d   1     -51.387  26.466  37.043  0.00  0.00    -0.046 SA
ATOM     21  N   UNL d   1     -49.620  27.655  36.847  0.00  0.00    -0.121 NA
ATOM     22  C   UNL d   1     -51.617  26.218  36.289  0.00  0.00     0.056 A 
BRANCH  18  23
ATOM     23  C   UNL d   1     -51.084  26.421  34.939  0.00  0.00     0.017 A 
ATOM     24  C   UNL d   1     -50.544  25.890  34.586  0.00  0.00     0.002 A 
ATOM     25  C   UNL d   1     -50.560  25.791  33.783  0.00  0.00     0.000 A 
ATOM     26  C   UNL d   1     -51.091  26.195  33.306  0.00  0.00     0.000 A 
ATOM     27  C   UNL d   1     -51.626  26.723  33.670  0.00  0.00     0.000 A 
ATOM     28  C   UNL d   1     -51.613  26.826  34.474  0.00  0.00     0.002 A 
ENDBRANCH  18  23
ENDBRANCH  14  15
ENDBRANCH  13  14
ENDBRANCH   2  13
BRANCH   7  29
ATOM     29  O   UNL d   1     -47.432  32.674  33.793  0.00  0.00    -0.326 OA
ATOM     30  C   UNL d   1     -48.155  33.047  33.572  0.00  0.00     0.181 C 
ENDBRANCH   7  29
BRANCH   8  31
ATOM     31  O   UNL d   1     -46.612  32.778  35.227  0.00  0.00    -0.326 OA
ATOM     32  C   UNL d   1     -46.500  32.971  36.033  0.00  0.00     0.181 C 
ENDBRANCH   8  31
TORSDOF 6
ENDMDL
