MODEL 1
REMARK VINA RESULT:      56.5      0.000      0.000
REMARK  4 active torsions:
REMARK  status: ('A' for Active; 'I' for Inactive)
REMARK    1  A    between atoms: S_6  and  C_1 
REMARK    2  A    between atoms: C_19  and  S_6 
REMARK    3  A    between atoms: C_7  and  C_19 
REMARK       I    between atoms: N_10  and  C_7 
REMARK    4  A    between atoms: C_14  and  N_10 
ROOT
ATOM      1  C   UNL d   1     -49.653  27.926  34.099  0.00  0.00     0.286 C 
ATOM      2  N   UNL d   1     -49.248  28.615  33.914  0.00  0.00    -0.207 NA
ATOM      3  O   UNL d   1     -49.454  27.509  34.785  0.00  0.00    -0.265 OA
ENDROOT
BRANCH   1   4
ATOM      4  C   UNL d   1     -50.249  27.651  33.609  0.00  0.00     0.099 C 
BRANCH   4   5
ATOM      5  S   UNL d   1     -50.260  26.867  33.372  0.00  0.00    -0.062 SA
BRANCH   5   6
ATOM      6  C   UNL d   1     -50.971  26.448  33.351  0.00  0.00     0.114 A 
ATOM      7  C   UNL d   1     -50.967  25.626  33.351  0.00  0.00     0.042 A 
ATOM      8  C   UNL d   1     -51.679  25.206  33.329  0.00  0.00     0.085 A 
ATOM      9  C   UNL d   1     -50.248  25.221  33.373  0.00  0.00     0.004 A 
ATOM     10  C   UNL d   1     -51.672  24.381  33.330  0.00  0.00     0.019 A 
ATOM     11  N   UNL d   1     -52.395  25.607  33.307  0.00  0.00    -0.224 NA
ATOM     12  C   UNL d   1     -50.954  23.976  33.352  0.00  0.00     0.002 A 
ATOM     13  C   UNL d   1     -50.242  24.396  33.373  0.00  0.00     0.000 A 
ATOM     14  C   UNL d   1     -52.402  26.432  33.307  0.00  0.00     0.200 A 
ATOM     15  N   UNL d   1     -51.691  26.852  33.329  0.00  0.00    -0.217 NA
ENDBRANCH   5   6
ENDBRANCH   4   5
ENDBRANCH   1   4
BRANCH   2  16
ATOM     16  C   UNL d   1     -48.649  28.894  34.405  0.00  0.00     0.087 A 
ATOM     17  C   UNL d   1     -48.696  29.654  34.710  0.00  0.00     0.045 A 
ATOM     18  C   UNL d   1     -48.095  29.934  35.202  0.00  0.00     0.121 A 
ATOM     19  O   UNL d   1     -47.993  30.662  35.584  0.00  0.00    -0.299 OA
ATOM     20  C   UNL d   1     -47.454  29.452  35.384  0.00  0.00     0.119 A 
ATOM     21  C   UNL d   1     -47.286  30.620  36.000  0.00  0.00     0.304 A 
ATOM     22  O   UNL d   1     -46.949  29.876  35.880  0.00  0.00    -0.300 OA
ATOM     23  C   UNL d   1     -47.417  28.690  35.072  0.00  0.00     0.028 A 
ATOM     24  C   UNL d   1     -48.009  28.411  34.586  0.00  0.00     0.021 A 
ENDBRANCH   2  16
TORSDOF 4
ENDMDL
MODEL 2
REMARK VINA RESULT:      56.7      1.393      2.114
REMARK  4 active torsions:
REMARK  status: ('A' for Active; 'I' for Inactive)
REMARK    1  A    between atoms: S_6  and  C_1 
REMARK    2  A    between atoms: C_19  and  S_6 
REMARK    3  A    between atoms: C_7  and  C_19 
REMARK       I    between atoms: N_10  and  C_7 
REMARK    4  A    between atoms: C_14  and  N_10 
ROOT
ATOM      1  C   UNL d   1     -50.783  26.708  33.803  0.00  0.00     0.286 C 
ATOM      2  N   UNL d   1     -50.040  26.941  33.542  0.00  0.00    -0.207 NA
ATOM      3  O   UNL d   1     -51.031  26.922  34.562  0.00  0.00    -0.265 OA
ENDROOT
BRANCH   1   4
ATOM      4  C   UNL d   1     -51.274  26.268  33.318  0.00  0.00     0.099 C 
BRANCH   4   5
ATOM      5  S   UNL d   1     -51.837  25.770  33.643  0.00  0.00    -0.062 SA
BRANCH   5   6
ATOM      6  C   UNL d   1     -51.767  24.951  33.560  0.00  0.00     0.114 A 
ATOM      7  C   UNL d   1     -52.440  24.485  33.479  0.00  0.00     0.042 A 
ATOM      8  C   UNL d   1     -52.370  23.665  33.396  0.00  0.00     0.085 A 
ATOM      9  C   UNL d   1     -53.185  24.839  33.482  0.00  0.00     0.004 A 
ATOM     10  C   UNL d   1     -53.047  23.200  33.315  0.00  0.00     0.019 A 
ATOM     11  N   UNL d   1     -51.629  23.311  33.393  0.00  0.00    -0.224 NA
ATOM     12  C   UNL d   1     -53.792  23.553  33.317  0.00  0.00     0.002 A 
ATOM     13  C   UNL d   1     -53.861  24.373  33.401  0.00  0.00     0.000 A 
ATOM     14  C   UNL d   1     -50.953  23.777  33.474  0.00  0.00     0.200 A 
ATOM     15  N   UNL d   1     -51.022  24.597  33.558  0.00  0.00    -0.217 NA
ENDBRANCH   5   6
ENDBRANCH   4   5
ENDBRANCH   1   4
BRANCH   2  16
ATOM     16  C   UNL d   1     -49.545  27.384  34.028  0.00  0.00     0.087 A 
ATOM     17  C   UNL d   1     -49.495  28.196  33.923  0.00  0.00     0.045 A 
ATOM     18  C   UNL d   1     -48.998  28.641  34.410  0.00  0.00     0.121 A 
ATOM     19  O   UNL d   1     -48.837  29.453  34.433  0.00  0.00    -0.299 OA
ATOM     20  C   UNL d   1     -48.556  28.269  34.995  0.00  0.00     0.119 A 
ATOM     21  C   UNL d   1     -48.294  29.574  35.038  0.00  0.00     0.304 A 
ATOM     22  O   UNL d   1     -48.118  28.847  35.388  0.00  0.00    -0.300 OA
ATOM     23  C   UNL d   1     -48.614  27.453  35.092  0.00  0.00     0.028 A 
ATOM     24  C   UNL d   1     -49.103  27.011  34.613  0.00  0.00     0.021 A 
ENDBRANCH   2  16
TORSDOF 4
ENDMDL
MODEL 3
REMARK VINA RESULT:      57.3      1.660      5.619
REMARK  4 active torsions:
REMARK  status: ('A' for Active; 'I' for Inactive)
REMARK    1  A    between atoms: S_6  and  C_1 
REMARK    2  A    between atoms: C_19  and  S_6 
REMARK    3  A    between atoms: C_7  and  C_19 
REMARK       I    between atoms: N_10  and  C_7 
REMARK    4  A    between atoms: C_14  and  N_10 
ROOT
ATOM      1  C   UNL d   1     -49.075  27.758  34.425  0.00  0.00     0.286 C 
ATOM      2  N   UNL d   1     -49.374  27.589  33.680  0.00  0.00    -0.207 NA
ATOM      3  O   UNL d   1     -49.392  27.374  35.086  0.00  0.00    -0.265 OA
ENDROOT
BRANCH   1   4
ATOM      4  C   UNL d   1     -48.469  28.301  34.517  0.00  0.00     0.099 C 
BRANCH   4   5
ATOM      5  S   UNL d   1     -48.629  29.056  34.789  0.00  0.00    -0.062 SA
BRANCH   5   6
ATOM      6  C   UNL d   1     -48.051  29.485  35.195  0.00  0.00     0.114 A 
ATOM      7  C   UNL d   1     -47.951  30.288  35.048  0.00  0.00     0.042 A 
ATOM      8  C   UNL d   1     -47.373  30.717  35.454  0.00  0.00     0.085 A 
ATOM      9  C   UNL d   1     -48.432  30.663  34.492  0.00  0.00     0.004 A 
ATOM     10  C   UNL d   1     -47.275  31.522  35.304  0.00  0.00     0.019 A 
ATOM     11  N   UNL d   1     -46.894  30.344  36.007  0.00  0.00    -0.224 NA
ATOM     12  C   UNL d   1     -47.755  31.898  34.749  0.00  0.00     0.002 A 
ATOM     13  C   UNL d   1     -48.333  31.469  34.342  0.00  0.00     0.000 A 
ATOM     14  C   UNL d   1     -46.992  29.539  36.157  0.00  0.00     0.200 A 
ATOM     15  N   UNL d   1     -47.571  29.109  35.751  0.00  0.00    -0.217 NA
ENDBRANCH   5   6
ENDBRANCH   4   5
ENDBRANCH   1   4
BRANCH   2  16
ATOM     16  C   UNL d   1     -49.983  27.044  33.586  0.00  0.00     0.087 A 
ATOM     17  C   UNL d   1     -49.808  26.243  33.557  0.00  0.00     0.045 A 
ATOM     18  C   UNL d   1     -50.418  25.694  33.463  0.00  0.00     0.121 A 
ATOM     19  O   UNL d   1     -50.410  24.867  33.416  0.00  0.00    -0.299 OA
ATOM     20  C   UNL d   1     -51.196  25.953  33.398  0.00  0.00     0.119 A 
ATOM     21  C   UNL d   1     -51.189  24.624  33.322  0.00  0.00     0.304 A 
ATOM     22  O   UNL d   1     -51.678  25.289  33.310  0.00  0.00    -0.300 OA
ATOM     23  C   UNL d   1     -51.361  26.759  33.429  0.00  0.00     0.028 A 
ATOM     24  C   UNL d   1     -50.760  27.303  33.522  0.00  0.00     0.021 A 
ENDBRANCH   2  16
TORSDOF 4
ENDMDL
MODEL 4
REMARK VINA RESULT:      57.7      1.090      1.600
REMARK  4 active torsions:
REMARK  status: ('A' for Active; 'I' for Inactive)
REMARK    1  A    between atoms: S_6  and  C_1 
REMARK    2  A    between atoms: C_19  and  S_6 
REMARK    3  A    between atoms: C_7  and  C_19 
REMARK       I    between atoms: N_10  and  C_7 
REMARK    4  A    between atoms: C_14  and  N_10 
ROOT
ATOM      1  C   UNL d   1     -48.780  28.151  34.104  0.00  0.00     0.286 C 
ATOM      2  N   UNL d   1     -48.063  28.297  34.476  0.00  0.00    -0.207 NA
ATOM      3  O   UNL d   1     -49.366  28.735  34.108  0.00  0.00    -0.265 OA
ENDROOT
BRANCH   1   4
ATOM      4  C   UNL d   1     -48.916  27.435  33.731  0.00  0.00     0.099 C 
BRANCH   4   5
ATOM      5  S   UNL d   1     -49.671  27.233  33.486  0.00  0.00    -0.062 SA
BRANCH   5   6
ATOM      6  C   UNL d   1     -49.893  26.440  33.427  0.00  0.00     0.114 A 
ATOM      7  C   UNL d   1     -50.688  26.234  33.396  0.00  0.00     0.042 A 
ATOM      8  C   UNL d   1     -50.910  25.440  33.337  0.00  0.00     0.085 A 
ATOM      9  C   UNL d   1     -51.264  26.824  33.425  0.00  0.00     0.004 A 
ATOM     10  C   UNL d   1     -51.708  25.235  33.306  0.00  0.00     0.019 A 
ATOM     11  N   UNL d   1     -50.337  24.851  33.308  0.00  0.00    -0.224 NA
ATOM     12  C   UNL d   1     -52.285  25.824  33.335  0.00  0.00     0.002 A 
ATOM     13  C   UNL d   1     -52.063  26.619  33.395  0.00  0.00     0.000 A 
ATOM     14  C   UNL d   1     -49.539  25.056  33.338  0.00  0.00     0.200 A 
ATOM     15  N   UNL d   1     -49.316  25.850  33.398  0.00  0.00    -0.217 NA
ENDBRANCH   5   6
ENDBRANCH   4   5
ENDBRANCH   1   4
BRANCH   2  16
ATOM     16  C   UNL d   1     -47.925  29.016  34.851  0.00  0.00     0.087 A 
ATOM     17  C   UNL d   1     -47.808  29.692  34.401  0.00  0.00     0.045 A 
ATOM     18  C   UNL d   1     -47.669  30.414  34.777  0.00  0.00     0.121 A 
ATOM     19  O   UNL d   1     -47.535  31.174  34.474  0.00  0.00    -0.299 OA
ATOM     20  C   UNL d   1     -47.647  30.453  35.598  0.00  0.00     0.119 A 
ATOM     21  C   UNL d   1     -47.431  31.675  35.116  0.00  0.00     0.304 A 
ATOM     22  O   UNL d   1     -47.500  31.236  35.812  0.00  0.00    -0.300 OA
ATOM     23  C   UNL d   1     -47.765  29.768  36.040  0.00  0.00     0.028 A 
ATOM     24  C   UNL d   1     -47.903  29.054  35.672  0.00  0.00     0.021 A 
ENDBRANCH   2  16
TORSDOF 4
ENDMDL
