MODEL 1
REMARK VINA RESULT:      15.9      0.000      0.000
REMARK  4 active torsions:
REMARK  status: ('A' for Active; 'I' for Inactive)
REMARK    1  A    between atoms: N_3  and  C_1 
REMARK       I    between atoms: C_7  and  N_3 
REMARK    2  A    between atoms: C_11  and  C_7 
REMARK    3  A    between atoms: C_12  and  C_11 
REMARK    4  A    between atoms: C_13  and  C_12 
ROOT
ATOM      1  C   UNL d   1      14.458  12.065  -1.606  0.00  0.00     0.124 A 
ATOM      2  C   UNL d   1      14.309  12.147  -0.796  0.00  0.00     0.093 A 
ATOM      3  C   UNL d   1      13.607  11.960  -0.404  0.00  0.00     0.103 C 
ATOM      4  S   UNL d   1      15.227  12.318  -1.747  0.00  0.00    -0.067 SA
ATOM      5  N   UNL d   1      12.937  11.784  -0.015  0.00  0.00    -0.191 NA
ATOM      6  C   UNL d   1      14.996  12.455  -0.438  0.00  0.00     0.019 A 
ATOM      7  C   UNL d   1      15.562  12.559  -1.032  0.00  0.00     0.038 A 
ENDROOT
BRANCH   1   8
ATOM      8  N   UNL d   1      13.928  11.779  -2.169  0.00  0.00    -0.201 NA
ATOM      9  C   UNL d   1      13.604  12.297  -2.726  0.00  0.00     0.280 C 
ATOM     10  O   UNL d   1      13.809  13.094  -2.719  0.00  0.00    -0.265 OA
BRANCH   9  11
ATOM     11  C   UNL d   1      13.072  12.008  -3.291  0.00  0.00     0.062 C 
BRANCH  11  12
ATOM     12  C   UNL d   1      12.807  12.496  -3.899  0.00  0.00     0.005 C 
BRANCH  12  13
ATOM     13  C   UNL d   1      13.178  12.472  -4.649  0.00  0.00     0.000 A 
ATOM     14  C   UNL d   1      13.616  13.118  -4.919  0.00  0.00     0.000 A 
ATOM     15  C   UNL d   1      13.977  13.091  -5.651  0.00  0.00     0.000 A 
ATOM     16  C   UNL d   1      13.906  12.425  -6.121  0.00  0.00     0.000 A 
ATOM     17  C   UNL d   1      13.469  11.779  -5.854  0.00  0.00     0.000 A 
ATOM     18  C   UNL d   1      13.108  11.802  -5.124  0.00  0.00     0.000 A 
ENDBRANCH  12  13
ENDBRANCH  11  12
ENDBRANCH   9  11
ENDBRANCH   1   8
TORSDOF 4
ENDMDL
MODEL 2
REMARK VINA RESULT:      16.1      1.487      4.125
REMARK  4 active torsions:
REMARK  status: ('A' for Active; 'I' for Inactive)
REMARK    1  A    between atoms: N_3  and  C_1 
REMARK       I    between atoms: C_7  and  N_3 
REMARK    2  A    between atoms: C_11  and  C_7 
REMARK    3  A    between atoms: C_12  and  C_11 
REMARK    4  A    between atoms: C_13  and  C_12 
ROOT
ATOM      1  C   UNL d   1      13.002  12.748  -4.151  0.00  0.00     0.124 A 
ATOM      2  C   UNL d   1      13.219  13.475  -4.481  0.00  0.00     0.093 A 
ATOM      3  C   UNL d   1      13.467  14.147  -4.071  0.00  0.00     0.103 C 
ATOM      4  S   UNL d   1      12.796  12.244  -4.766  0.00  0.00    -0.067 SA
ATOM      5  N   UNL d   1      13.708  14.800  -3.688  0.00  0.00    -0.191 NA
ATOM      6  C   UNL d   1      13.143  13.414  -5.310  0.00  0.00     0.019 A 
ATOM      7  C   UNL d   1      12.881  12.649  -5.480  0.00  0.00     0.038 A 
ENDROOT
BRANCH   1   8
ATOM      8  N   UNL d   1      12.996  12.564  -3.347  0.00  0.00    -0.201 NA
ATOM      9  C   UNL d   1      13.590  12.083  -3.033  0.00  0.00     0.280 C 
ATOM     10  O   UNL d   1      14.186  11.789  -3.519  0.00  0.00    -0.265 OA
BRANCH   9  11
ATOM     11  C   UNL d   1      13.582  11.900  -2.225  0.00  0.00     0.062 C 
BRANCH  11  12
ATOM     12  C   UNL d   1      14.289  11.780  -1.820  0.00  0.00     0.005 C 
BRANCH  12  13
ATOM     13  C   UNL d   1      14.518  12.306  -1.211  0.00  0.00     0.000 A 
ATOM     14  C   UNL d   1      15.288  12.607  -1.188  0.00  0.00     0.000 A 
ATOM     15  C   UNL d   1      15.510  13.120  -0.592  0.00  0.00     0.000 A 
ATOM     16  C   UNL d   1      14.971  13.340  -0.016  0.00  0.00     0.000 A 
ATOM     17  C   UNL d   1      14.204  13.042  -0.038  0.00  0.00     0.000 A 
ATOM     18  C   UNL d   1      13.979  12.529  -0.630  0.00  0.00     0.000 A 
ENDBRANCH  12  13
ENDBRANCH  11  12
ENDBRANCH   9  11
ENDBRANCH   1   8
TORSDOF 4
ENDMDL
MODEL 3
REMARK VINA RESULT:      17.7      9.285     10.183
REMARK  4 active torsions:
REMARK  status: ('A' for Active; 'I' for Inactive)
REMARK    1  A    between atoms: N_3  and  C_1 
REMARK       I    between atoms: C_7  and  N_3 
REMARK    2  A    between atoms: C_11  and  C_7 
REMARK    3  A    between atoms: C_12  and  C_11 
REMARK    4  A    between atoms: C_13  and  C_12 
ROOT
ATOM      1  C   UNL d   1      23.574  12.971  -1.236  0.00  0.00     0.124 A 
ATOM      2  C   UNL d   1      23.112  13.464  -0.758  0.00  0.00     0.093 A 
ATOM      3  C   UNL d   1      22.377  13.786  -0.951  0.00  0.00     0.103 C 
ATOM      4  S   UNL d   1      24.258  12.786  -0.819  0.00  0.00    -0.067 SA
ATOM      5  N   UNL d   1      21.669  14.103  -1.123  0.00  0.00    -0.191 NA
ATOM      6  C   UNL d   1      23.519  13.582  -0.040  0.00  0.00     0.019 A 
ATOM      7  C   UNL d   1      24.229  13.159  -0.083  0.00  0.00     0.038 A 
ENDROOT
BRANCH   1   8
ATOM      8  N   UNL d   1      23.381  12.713  -1.995  0.00  0.00    -0.201 NA
ATOM      9  C   UNL d   1      23.970  12.400  -2.482  0.00  0.00     0.280 C 
ATOM     10  O   UNL d   1      24.746  12.346  -2.213  0.00  0.00    -0.265 OA
BRANCH   9  11
ATOM     11  C   UNL d   1      23.774  12.141  -3.244  0.00  0.00     0.062 C 
BRANCH  11  12
ATOM     12  C   UNL d   1      24.367  11.942  -3.780  0.00  0.00     0.005 C 
BRANCH  12  13
ATOM     13  C   UNL d   1      24.497  12.415  -4.457  0.00  0.00     0.000 A 
ATOM     14  C   UNL d   1      24.616  13.230  -4.380  0.00  0.00     0.000 A 
ATOM     15  C   UNL d   1      24.743  13.690  -5.043  0.00  0.00     0.000 A 
ATOM     16  C   UNL d   1      24.754  13.347  -5.786  0.00  0.00     0.000 A 
ATOM     17  C   UNL d   1      24.636  12.536  -5.865  0.00  0.00     0.000 A 
ATOM     18  C   UNL d   1      24.509  12.073  -5.206  0.00  0.00     0.000 A 
ENDBRANCH  12  13
ENDBRANCH  11  12
ENDBRANCH   9  11
ENDBRANCH   1   8
TORSDOF 4
ENDMDL
