MODEL 1
REMARK VINA RESULT:      -5.7      0.000      0.000
REMARK  5 active torsions:
REMARK  status: ('A' for Active; 'I' for Inactive)
REMARK    1  A    between atoms: C_2  and  C_1 
REMARK       I    between atoms: N_3  and  C_1 
REMARK    2  A    between atoms: C_9  and  N_3 
REMARK    3  A    between atoms: N_8  and  C_6 
REMARK    4  A    between atoms: C_18  and  N_8 
REMARK    5  A    between atoms: C_19  and  N_8 
ROOT
ATOM      1  C   UNL d   1     -39.348  14.722  21.434  0.00  0.00     0.064 A 
ATOM      2  C   UNL d   1     -39.954  14.511  19.915  0.00  0.00     0.135 A 
ATOM      3  C   UNL d   1     -38.870  14.402  20.837  0.00  0.00     0.020 A 
ATOM      4  C   UNL d   1     -40.118  14.934  21.275  0.00  0.00     0.020 A 
ATOM      5  C   UNL d   1     -39.185  14.299  20.073  0.00  0.00     0.034 A 
ATOM      6  C   UNL d   1     -40.426  14.830  20.517  0.00  0.00     0.034 A 
ENDROOT
BRANCH   2   7
ATOM      7  N   UNL d   1     -40.251  14.405  19.162  0.00  0.00    -0.365 NA
ATOM      8  C   UNL d   1     -40.556  14.289  18.416  0.00  0.00     0.330 C 
ATOM      9  O   UNL d   1     -41.133  13.725  18.277  0.00  0.00    -0.251 OA
BRANCH   8  10
ATOM     10  C   UNL d   1     -40.277  14.749  17.783  0.00  0.00     0.090 A 
ATOM     11  C   UNL d   1     -39.631  14.500  17.330  0.00  0.00     0.016 A 
ATOM     12  C   UNL d   1     -39.357  14.946  16.712  0.00  0.00     0.054 A 
ATOM     13 BR   UNL d   1     -38.718  14.696  16.268  0.00  0.00    -0.048 Br
ATOM     14  C   UNL d   1     -39.719  15.648  16.530  0.00  0.00     0.106 A 
ATOM     15  N   UNL d   1     -40.360  15.914  16.964  0.00  0.00    -0.242 NA
ATOM     16  C   UNL d   1     -40.639  15.450  17.601  0.00  0.00     0.105 A 
ENDBRANCH   8  10
ENDBRANCH   2   7
BRANCH   1  17
ATOM     17  N   UNL d   1     -39.032  14.822  22.190  0.00  0.00    -0.304 N 
BRANCH  17  18
ATOM     18  C   UNL d   1     -38.660  14.204  22.569  0.00  0.00     0.080 C 
ATOM     19  C   UNL d   1     -38.791  14.072  23.368  0.00  0.00     0.021 C 
ENDBRANCH  17  18
BRANCH  17  20
ATOM     20  C   UNL d   1     -39.099  15.564  22.562  0.00  0.00     0.080 C 
ATOM     21  C   UNL d   1     -38.438  15.886  22.939  0.00  0.00     0.021 C 
ENDBRANCH  17  20
ENDBRANCH   1  17
TORSDOF 5
ENDMDL
MODEL 2
REMARK VINA RESULT:      -5.4      8.552      9.422
REMARK  5 active torsions:
REMARK  status: ('A' for Active; 'I' for Inactive)
REMARK    1  A    between atoms: C_2  and  C_1 
REMARK       I    between atoms: N_3  and  C_1 
REMARK    2  A    between atoms: C_9  and  N_3 
REMARK    3  A    between atoms: N_8  and  C_6 
REMARK    4  A    between atoms: C_18  and  N_8 
REMARK    5  A    between atoms: C_19  and  N_8 
ROOT
ATOM      1  C   UNL d   1     -46.406  12.600  22.975  0.00  0.00     0.064 A 
ATOM      2  C   UNL d   1     -47.439  13.858  22.712  0.00  0.00     0.135 A 
ATOM      3  C   UNL d   1     -46.567  13.138  23.585  0.00  0.00     0.020 A 
ATOM      4  C   UNL d   1     -46.754  12.687  22.245  0.00  0.00     0.020 A 
ATOM      5  C   UNL d   1     -47.091  13.770  23.442  0.00  0.00     0.034 A 
ATOM      6  C   UNL d   1     -47.272  13.315  22.108  0.00  0.00     0.034 A 
ENDROOT
BRANCH   2   7
ATOM      7  N   UNL d   1     -47.949  14.481  22.585  0.00  0.00    -0.365 NA
ATOM      8  C   UNL d   1     -48.448  15.112  22.453  0.00  0.00     0.330 C 
ATOM      9  O   UNL d   1     -48.169  15.814  22.136  0.00  0.00    -0.251 OA
BRANCH   8  10
ATOM     10  C   UNL d   1     -49.254  15.044  22.642  0.00  0.00     0.090 A 
ATOM     11  C   UNL d   1     -49.771  14.626  22.150  0.00  0.00     0.016 A 
ATOM     12  C   UNL d   1     -50.558  14.558  22.332  0.00  0.00     0.054 A 
ATOM     13 BR   UNL d   1     -51.064  14.144  21.842  0.00  0.00    -0.048 Br
ATOM     14  C   UNL d   1     -50.847  14.903  23.005  0.00  0.00     0.106 A 
ATOM     15  N   UNL d   1     -50.354  15.322  23.507  0.00  0.00    -0.242 NA
ATOM     16  C   UNL d   1     -49.543  15.390  23.315  0.00  0.00     0.105 A 
ENDBRANCH   8  10
ENDBRANCH   2   7
BRANCH   1  17
ATOM     17  N   UNL d   1     -45.886  11.975  23.121  0.00  0.00    -0.304 N 
BRANCH  17  18
ATOM     18  C   UNL d   1     -46.053  11.424  23.698  0.00  0.00     0.080 C 
ATOM     19  C   UNL d   1     -45.746  10.664  23.643  0.00  0.00     0.021 C 
ENDBRANCH  17  18
BRANCH  17  20
ATOM     20  C   UNL d   1     -45.189  11.913  22.670  0.00  0.00     0.080 C 
ATOM     21  C   UNL d   1     -44.565  11.454  22.955  0.00  0.00     0.021 C 
ENDBRANCH  17  20
ENDBRANCH   1  17
TORSDOF 5
ENDMDL
MODEL 3
REMARK VINA RESULT:      -4.5      8.183      9.372
REMARK  5 active torsions:
REMARK  status: ('A' for Active; 'I' for Inactive)
REMARK    1  A    between atoms: C_2  and  C_1 
REMARK       I    between atoms: N_3  and  C_1 
REMARK    2  A    between atoms: C_9  and  N_3 
REMARK    3  A    between atoms: N_8  and  C_6 
REMARK    4  A    between atoms: C_18  and  N_8 
REMARK    5  A    between atoms: C_19  and  N_8 
ROOT
ATOM      1  C   UNL d   1     -49.419  13.428  22.407  0.00  0.00     0.064 A 
ATOM      2  C   UNL d   1     -47.796  13.691  22.530  0.00  0.00     0.135 A 
ATOM      3  C   UNL d   1     -48.917  13.221  21.780  0.00  0.00     0.020 A 
ATOM      4  C   UNL d   1     -49.116  13.761  23.085  0.00  0.00     0.020 A 
ATOM      5  C   UNL d   1     -48.099  13.358  21.852  0.00  0.00     0.034 A 
ATOM      6  C   UNL d   1     -48.305  13.895  23.151  0.00  0.00     0.034 A 
ENDROOT
BRANCH   2   7
ATOM      7  N   UNL d   1     -46.993  13.820  22.586  0.00  0.00    -0.365 NA
ATOM      8  C   UNL d   1     -46.193  13.963  22.645  0.00  0.00     0.330 C 
ATOM      9  O   UNL d   1     -45.903  14.725  22.730  0.00  0.00    -0.251 OA
BRANCH   8  10
ATOM     10  C   UNL d   1     -45.659  13.327  22.616  0.00  0.00     0.090 A 
ATOM     11  C   UNL d   1     -45.038  13.319  22.069  0.00  0.00     0.016 A 
ATOM     12  C   UNL d   1     -44.516  12.700  22.040  0.00  0.00     0.054 A 
ATOM     13 BR   UNL d   1     -43.904  12.697  21.497  0.00  0.00    -0.048 Br
ATOM     14  C   UNL d   1     -44.599  12.078  22.551  0.00  0.00     0.106 A 
ATOM     15  N   UNL d   1     -45.206  12.064  23.101  0.00  0.00    -0.242 NA
ATOM     16  C   UNL d   1     -45.743  12.705  23.128  0.00  0.00     0.105 A 
ENDBRANCH   8  10
ENDBRANCH   2   7
BRANCH   1  17
ATOM     17  N   UNL d   1     -50.230  13.291  22.333  0.00  0.00    -0.304 N 
BRANCH  17  18
ATOM     18  C   UNL d   1     -50.735  13.895  22.123  0.00  0.00     0.080 C 
ATOM     19  C   UNL d   1     -51.064  13.915  21.372  0.00  0.00     0.021 C 
ENDBRANCH  17  18
BRANCH  17  20
ATOM     20  C   UNL d   1     -50.527  12.526  22.475  0.00  0.00     0.080 C 
ATOM     21  C   UNL d   1     -51.061  12.410  23.093  0.00  0.00     0.021 C 
ENDBRANCH  17  20
ENDBRANCH   1  17
TORSDOF 5
ENDMDL
MODEL 4
REMARK VINA RESULT:      -3.6      8.818     10.008
REMARK  5 active torsions:
REMARK  status: ('A' for Active; 'I' for Inactive)
REMARK    1  A    between atoms: C_2  and  C_1 
REMARK       I    between atoms: N_3  and  C_1 
REMARK    2  A    between atoms: C_9  and  N_3 
REMARK    3  A    between atoms: N_8  and  C_6 
REMARK    4  A    between atoms: C_18  and  N_8 
REMARK    5  A    between atoms: C_19  and  N_8 
ROOT
ATOM      1  C   UNL d   1     -49.301  14.372  22.956  0.00  0.00     0.064 A 
ATOM      2  C   UNL d   1     -47.866  13.580  23.132  0.00  0.00     0.135 A 
ATOM      3  C   UNL d   1     -48.601  14.716  22.674  0.00  0.00     0.020 A 
ATOM      4  C   UNL d   1     -49.286  13.644  23.320  0.00  0.00     0.020 A 
ATOM      5  C   UNL d   1     -47.881  14.308  22.767  0.00  0.00     0.034 A 
ATOM      6  C   UNL d   1     -48.570  13.244  23.411  0.00  0.00     0.034 A 
ENDROOT
BRANCH   2   7
ATOM      7  N   UNL d   1     -47.154  13.191  23.216  0.00  0.00    -0.365 NA
ATOM      8  C   UNL d   1     -46.436  12.816  23.299  0.00  0.00     0.330 C 
ATOM      9  O   UNL d   1     -45.732  13.232  23.254  0.00  0.00    -0.251 OA
BRANCH   8  10
ATOM     10  C   UNL d   1     -46.414  11.996  23.433  0.00  0.00     0.090 A 
ATOM     11  C   UNL d   1     -45.693  11.596  23.501  0.00  0.00     0.016 A 
ATOM     12  C   UNL d   1     -45.669  10.797  23.631  0.00  0.00     0.054 A 
ATOM     13 BR   UNL d   1     -44.953  10.407  23.698  0.00  0.00    -0.048 Br
ATOM     14  C   UNL d   1     -46.359  10.378  23.697  0.00  0.00     0.106 A 
ATOM     15  N   UNL d   1     -47.085  10.753  23.633  0.00  0.00    -0.242 NA
ATOM     16  C   UNL d   1     -47.105  11.578  23.498  0.00  0.00     0.105 A 
ENDBRANCH   8  10
ENDBRANCH   2   7
BRANCH   1  17
ATOM     17  N   UNL d   1     -50.013  14.780  22.862  0.00  0.00    -0.304 N 
BRANCH  17  18
ATOM     18  C   UNL d   1     -50.461  14.987  23.510  0.00  0.00     0.080 C 
ATOM     19  C   UNL d   1     -50.974  15.627  23.469  0.00  0.00     0.021 C 
ENDBRANCH  17  18
BRANCH  17  20
ATOM     20  C   UNL d   1     -50.269  14.977  22.094  0.00  0.00     0.080 C 
ATOM     21  C   UNL d   1     -51.007  14.713  21.836  0.00  0.00     0.021 C 
ENDBRANCH  17  20
ENDBRANCH   1  17
TORSDOF 5
ENDMDL
