MODEL 1
REMARK VINA RESULT:      -3.1      0.000      0.000
REMARK  3 active torsions:
REMARK  status: ('A' for Active; 'I' for Inactive)
REMARK    1  A    between atoms: C_2  and  C_1 
REMARK    2  A    between atoms: C_13  and  C_8 
REMARK    3  A    between atoms: O_23  and  C_20 
ROOT
ATOM      1  C   UNL d   1     -42.512-122.679 -50.285  0.00  0.00     0.106 A 
ATOM      2  C   UNL d   1     -43.353-122.752 -50.387  0.00  0.00     0.304 A 
ATOM      3  C   UNL d   1     -42.169-122.882 -49.565  0.00  0.00     0.011 A 
ATOM      4  C   UNL d   1     -42.632-123.147 -48.959  0.00  0.00     0.023 A 
ATOM      5  O   UNL d   1     -43.821-123.024 -49.764  0.00  0.00    -0.273 OA
ATOM      6  C   UNL d   1     -43.473-123.220 -49.060  0.00  0.00     0.103 A 
ATOM      7  C   UNL d   1     -42.289-123.349 -48.238  0.00  0.00     0.002 A 
ATOM      8  O   UNL d   1     -43.698-122.543 -51.129  0.00  0.00    -0.259 OA
ATOM      9  C   UNL d   1     -43.941-123.492 -48.437  0.00  0.00     0.025 A 
ATOM     10  C   UNL d   1     -42.754-123.622 -47.611  0.00  0.00     0.000 A 
ATOM     11  C   UNL d   1     -43.594-123.695 -47.712  0.00  0.00     0.002 A 
ATOM     12  C   UNL d   1     -41.468-123.271 -48.161  0.00  0.00     0.000 A 
ATOM     13  C   UNL d   1     -42.409-123.817 -46.911  0.00  0.00     0.000 A 
ATOM     14  C   UNL d   1     -41.123-123.475 -47.435  0.00  0.00     0.000 A 
ATOM     15  C   UNL d   1     -41.590-123.747 -46.812  0.00  0.00     0.000 A 
ENDROOT
BRANCH   1  16
ATOM     16  C   UNL d   1     -42.048-122.407 -50.912  0.00  0.00     0.210 A 
ATOM     17  O   UNL d   1     -42.194-122.656 -51.678  0.00  0.00    -0.268 OA
ATOM     18  C   UNL d   1     -41.653-122.299 -52.176  0.00  0.00     0.204 A 
ATOM     19  N   UNL d   1     -41.182-121.835 -51.708  0.00  0.00    -0.121 NA
ATOM     20  N   UNL d   1     -41.423-121.900 -50.933  0.00  0.00    -0.121 NA
BRANCH  18  21
ATOM     21  C   UNL d   1     -41.519-122.329 -52.995  0.00  0.00     0.043 A 
ATOM     22  C   UNL d   1     -41.258-123.024 -53.341  0.00  0.00     0.006 A 
ATOM     23  C   UNL d   1     -41.123-123.073 -54.133  0.00  0.00     0.024 A 
ATOM     24  C   UNL d   1     -41.258-122.385 -54.607  0.00  0.00     0.094 A 
ATOM     25  C   UNL d   1     -41.520-121.689 -54.257  0.00  0.00     0.024 A 
ATOM     26  C   UNL d   1     -41.649-121.668 -53.447  0.00  0.00     0.006 A 
BRANCH  24  27
ATOM     27  O   UNL d   1     -41.131-122.393 -55.423  0.00  0.00    -0.328 OA
ATOM     28  C   UNL d   1     -41.632-121.989 -55.924  0.00  0.00     0.181 C 
ENDBRANCH  24  27
ENDBRANCH  18  21
ENDBRANCH   1  16
TORSDOF 3
ENDMDL
