MODEL 1
REMARK VINA RESULT:      70.2      0.000      0.000
REMARK  5 active torsions:
REMARK  status: ('A' for Active; 'I' for Inactive)
REMARK    1  A    between atoms: C_7  and  C_1 
REMARK    2  A    between atoms: C_6  and  O_13 
REMARK    3  A    between atoms: C_12  and  C_6 
REMARK    4  A    between atoms: O_13  and  C_10 
REMARK    5  A    between atoms: C_28  and  C_14 
ROOT
ATOM      1  C   UNL d   1     -55.107-101.468 -39.945  0.00  0.00     0.064 A 
ATOM      2  C   UNL d   1     -55.092-101.555 -41.368  0.00  0.00     0.062 A 
ATOM      3  C   UNL d   1     -55.217-101.906 -40.633  0.00  0.00     0.199 A 
ATOM      4  C   UNL d   1     -54.871-100.679 -39.992  0.00  0.00     0.126 A 
ATOM      5  C   UNL d   1     -54.857-100.767 -41.414  0.00  0.00     0.105 A 
ATOM      6  O   UNL d   1     -54.746-100.328 -40.725  0.00  0.00    -0.305 OA
ATOM      7  C   UNL d   1     -55.203-101.994 -42.055  0.00  0.00     0.007 A 
ATOM      8  C   UNL d   1     -54.843-100.854 -42.840  0.00  0.00     0.105 A 
ATOM      9  C   UNL d   1     -54.732-100.415 -42.148  0.00  0.00     0.050 A 
ATOM     10  C   UNL d   1     -55.078-101.643 -42.794  0.00  0.00     0.023 A 
ATOM     11  O   UNL d   1     -55.453-102.696 -40.587  0.00  0.00    -0.286 OA
ENDROOT
BRANCH   1  12
ATOM     12  C   UNL d   1     -55.232-101.819 -39.211  0.00  0.00     0.007 A 
ATOM     13  C   UNL d   1     -54.916-101.473 -38.520  0.00  0.00     0.027 A 
ATOM     14  C   UNL d   1     -55.038-101.818 -37.791  0.00  0.00     0.123 A 
ATOM     15  O   UNL d   1     -54.724-101.472 -37.113  0.00  0.00    -0.301 OA
ATOM     16  C   UNL d   1     -55.482-102.524 -37.730  0.00  0.00     0.123 A 
ATOM     17  C   UNL d   1     -54.848-101.823 -36.375  0.00  0.00     0.149 A 
ATOM     18  C   UNL d   1     -55.286-102.520 -36.311  0.00  0.00     0.149 A 
ATOM     19  O   UNL d   1     -55.605-102.872 -36.996  0.00  0.00    -0.301 OA
ATOM     20  C   UNL d   1     -55.798-102.870 -38.421  0.00  0.00     0.027 A 
ATOM     21  C   UNL d   1     -55.672-102.519 -39.155  0.00  0.00     0.002 A 
ENDBRANCH   1  12
BRANCH  10  22
ATOM     22  C   UNL d   1     -55.189-102.082 -43.490  0.00  0.00     0.002 C 
ATOM     23  C   UNL d   1     -54.715-102.737 -43.645  0.00  0.00     0.000 C 
ENDBRANCH  10  22
BRANCH   8  24
ATOM     24  O   UNL d   1     -54.717-100.504 -43.583  0.00  0.00    -0.271 OA
BRANCH  24  25
ATOM     25  C   UNL d   1     -55.215-100.686 -44.215  0.00  0.00     0.323 C 
ATOM     26  O   UNL d   1     -55.228-101.442 -44.532  0.00  0.00    -0.257 OA
BRANCH  25  27
ATOM     27  C   UNL d   1     -55.706-100.100 -44.534  0.00  0.00     0.163 A 
ATOM     28  O   UNL d   1     -55.732 -99.862 -45.321  0.00  0.00    -0.300 OA
ATOM     29  C   UNL d   1     -56.297 -99.265 -45.399  0.00  0.00     0.123 A 
ATOM     30  C   UNL d   1     -56.624 -99.135 -44.647  0.00  0.00     0.029 A 
ATOM     31  C   UNL d   1     -56.254 -99.654 -44.115  0.00  0.00     0.032 A 
ENDBRANCH  25  27
ENDBRANCH  24  25
ENDBRANCH   8  24
TORSDOF 5
ENDMDL
