MODEL 1
REMARK VINA RESULT:      11.7      0.000      0.000
REMARK  6 active torsions:
REMARK  status: ('A' for Active; 'I' for Inactive)
REMARK    1  A    between atoms: S_6  and  C_1 
REMARK    2  A    between atoms: C_15  and  S_6 
REMARK    3  A    between atoms: C_8  and  O_11 
REMARK    4  A    between atoms: C_10  and  C_15 
REMARK    5  A    between atoms: C_16  and  C_10 
REMARK    6  A    between atoms: O_11  and  C_16 
ROOT
ATOM      1  C   UNL d   1      24.659  12.388  -2.156  0.00  0.00     0.040 C 
ENDROOT
BRANCH   1   2
ATOM      2  C   UNL d   1      24.305  12.071  -1.483  0.00  0.00     0.034 C 
BRANCH   2   3
ATOM      3  C   UNL d   1      24.680  12.144  -0.748  0.00  0.00     0.123 C 
BRANCH   3   4
ATOM      4  O   UNL d   1      24.666  12.875  -0.365  0.00  0.00    -0.305 OA
BRANCH   4   5
ATOM      5  C   UNL d   1      23.952  13.267  -0.251  0.00  0.00     0.100 A 
ATOM      6  C   UNL d   1      23.249  12.838  -0.198  0.00  0.00     0.025 A 
ATOM      7  C   UNL d   1      22.529  13.241  -0.082  0.00  0.00     0.002 A 
ATOM      8  C   UNL d   1      21.827  12.813  -0.029  0.00  0.00     0.000 C 
ATOM      9  C   UNL d   1      22.521  14.064  -0.022  0.00  0.00     0.000 A 
ATOM     10  C   UNL d   1      23.235  14.490  -0.078  0.00  0.00     0.002 A 
ATOM     11  C   UNL d   1      23.951  14.094  -0.192  0.00  0.00     0.025 A 
ENDBRANCH   4   5
ENDBRANCH   3   4
ENDBRANCH   2   3
ENDBRANCH   1   2
BRANCH   1  12
ATOM     12  S   UNL d   1      24.764  11.913  -2.822  0.00  0.00    -0.048 SA
BRANCH  12  13
ATOM     13  C   UNL d   1      24.749  12.245  -3.577  0.00  0.00     0.194 A 
ATOM     14  N   UNL d   1      24.716  13.054  -3.762  0.00  0.00    -0.220 NA
ATOM     15  C   UNL d   1      24.711  13.127  -4.590  0.00  0.00     0.101 A 
ATOM     16  C   UNL d   1      24.683  13.792  -5.079  0.00  0.00     0.021 A 
ATOM     17  C   UNL d   1      24.741  12.365  -4.925  0.00  0.00     0.101 A 
ATOM     18  C   UNL d   1      24.685  13.703  -5.897  0.00  0.00     0.002 A 
ATOM     19  C   UNL d   1      24.714  12.948  -6.230  0.00  0.00     0.002 A 
ATOM     20  C   UNL d   1      24.742  12.284  -5.743  0.00  0.00     0.021 A 
ATOM     21  N   UNL d   1      24.764  11.815  -4.295  0.00  0.00    -0.220 NA
ENDBRANCH  12  13
ENDBRANCH   1  12
TORSDOF 6
ENDMDL
