MODEL 1
REMARK VINA RESULT:      54.0      0.000      0.000
REMARK  3 active torsions:
REMARK  status: ('A' for Active; 'I' for Inactive)
REMARK    1  A    between atoms: S_10  and  C_2 
REMARK    2  A    between atoms: C_9  and  C_4 
REMARK    3  A    between atoms: C_17  and  C_12 
ROOT
ATOM      1  C   UNL d   1     -51.910  24.982  33.389  0.00  0.00     0.092 A 
ATOM      2  C   UNL d   1     -52.709  24.853  33.339  0.00  0.00     0.119 A 
ATOM      3  N   UNL d   1     -53.231  25.500  33.315  0.00  0.00    -0.201 NA
ATOM      4  C   UNL d   1     -51.619  25.760  33.415  0.00  0.00     0.016 A 
ATOM      5  C   UNL d   1     -52.938  26.268  33.340  0.00  0.00     0.280 A 
ATOM      6  C   UNL d   1     -51.389  24.340  33.414  0.00  0.00     0.103 C 
ATOM      7  N   UNL d   1     -50.873  23.692  33.438  0.00  0.00    -0.191 NA
ATOM      8  C   UNL d   1     -52.139  26.397  33.390  0.00  0.00     0.063 A 
ATOM      9  O   UNL d   1     -53.459  26.910  33.316  0.00  0.00    -0.265 OA
ENDROOT
BRANCH   2  10
ATOM     10  S   UNL d   1     -53.001  24.079  33.313  0.00  0.00    -0.093 SA
ATOM     11  C   UNL d   1     -53.513  23.804  33.909  0.00  0.00     0.076 C 
ENDBRANCH   2  10
BRANCH   4  12
ATOM     12  C   UNL d   1     -50.811  25.891  33.465  0.00  0.00     0.001 A 
ATOM     13  C   UNL d   1     -50.304  25.276  33.307  0.00  0.00     0.000 A 
ATOM     14  C   UNL d   1     -49.484  25.399  33.355  0.00  0.00     0.000 A 
ATOM     15  C   UNL d   1     -49.190  26.123  33.558  0.00  0.00     0.000 A 
ATOM     16  C   UNL d   1     -49.708  26.741  33.717  0.00  0.00     0.000 A 
ATOM     17  C   UNL d   1     -50.534  26.623  33.670  0.00  0.00     0.000 A 
BRANCH  15  18
ATOM     18  C   UNL d   1     -48.285  26.269  33.614  0.00  0.00     0.000 C 
ATOM     19  C   UNL d   1     -47.461  25.548  33.511  0.00  0.00     0.000 C 
ATOM     20  C   UNL d   1     -47.749  27.313  33.821  0.00  0.00     0.000 C 
ENDBRANCH  15  18
ENDBRANCH   4  12
TORSDOF 3
ENDMDL
