MODEL 1
REMARK VINA RESULT:      -9.2      0.000      0.000
REMARK  3 active torsions:
REMARK  status: ('A' for Active; 'I' for Inactive)
REMARK    1  A    between atoms: C_2  and  C_1 
REMARK       I    between atoms: N_4  and  C_2 
REMARK    2  A    between atoms: C_6  and  N_4 
REMARK    3  A    between atoms: S_12  and  C_5 
ROOT
ATOM      1  C   UNL d   1      53.759  31.686  53.872  0.00  0.00     0.298 C 
ATOM      2  N   UNL d   1      53.346  32.250  54.313  0.00  0.00    -0.207 NA
ATOM      3  O   UNL d   1      54.522  31.852  53.580  0.00  0.00    -0.264 OA
ENDROOT
BRANCH   1   4
ATOM      4  C   UNL d   1      53.413  30.952  53.718  0.00  0.00     0.153 A 
ATOM      5  N   UNL d   1      53.397  30.360  54.311  0.00  0.00    -0.216 NA
ATOM      6  C   UNL d   1      53.047  29.624  54.149  0.00  0.00     0.190 A 
ATOM      7  N   UNL d   1      52.715  29.475  53.407  0.00  0.00    -0.219 NA
ATOM      8  C   UNL d   1      52.731  30.061  52.821  0.00  0.00     0.114 A 
ATOM      9  C   UNL d   1      53.079  30.799  52.974  0.00  0.00     0.099 A 
ATOM     10 CL   UNL d   1      53.093  31.383  52.385  0.00  0.00    -0.079 Cl
BRANCH   6  11
ATOM     11  S   UNL d   1      53.029  29.039  54.729  0.00  0.00    -0.075 SA
ATOM     12  C   UNL d   1      53.637  28.468  54.764  0.00  0.00     0.077 C 
ENDBRANCH   6  11
ENDBRANCH   1   4
BRANCH   2  13
ATOM     13  C   UNL d   1      53.689  32.983  54.468  0.00  0.00     0.085 A 
ATOM     14  C   UNL d   1      53.269  33.673  54.328  0.00  0.00     0.018 A 
ATOM     15  C   UNL d   1      53.604  34.405  54.480  0.00  0.00     0.002 A 
ATOM     16  C   UNL d   1      52.501  33.630  54.031  0.00  0.00     0.002 A 
ATOM     17  C   UNL d   1      53.178  35.095  54.338  0.00  0.00     0.000 A 
ATOM     18  C   UNL d   1      54.372  34.448  54.777  0.00  0.00     0.000 A 
ATOM     19  C   UNL d   1      52.417  35.052  54.043  0.00  0.00     0.000 A 
ATOM     20  C   UNL d   1      52.075  34.320  53.889  0.00  0.00     0.000 A 
ATOM     21  C   UNL d   1      54.799  33.754  54.920  0.00  0.00     0.002 A 
ATOM     22  C   UNL d   1      54.453  33.021  54.763  0.00  0.00     0.019 A 
ENDBRANCH   2  13
TORSDOF 3
ENDMDL
MODEL 2
REMARK VINA RESULT:      -8.6      1.546      4.230
REMARK  3 active torsions:
REMARK  status: ('A' for Active; 'I' for Inactive)
REMARK    1  A    between atoms: C_2  and  C_1 
REMARK       I    between atoms: N_4  and  C_2 
REMARK    2  A    between atoms: C_6  and  N_4 
REMARK    3  A    between atoms: S_12  and  C_5 
ROOT
ATOM      1  C   UNL d   1      53.271  32.346  53.637  0.00  0.00     0.298 C 
ATOM      2  N   UNL d   1      53.339  31.614  54.015  0.00  0.00    -0.207 NA
ATOM      3  O   UNL d   1      53.048  32.390  52.836  0.00  0.00    -0.264 OA
ENDROOT
BRANCH   1   4
ATOM      4  C   UNL d   1      53.426  33.040  54.058  0.00  0.00     0.153 A 
ATOM      5  N   UNL d   1      54.146  33.128  54.478  0.00  0.00    -0.216 NA
ATOM      6  C   UNL d   1      54.294  33.829  54.898  0.00  0.00     0.190 A 
ATOM      7  N   UNL d   1      53.736  34.438  54.904  0.00  0.00    -0.219 NA
ATOM      8  C   UNL d   1      53.024  34.350  54.489  0.00  0.00     0.114 A 
ATOM      9  C   UNL d   1      52.867  33.653  54.065  0.00  0.00     0.099 A 
ATOM     10 CL   UNL d   1      52.154  33.570  53.651  0.00  0.00    -0.079 Cl
BRANCH   6  11
ATOM     11  S   UNL d   1      55.001  33.919  55.313  0.00  0.00    -0.075 SA
ATOM     12  C   UNL d   1      55.713  34.054  54.899  0.00  0.00     0.077 C 
ENDBRANCH   6  11
ENDBRANCH   1   4
BRANCH   2  13
ATOM     13  C   UNL d   1      53.186  30.920  53.598  0.00  0.00     0.085 A 
ATOM     14  C   UNL d   1      53.209  30.195  53.980  0.00  0.00     0.018 A 
ATOM     15  C   UNL d   1      53.057  29.501  53.571  0.00  0.00     0.002 A 
ATOM     16  C   UNL d   1      53.387  30.164  54.785  0.00  0.00     0.002 A 
ATOM     17  C   UNL d   1      53.082  28.776  53.960  0.00  0.00     0.000 A 
ATOM     18  C   UNL d   1      52.879  29.533  52.767  0.00  0.00     0.000 A 
ATOM     19  C   UNL d   1      53.259  28.745  54.757  0.00  0.00     0.000 A 
ATOM     20  C   UNL d   1      53.412  29.438  55.173  0.00  0.00     0.000 A 
ATOM     21  C   UNL d   1      52.854  30.263  52.378  0.00  0.00     0.002 A 
ATOM     22  C   UNL d   1      53.009  30.956  52.799  0.00  0.00     0.019 A 
ENDBRANCH   2  13
TORSDOF 3
ENDMDL
MODEL 3
REMARK VINA RESULT:      -8.5      2.770      4.385
REMARK  3 active torsions:
REMARK  status: ('A' for Active; 'I' for Inactive)
REMARK    1  A    between atoms: C_2  and  C_1 
REMARK       I    between atoms: N_4  and  C_2 
REMARK    2  A    between atoms: C_6  and  N_4 
REMARK    3  A    between atoms: S_12  and  C_5 
ROOT
ATOM      1  C   UNL d   1      51.921  33.840  52.852  0.00  0.00     0.298 C 
ATOM      2  N   UNL d   1      52.046  33.032  52.978  0.00  0.00    -0.207 NA
ATOM      3  O   UNL d   1      52.555  34.378  52.898  0.00  0.00    -0.264 OA
ENDROOT
BRANCH   1   4
ATOM      4  C   UNL d   1      51.162  34.114  52.678  0.00  0.00     0.153 A 
ATOM      5  N   UNL d   1      50.833  33.994  51.917  0.00  0.00    -0.216 NA
ATOM      6  C   UNL d   1      50.069  34.274  51.749  0.00  0.00     0.190 A 
ATOM      7  N   UNL d   1      49.633  34.669  52.329  0.00  0.00    -0.219 NA
ATOM      8  C   UNL d   1      49.959  34.788  53.082  0.00  0.00     0.114 A 
ATOM      9  C   UNL d   1      50.722  34.512  53.259  0.00  0.00     0.099 A 
ATOM     10 CL   UNL d   1      51.045  34.633  54.013  0.00  0.00    -0.079 Cl
BRANCH   6  11
ATOM     11  S   UNL d   1      49.741  34.157  51.001  0.00  0.00    -0.075 SA
ATOM     12  C   UNL d   1      49.009  34.508  50.808  0.00  0.00     0.077 C 
ENDBRANCH   6  11
ENDBRANCH   1   4
BRANCH   2  13
ATOM     13  C   UNL d   1      52.802  32.755  53.151  0.00  0.00     0.085 A 
ATOM     14  C   UNL d   1      52.950  31.950  53.182  0.00  0.00     0.018 A 
ATOM     15  C   UNL d   1      53.700  31.667  53.354  0.00  0.00     0.002 A 
ATOM     16  C   UNL d   1      52.337  31.417  53.037  0.00  0.00     0.002 A 
ATOM     17  C   UNL d   1      53.842  30.857  53.383  0.00  0.00     0.000 A 
ATOM     18  C   UNL d   1      54.312  32.199  53.498  0.00  0.00     0.000 A 
ATOM     19  C   UNL d   1      53.235  30.329  53.240  0.00  0.00     0.000 A 
ATOM     20  C   UNL d   1      52.480  30.606  53.066  0.00  0.00     0.000 A 
ATOM     21  C   UNL d   1      54.167  33.013  53.469  0.00  0.00     0.002 A 
ATOM     22  C   UNL d   1      53.408  33.287  53.294  0.00  0.00     0.019 A 
ENDBRANCH   2  13
TORSDOF 3
ENDMDL
MODEL 4
REMARK VINA RESULT:      -7.8      3.671      5.197
REMARK  3 active torsions:
REMARK  status: ('A' for Active; 'I' for Inactive)
REMARK    1  A    between atoms: C_2  and  C_1 
REMARK       I    between atoms: N_4  and  C_2 
REMARK    2  A    between atoms: C_6  and  N_4 
REMARK    3  A    between atoms: S_12  and  C_5 
ROOT
ATOM      1  C   UNL d   1      50.644  34.285  52.466  0.00  0.00     0.298 C 
ATOM      2  N   UNL d   1      49.962  34.653  52.755  0.00  0.00    -0.207 NA
ATOM      3  O   UNL d   1      50.703  34.073  51.663  0.00  0.00    -0.264 OA
ENDROOT
BRANCH   1   4
ATOM      4  C   UNL d   1      51.272  34.127  52.979  0.00  0.00     0.153 A 
ATOM      5  N   UNL d   1      51.792  34.741  53.213  0.00  0.00    -0.216 NA
ATOM      6  C   UNL d   1      52.421  34.573  53.728  0.00  0.00     0.190 A 
ATOM      7  N   UNL d   1      52.536  33.806  54.011  0.00  0.00    -0.219 NA
ATOM      8  C   UNL d   1      52.021  33.199  53.780  0.00  0.00     0.114 A 
ATOM      9  C   UNL d   1      51.389  33.356  53.265  0.00  0.00     0.099 A 
ATOM     10 CL   UNL d   1      50.876  32.746  53.036  0.00  0.00    -0.079 Cl
BRANCH   6  11
ATOM     11  S   UNL d   1      52.936  35.175  53.960  0.00  0.00    -0.075 SA
ATOM     12  C   UNL d   1      53.291  35.151  54.715  0.00  0.00     0.077 C 
ENDBRANCH   6  11
ENDBRANCH   1   4
BRANCH   2  13
ATOM     13  C   UNL d   1      49.334  34.812  52.246  0.00  0.00     0.085 A 
ATOM     14  C   UNL d   1      48.716  35.292  52.491  0.00  0.00     0.018 A 
ATOM     15  C   UNL d   1      48.088  35.454  51.989  0.00  0.00     0.002 A 
ATOM     16  C   UNL d   1      48.726  35.615  53.250  0.00  0.00     0.002 A 
ATOM     17  C   UNL d   1      47.470  35.936  52.241  0.00  0.00     0.000 A 
ATOM     18  C   UNL d   1      48.078  35.131  51.231  0.00  0.00     0.000 A 
ATOM     19  C   UNL d   1      47.480  36.257  52.992  0.00  0.00     0.000 A 
ATOM     20  C   UNL d   1      48.107  36.097  53.500  0.00  0.00     0.000 A 
ATOM     21  C   UNL d   1      48.700  34.646  50.981  0.00  0.00     0.002 A 
ATOM     22  C   UNL d   1      49.327  34.489  51.493  0.00  0.00     0.019 A 
ENDBRANCH   2  13
TORSDOF 3
ENDMDL
MODEL 5
REMARK VINA RESULT:      -7.8      3.516      4.940
REMARK  3 active torsions:
REMARK  status: ('A' for Active; 'I' for Inactive)
REMARK    1  A    between atoms: C_2  and  C_1 
REMARK       I    between atoms: N_4  and  C_2 
REMARK    2  A    between atoms: C_6  and  N_4 
REMARK    3  A    between atoms: S_12  and  C_5 
ROOT
ATOM      1  C   UNL d   1      50.363  34.119  52.827  0.00  0.00     0.298 C 
ATOM      2  N   UNL d   1      51.102  34.462  52.966  0.00  0.00    -0.207 NA
ATOM      3  O   UNL d   1      50.262  33.294  52.878  0.00  0.00    -0.264 OA
ENDROOT
BRANCH   1   4
ATOM      4  C   UNL d   1      49.718  34.599  52.637  0.00  0.00     0.153 A 
ATOM      5  N   UNL d   1      49.346  35.062  53.229  0.00  0.00    -0.216 NA
ATOM      6  C   UNL d   1      48.698  35.541  53.030  0.00  0.00     0.190 A 
ATOM      7  N   UNL d   1      48.419  35.565  52.252  0.00  0.00    -0.219 NA
ATOM      8  C   UNL d   1      48.787  35.107  51.667  0.00  0.00     0.114 A 
ATOM      9  C   UNL d   1      49.436  34.624  51.857  0.00  0.00     0.099 A 
ATOM     10 CL   UNL d   1      49.801  34.168  51.269  0.00  0.00    -0.079 Cl
BRANCH   6  11
ATOM     11  S   UNL d   1      48.329  35.998  53.609  0.00  0.00    -0.075 SA
ATOM     12  C   UNL d   1      47.587  36.347  53.455  0.00  0.00     0.077 C 
ENDBRANCH   6  11
ENDBRANCH   1   4
BRANCH   2  13
ATOM     13  C   UNL d   1      51.747  33.986  53.155  0.00  0.00     0.085 A 
ATOM     14  C   UNL d   1      52.372  34.291  53.589  0.00  0.00     0.018 A 
ATOM     15  C   UNL d   1      53.017  33.823  53.781  0.00  0.00     0.002 A 
ATOM     16  C   UNL d   1      52.352  35.078  53.835  0.00  0.00     0.002 A 
ATOM     17  C   UNL d   1      53.641  34.135  54.217  0.00  0.00     0.000 A 
ATOM     18  C   UNL d   1      53.037  33.037  53.535  0.00  0.00     0.000 A 
ATOM     19  C   UNL d   1      53.621  34.915  54.461  0.00  0.00     0.000 A 
ATOM     20  C   UNL d   1      52.977  35.389  54.272  0.00  0.00     0.000 A 
ATOM     21  C   UNL d   1      52.408  32.725  53.097  0.00  0.00     0.002 A 
ATOM     22  C   UNL d   1      51.764  33.204  52.909  0.00  0.00     0.019 A 
ENDBRANCH   2  13
TORSDOF 3
ENDMDL
MODEL 6
REMARK VINA RESULT:      -7.1     10.282     10.947
REMARK  3 active torsions:
REMARK  status: ('A' for Active; 'I' for Inactive)
REMARK    1  A    between atoms: C_2  and  C_1 
REMARK       I    between atoms: N_4  and  C_2 
REMARK    2  A    between atoms: C_6  and  N_4 
REMARK    3  A    between atoms: S_12  and  C_5 
ROOT
ATOM      1  C   UNL d   1      45.012  29.780  59.231  0.00  0.00     0.298 C 
ATOM      2  N   UNL d   1      44.613  29.453  59.877  0.00  0.00    -0.207 NA
ATOM      3  O   UNL d   1      45.412  30.507  59.303  0.00  0.00    -0.264 OA
ENDROOT
BRANCH   1   4
ATOM      4  C   UNL d   1      45.014  29.382  58.507  0.00  0.00     0.153 A 
ATOM      5  N   UNL d   1      45.237  28.575  58.469  0.00  0.00    -0.216 NA
ATOM      6  C   UNL d   1      45.237  28.181  57.738  0.00  0.00     0.190 A 
ATOM      7  N   UNL d   1      45.018  28.581  57.049  0.00  0.00    -0.219 NA
ATOM      8  C   UNL d   1      44.798  29.380  57.086  0.00  0.00     0.114 A 
ATOM      9  C   UNL d   1      44.795  29.782  57.813  0.00  0.00     0.099 A 
ATOM     10 CL   UNL d   1      44.574  30.580  57.847  0.00  0.00    -0.079 Cl
BRANCH   6  11
ATOM     11  S   UNL d   1      45.455  27.387  57.696  0.00  0.00    -0.075 SA
ATOM     12  C   UNL d   1      45.464  26.995  56.959  0.00  0.00     0.077 C 
ENDBRANCH   6  11
ENDBRANCH   1   4
BRANCH   2  13
ATOM     13  C   UNL d   1      44.609  29.848  60.600  0.00  0.00     0.085 A 
ATOM     14  C   UNL d   1      44.568  29.426  61.301  0.00  0.00     0.018 A 
ATOM     15  C   UNL d   1      44.564  29.813  62.024  0.00  0.00     0.002 A 
ATOM     16  C   UNL d   1      44.531  28.602  61.279  0.00  0.00     0.002 A 
ATOM     17  C   UNL d   1      44.522  29.382  62.724  0.00  0.00     0.000 A 
ATOM     18  C   UNL d   1      44.601  30.635  62.046  0.00  0.00     0.000 A 
ATOM     19  C   UNL d   1      44.485  28.567  62.703  0.00  0.00     0.000 A 
ATOM     20  C   UNL d   1      44.489  28.173  61.981  0.00  0.00     0.000 A 
ATOM     21  C   UNL d   1      44.643  31.066  61.340  0.00  0.00     0.002 A 
ATOM     22  C   UNL d   1      44.647  30.667  60.618  0.00  0.00     0.019 A 
ENDBRANCH   2  13
TORSDOF 3
ENDMDL
