MODEL 1
REMARK VINA RESULT:     114.7      0.000      0.000
REMARK  5 active torsions:
REMARK  status: ('A' for Active; 'I' for Inactive)
REMARK    1  A    between atoms: N_6  and  S_1 
REMARK    2  A    between atoms: C_11  and  S_1 
REMARK    3  A    between atoms: C_2  and  N_5 
REMARK    4  A    between atoms: C_9  and  C_4 
REMARK       I    between atoms: N_5  and  C_7 
REMARK    5  A    between atoms: C_7  and  C_15 
ROOT
ATOM      1  C   UNL d   1      61.723  43.957  50.927  0.00  0.00     0.104 A 
ATOM      2  C   UNL d   1      60.956  45.494  50.933  0.00  0.00     0.058 A 
ATOM      3  C   UNL d   1      61.435  44.327  50.210  0.00  0.00     0.013 A 
ATOM      4  C   UNL d   1      61.605  44.392  51.614  0.00  0.00     0.013 A 
ATOM      5  C   UNL d   1      61.233  45.139  51.623  0.00  0.00     0.005 A 
ATOM      6  C   UNL d   1      61.068  45.054  50.189  0.00  0.00     0.005 A 
ENDROOT
BRANCH   2   7
ATOM      7  C   UNL d   1      60.596  46.210  50.924  0.00  0.00     0.281 C 
ATOM      8  N   UNL d   1      61.031  46.909  50.810  0.00  0.00    -0.183 NA
ATOM      9  O   UNL d   1      59.748  46.252  51.034  0.00  0.00    -0.265 OA
BRANCH   8  10
ATOM     10  C   UNL d   1      60.646  47.690  50.800  0.00  0.00     0.197 A 
ATOM     11  N   UNL d   1      59.807  47.825  50.693  0.00  0.00    -0.220 NA
ATOM     12  C   UNL d   1      59.668  48.658  50.719  0.00  0.00     0.096 A 
ATOM     13  C   UNL d   1      60.442  49.027  50.842  0.00  0.00     0.058 A 
ATOM     14  S   UNL d   1      61.017  48.424  50.888  0.00  0.00    -0.046 SA
BRANCH  12  15
ATOM     15  C   UNL d   1      58.964  49.070  50.645  0.00  0.00     0.048 A 
ATOM     16  S   UNL d   1      58.449  49.309  51.230  0.00  0.00    -0.085 SA
ATOM     17  C   UNL d   1      57.814  49.707  50.899  0.00  0.00     0.035 A 
ATOM     18  C   UNL d   1      57.952  49.708  50.089  0.00  0.00     0.007 A 
ATOM     19  C   UNL d   1      58.657  49.317  49.932  0.00  0.00     0.009 A 
ENDBRANCH  12  15
ENDBRANCH   8  10
ENDBRANCH   2   7
BRANCH   1  20
ATOM     20  S   UNL d   1      62.094  43.209  50.905  0.00  0.00     0.271 S 
ATOM     21  O   UNL d   1      62.273  43.323  50.091  0.00  0.00    -0.200 OA
ATOM     22  O   UNL d   1      61.921  43.077  51.729  0.00  0.00    -0.200 OA
BRANCH  20  23
ATOM     23  N   UNL d   1      62.473  42.437  50.892  0.00  0.00    -0.229 N 
ATOM     24  C   UNL d   1      62.973  42.047  50.359  0.00  0.00     0.092 A 
ATOM     25  C   UNL d   1      63.157  41.308  50.655  0.00  0.00     0.021 A 
ATOM     26  C   UNL d   1      62.781  41.201  51.386  0.00  0.00     0.021 A 
ATOM     27  C   UNL d   1      62.359  41.910  51.523  0.00  0.00     0.092 A 
ENDBRANCH  20  23
ENDBRANCH   1  20
TORSDOF 5
ENDMDL
MODEL 2
REMARK VINA RESULT:     115.9      1.393      6.439
REMARK  5 active torsions:
REMARK  status: ('A' for Active; 'I' for Inactive)
REMARK    1  A    between atoms: N_6  and  S_1 
REMARK    2  A    between atoms: C_11  and  S_1 
REMARK    3  A    between atoms: C_2  and  N_5 
REMARK    4  A    between atoms: C_9  and  C_4 
REMARK       I    between atoms: N_5  and  C_7 
REMARK    5  A    between atoms: C_7  and  C_15 
ROOT
ATOM      1  C   UNL d   1      61.138  46.758  50.835  0.00  0.00     0.104 A 
ATOM      2  C   UNL d   1      61.451  45.069  50.858  0.00  0.00     0.058 A 
ATOM      3  C   UNL d   1      60.806  46.239  51.430  0.00  0.00     0.013 A 
ATOM      4  C   UNL d   1      61.615  46.387  50.279  0.00  0.00     0.013 A 
ATOM      5  C   UNL d   1      61.771  45.567  50.284  0.00  0.00     0.005 A 
ATOM      6  C   UNL d   1      60.940  45.436  51.461  0.00  0.00     0.005 A 
ENDROOT
BRANCH   2   7
ATOM      7  C   UNL d   1      61.590  44.280  50.878  0.00  0.00     0.281 C 
ATOM      8  N   UNL d   1      62.339  43.970  50.695  0.00  0.00    -0.183 NA
ATOM      9  O   UNL d   1      60.952  43.749  51.092  0.00  0.00    -0.265 OA
BRANCH   8  10
ATOM     10  C   UNL d   1      62.496  43.113  50.715  0.00  0.00     0.197 A 
ATOM     11  N   UNL d   1      62.486  42.594  50.033  0.00  0.00    -0.220 NA
ATOM     12  C   UNL d   1      62.667  41.812  50.295  0.00  0.00     0.096 A 
ATOM     13  C   UNL d   1      62.787  41.866  51.151  0.00  0.00     0.058 A 
ATOM     14  S   UNL d   1      62.679  42.661  51.382  0.00  0.00    -0.046 SA
BRANCH  12  15
ATOM     15  C   UNL d   1      62.726  41.119  49.862  0.00  0.00     0.048 A 
ATOM     16  S   UNL d   1      62.908  40.368  50.122  0.00  0.00    -0.085 SA
ATOM     17  C   UNL d   1      62.903  39.845  49.491  0.00  0.00     0.035 A 
ATOM     18  C   UNL d   1      62.712  40.295  48.831  0.00  0.00     0.007 A 
ATOM     19  C   UNL d   1      62.603  41.078  49.057  0.00  0.00     0.009 A 
ENDBRANCH  12  15
ENDBRANCH   8  10
ENDBRANCH   2   7
BRANCH   1  20
ATOM     20  S   UNL d   1      60.975  47.577  50.840  0.00  0.00     0.271 S 
ATOM     21  O   UNL d   1      61.146  47.605  51.663  0.00  0.00    -0.200 OA
ATOM     22  O   UNL d   1      60.798  47.567  50.007  0.00  0.00    -0.200 OA
BRANCH  20  23
ATOM     23  N   UNL d   1      60.804  48.420  50.835  0.00  0.00    -0.229 N 
ATOM     24  C   UNL d   1      60.649  48.975  50.239  0.00  0.00     0.092 A 
ATOM     25  C   UNL d   1      60.526  49.706  50.580  0.00  0.00     0.021 A 
ATOM     26  C   UNL d   1      60.599  49.645  51.403  0.00  0.00     0.021 A 
ATOM     27  C   UNL d   1      60.772  48.840  51.550  0.00  0.00     0.092 A 
ENDBRANCH  20  23
ENDBRANCH   1  20
TORSDOF 5
ENDMDL
MODEL 3
REMARK VINA RESULT:     116.0      1.198      1.688
REMARK  5 active torsions:
REMARK  status: ('A' for Active; 'I' for Inactive)
REMARK    1  A    between atoms: N_6  and  S_1 
REMARK    2  A    between atoms: C_11  and  S_1 
REMARK    3  A    between atoms: C_2  and  N_5 
REMARK    4  A    between atoms: C_9  and  C_4 
REMARK       I    between atoms: N_5  and  C_7 
REMARK    5  A    between atoms: C_7  and  C_15 
ROOT
ATOM      1  C   UNL d   1      62.207  43.378  50.156  0.00  0.00     0.104 A 
ATOM      2  C   UNL d   1      61.661  44.996  50.332  0.00  0.00     0.058 A 
ATOM      3  C   UNL d   1      61.740  43.632  50.828  0.00  0.00     0.013 A 
ATOM      4  C   UNL d   1      62.373  43.965  49.606  0.00  0.00     0.013 A 
ATOM      5  C   UNL d   1      62.110  44.753  49.685  0.00  0.00     0.005 A 
ATOM      6  C   UNL d   1      61.470  44.394  50.932  0.00  0.00     0.005 A 
ENDROOT
BRANCH   2   7
ATOM      7  C   UNL d   1      61.401  45.749  50.424  0.00  0.00     0.281 C 
ATOM      8  N   UNL d   1      61.798  46.388  50.072  0.00  0.00    -0.183 NA
ATOM      9  O   UNL d   1      60.699  45.893  50.895  0.00  0.00    -0.265 OA
BRANCH   8  10
ATOM     10  C   UNL d   1      61.520  47.208  50.168  0.00  0.00     0.197 A 
ATOM     11  N   UNL d   1      61.118  47.515  50.860  0.00  0.00    -0.220 NA
ATOM     12  C   UNL d   1      60.946  48.331  50.726  0.00  0.00     0.096 A 
ATOM     13  C   UNL d   1      61.253  48.514  49.937  0.00  0.00     0.058 A 
ATOM     14  S   UNL d   1      61.594  47.822  49.620  0.00  0.00    -0.046 SA
BRANCH  12  15
ATOM     15  C   UNL d   1      60.570  48.870  51.214  0.00  0.00     0.048 A 
ATOM     16  S   UNL d   1      59.824  49.190  51.143  0.00  0.00    -0.085 SA
ATOM     17  C   UNL d   1      59.681  49.708  51.762  0.00  0.00     0.035 A 
ATOM     18  C   UNL d   1      60.363  49.700  52.219  0.00  0.00     0.007 A 
ATOM     19  C   UNL d   1      60.910  49.186  51.885  0.00  0.00     0.009 A 
ENDBRANCH  12  15
ENDBRANCH   8  10
ENDBRANCH   2   7
BRANCH   1  20
ATOM     20  S   UNL d   1      62.463  42.586  50.088  0.00  0.00     0.271 S 
ATOM     21  O   UNL d   1      62.712  42.597  50.891  0.00  0.00    -0.200 OA
ATOM     22  O   UNL d   1      62.218  42.556  49.272  0.00  0.00    -0.200 OA
BRANCH  20  23
ATOM     23  N   UNL d   1      62.725  41.770  50.007  0.00  0.00    -0.229 N 
ATOM     24  C   UNL d   1      62.980  41.189  50.540  0.00  0.00     0.092 A 
ATOM     25  C   UNL d   1      63.158  40.507  50.127  0.00  0.00     0.021 A 
ATOM     26  C   UNL d   1      63.024  40.629  49.319  0.00  0.00     0.021 A 
ATOM     27  C   UNL d   1      62.755  41.418  49.256  0.00  0.00     0.092 A 
ENDBRANCH  20  23
ENDBRANCH   1  20
TORSDOF 5
ENDMDL
