MODEL 1
REMARK VINA RESULT:      87.0      0.000      0.000
REMARK  5 active torsions:
REMARK  status: ('A' for Active; 'I' for Inactive)
REMARK    1  A    between atoms: C_3  and  C_1 
REMARK    2  A    between atoms: C_6  and  C_9 
REMARK    3  A    between atoms: C_7  and  C_12 
REMARK    4  A    between atoms: C_9  and  C_11 
REMARK       I    between atoms: C_11  and  N_16 
REMARK    5  A    between atoms: N_16  and  C_18 
ROOT
ATOM      1  N   UNL d   1      59.608  49.610  51.389  0.00  0.00    -0.207 NA
ATOM      2  C   UNL d   1      60.403  49.383  51.256  0.00  0.00     0.285 A 
ATOM      3  S   UNL d   1      59.973  48.524  50.181  0.00  0.00    -0.080 SA
ATOM      4  C   UNL d   1      60.584  48.842  50.656  0.00  0.00     0.092 A 
ATOM      5  C   UNL d   1      59.008  49.292  50.916  0.00  0.00     0.090 A 
ATOM      6  C   UNL d   1      59.185  48.752  50.314  0.00  0.00     0.047 A 
ATOM      7  C   UNL d   1      57.624  49.203  50.578  0.00  0.00     0.073 A 
ATOM      8  C   UNL d   1      58.224  49.518  51.048  0.00  0.00     0.024 A 
ATOM      9  O   UNL d   1      61.006  49.693  51.720  0.00  0.00    -0.265 OA
ATOM     10  C   UNL d   1      58.587  48.437  49.846  0.00  0.00     0.008 A 
ATOM     11  C   UNL d   1      57.805  48.663  49.978  0.00  0.00     0.004 A 
ENDROOT
BRANCH   4  12
ATOM     12  C   UNL d   1      61.357  48.614  50.518  0.00  0.00     0.074 C 
BRANCH  12  13
ATOM     13  C   UNL d   1      61.537  47.807  50.415  0.00  0.00     0.280 C 
ATOM     14  N   UNL d   1      61.519  47.470  49.660  0.00  0.00    -0.208 NA
ATOM     15  O   UNL d   1      61.671  47.484  50.855  0.00  0.00    -0.265 OA
BRANCH  14  16
ATOM     16  C   UNL d   1      61.699  46.671  49.567  0.00  0.00     0.085 A 
ATOM     17  C   UNL d   1      61.406  46.124  50.106  0.00  0.00     0.024 A 
ATOM     18  C   UNL d   1      61.586  45.324  50.014  0.00  0.00     0.084 A 
ATOM     19  C   UNL d   1      62.056  45.076  49.384  0.00  0.00     0.062 A 
ATOM     20  C   UNL d   1      62.347  45.635  48.845  0.00  0.00     0.013 A 
ATOM     21 CL   UNL d   1      62.232  44.290  49.294  0.00  0.00    -0.082 Cl
ATOM     22  C   UNL d   1      62.169  46.426  48.937  0.00  0.00     0.020 A 
BRANCH  18  23
ATOM     23  C   UNL d   1      61.298  44.783  50.544  0.00  0.00     0.420 C 
ATOM     24  F   UNL d   1      61.031  44.284  51.029  0.00  0.00    -0.166 F 
ATOM     25  F   UNL d   1      60.602  44.302  50.495  0.00  0.00    -0.166 F 
ATOM     26  F   UNL d   1      61.613  44.547  51.293  0.00  0.00    -0.166 F 
ENDBRANCH  18  23
ENDBRANCH  14  16
ENDBRANCH  12  13
ENDBRANCH   4  12
BRANCH   7  27
ATOM     27  C   UNL d   1      56.855  49.424  50.708  0.00  0.00     0.419 C 
ATOM     28  F   UNL d   1      56.268  49.677  50.152  0.00  0.00    -0.166 F 
ATOM     29  F   UNL d   1      56.420  49.466  51.442  0.00  0.00    -0.166 F 
ATOM     30  F   UNL d   1      56.147  49.629  50.824  0.00  0.00    -0.166 F 
ENDBRANCH   7  27
TORSDOF 5
ENDMDL
