MODEL 1
REMARK VINA RESULT:      -1.9      0.000      0.000
REMARK  4 active torsions:
REMARK  status: ('A' for Active; 'I' for Inactive)
REMARK    1  A    between atoms: C_14  and  N_1 
REMARK    2  A    between atoms: S_12  and  C_2 
REMARK    3  A    between atoms: C_9  and  C_17 
REMARK    4  A    between atoms: C_17  and  S_12 
ROOT
ATOM      1  S   UNL d   1     -41.652-122.123 -51.820  0.00  0.00    -0.045 SA
ENDROOT
BRANCH   1   2
ATOM      2  C   UNL d   1     -41.510-121.624 -51.185  0.00  0.00     0.219 A 
ATOM      3  N   UNL d   1     -41.702-121.778 -50.409  0.00  0.00    -0.186 N 
ATOM      4  N   UNL d   1     -41.466-121.143 -49.959  0.00  0.00    -0.038 NA
ATOM      5  N   UNL d   1     -41.125-120.589 -50.457  0.00  0.00    -0.022 NA
ATOM      6  N   UNL d   1     -41.154-120.894 -51.226  0.00  0.00    -0.101 NA
BRANCH   3   7
ATOM      7  C   UNL d   1     -42.070-122.458 -50.127  0.00  0.00     0.087 A 
ATOM      8  C   UNL d   1     -41.639-123.011 -49.697  0.00  0.00     0.019 A 
ATOM      9  C   UNL d   1     -42.005-123.688 -49.416  0.00  0.00     0.002 A 
ATOM     10  C   UNL d   1     -42.806-123.817 -49.563  0.00  0.00     0.000 A 
ATOM     11  C   UNL d   1     -43.236-123.263 -49.993  0.00  0.00     0.002 A 
ATOM     12  C   UNL d   1     -42.868-122.584 -50.275  0.00  0.00     0.019 A 
ENDBRANCH   3   7
ENDBRANCH   1   2
BRANCH   1  13
ATOM     13  C   UNL d   1     -41.137-122.134 -52.434  0.00  0.00     0.059 C 
BRANCH  13  14
ATOM     14  C   UNL d   1     -41.420-122.227 -53.191  0.00  0.00     0.107 A 
ATOM     15  N   UNL d   1     -41.990-121.734 -53.554  0.00  0.00    -0.226 NA
ATOM     16  C   UNL d   1     -42.116-122.043 -54.344  0.00  0.00     0.148 A 
ATOM     17  C   UNL d   1     -42.619-121.784 -54.966  0.00  0.00     0.037 A 
ATOM     18  N   UNL d   1     -41.623-122.713 -54.446  0.00  0.00    -0.289 N 
ATOM     19  C   UNL d   1     -42.619-122.208 -55.687  0.00  0.00     0.005 A 
ATOM     20  C   UNL d   1     -42.126-122.878 -55.789  0.00  0.00     0.018 A 
ATOM     21  C   UNL d   1     -41.631-123.129 -55.171  0.00  0.00     0.066 A 
ATOM     22  C   UNL d   1     -41.144-123.793 -55.272  0.00  0.00     0.019 C 
ATOM     23  C   UNL d   1     -41.187-122.827 -53.721  0.00  0.00     0.101 A 
ENDBRANCH  13  14
ENDBRANCH   1  13
TORSDOF 4
ENDMDL
MODEL 2
REMARK VINA RESULT:       0.2      1.081      1.772
REMARK  4 active torsions:
REMARK  status: ('A' for Active; 'I' for Inactive)
REMARK    1  A    between atoms: C_14  and  N_1 
REMARK    2  A    between atoms: S_12  and  C_2 
REMARK    3  A    between atoms: C_9  and  C_17 
REMARK    4  A    between atoms: C_17  and  S_12 
ROOT
ATOM      1  S   UNL d   1     -42.063-122.437 -50.912  0.00  0.00    -0.045 SA
ENDROOT
BRANCH   1   2
ATOM      2  C   UNL d   1     -41.869-122.574 -50.127  0.00  0.00     0.219 A 
ATOM      3  N   UNL d   1     -42.389-122.799 -49.542  0.00  0.00    -0.186 N 
ATOM      4  N   UNL d   1     -41.972-122.875 -48.848  0.00  0.00    -0.038 NA
ATOM      5  N   UNL d   1     -41.187-122.698 -49.000  0.00  0.00    -0.022 NA
ATOM      6  N   UNL d   1     -41.125-122.509 -49.804  0.00  0.00    -0.101 NA
BRANCH   3   7
ATOM      7  C   UNL d   1     -43.197-122.927 -49.636  0.00  0.00     0.087 A 
ATOM      8  C   UNL d   1     -43.506-123.684 -49.557  0.00  0.00     0.019 A 
ATOM      9  C   UNL d   1     -44.309-123.812 -49.650  0.00  0.00     0.002 A 
ATOM     10  C   UNL d   1     -44.812-123.181 -49.823  0.00  0.00     0.000 A 
ATOM     11  C   UNL d   1     -44.502-122.423 -49.902  0.00  0.00     0.002 A 
ATOM     12  C   UNL d   1     -43.694-122.296 -49.809  0.00  0.00     0.019 A 
ENDBRANCH   3   7
ENDBRANCH   1   2
BRANCH   1  13
ATOM     13  C   UNL d   1     -41.497-122.176 -51.416  0.00  0.00     0.059 C 
BRANCH  13  14
ATOM     14  C   UNL d   1     -41.517-122.413 -52.195  0.00  0.00     0.107 A 
ATOM     15  N   UNL d   1     -41.193-123.127 -52.488  0.00  0.00    -0.226 NA
ATOM     16  C   UNL d   1     -41.345-123.138 -53.331  0.00  0.00     0.148 A 
ATOM     17  C   UNL d   1     -41.154-123.707 -53.920  0.00  0.00     0.037 A 
ATOM     18  N   UNL d   1     -41.755-122.436 -53.535  0.00  0.00    -0.289 N 
ATOM     19  C   UNL d   1     -41.380-123.559 -54.712  0.00  0.00     0.005 A 
ATOM     20  C   UNL d   1     -41.790-122.856 -54.915  0.00  0.00     0.018 A 
ATOM     21  C   UNL d   1     -41.977-122.298 -54.328  0.00  0.00     0.066 A 
ATOM     22  C   UNL d   1     -42.382-121.603 -54.529  0.00  0.00     0.019 C 
ATOM     23  C   UNL d   1     -41.862-121.982 -52.819  0.00  0.00     0.101 A 
ENDBRANCH  13  14
ENDBRANCH   1  13
TORSDOF 4
ENDMDL
