MODEL 1
REMARK VINA RESULT:      -8.4      0.000      0.000
REMARK  3 active torsions:
REMARK  status: ('A' for Active; 'I' for Inactive)
REMARK    1  A    between atoms: C_4  and  C_1 
REMARK       I    between atoms: N_6  and  C_4 
REMARK    2  A    between atoms: C_8  and  C_5 
REMARK    3  A    between atoms: C_7  and  N_6 
ROOT
ATOM      1  C   UNL d   1     -48.923  13.193  23.037  0.00  0.00     0.192 A 
ATOM      2  C   UNL d   1     -49.484  12.854  21.755  0.00  0.00     0.296 A 
ATOM      3  O   UNL d   1     -48.940  12.700  22.363  0.00  0.00    -0.290 OA
ATOM      4  C   UNL d   1     -50.009  13.492  21.811  0.00  0.00     0.063 A 
ATOM      5  C   UNL d   1     -49.986  13.980  22.488  0.00  0.00     0.004 A 
ATOM      6  C   UNL d   1     -49.447  13.833  23.098  0.00  0.00     0.010 A 
ATOM      7  O   UNL d   1     -49.501  12.369  21.091  0.00  0.00    -0.259 OA
ATOM      8  C   UNL d   1     -48.912  13.682  23.698  0.00  0.00     0.045 C 
ATOM      9  C   UNL d   1     -50.511  14.618  22.544  0.00  0.00    -0.000 A 
ATOM     10  C   UNL d   1     -50.544  13.643  21.211  0.00  0.00     0.005 A 
ATOM     11  C   UNL d   1     -51.046  14.761  21.934  0.00  0.00    -0.000 A 
ATOM     12  C   UNL d   1     -51.063  14.276  21.271  0.00  0.00     0.000 A 
ENDROOT
BRANCH   1  13
ATOM     13  C   UNL d   1     -48.342  12.634  23.169  0.00  0.00     0.285 C 
ATOM     14  N   UNL d   1     -47.547  12.846  23.113  0.00  0.00    -0.209 NA
ATOM     15  O   UNL d   1     -48.554  11.858  23.357  0.00  0.00    -0.267 OA
BRANCH  14  16
ATOM     16  C   UNL d   1     -46.965  12.278  23.247  0.00  0.00     0.090 A 
ATOM     17  C   UNL d   1     -46.187  12.446  23.065  0.00  0.00     0.082 A 
ATOM     18  C   UNL d   1     -45.602  11.879  23.197  0.00  0.00     0.008 A 
ATOM     19  C   UNL d   1     -45.804  11.145  23.513  0.00  0.00     0.000 A 
ATOM     20  C   UNL d   1     -46.593  10.980  23.696  0.00  0.00     0.002 A 
ATOM     21  C   UNL d   1     -47.168  11.551  23.560  0.00  0.00     0.019 A 
BRANCH  17  22
ATOM     22  C   UNL d   1     -45.986  13.184  22.748  0.00  0.00     0.212 C 
ATOM     23  O   UNL d   1     -45.952  13.280  21.927  0.00  0.00    -0.644 OA
ATOM     24  O   UNL d   1     -45.825  13.811  23.245  0.00  0.00    -0.644 OA
ENDBRANCH  17  22
ENDBRANCH  14  16
ENDBRANCH   1  13
TORSDOF 3
ENDMDL
MODEL 2
REMARK VINA RESULT:      -8.0      0.874      4.285
REMARK  3 active torsions:
REMARK  status: ('A' for Active; 'I' for Inactive)
REMARK    1  A    between atoms: C_4  and  C_1 
REMARK       I    between atoms: N_6  and  C_4 
REMARK    2  A    between atoms: C_8  and  C_5 
REMARK    3  A    between atoms: C_7  and  N_6 
ROOT
ATOM      1  C   UNL d   1     -48.246  12.664  23.402  0.00  0.00     0.192 A 
ATOM      2  C   UNL d   1     -46.949  13.151  23.009  0.00  0.00     0.296 A 
ATOM      3  O   UNL d   1     -47.765  13.278  23.105  0.00  0.00    -0.290 OA
ATOM      4  C   UNL d   1     -46.610  12.422  23.205  0.00  0.00     0.063 A 
ATOM      5  C   UNL d   1     -47.099  11.813  23.501  0.00  0.00     0.004 A 
ATOM      6  C   UNL d   1     -47.911  11.932  23.600  0.00  0.00     0.010 A 
ATOM      7  O   UNL d   1     -46.476  13.756  22.716  0.00  0.00    -0.259 OA
ATOM      8  C   UNL d   1     -48.714  12.055  23.696  0.00  0.00     0.045 C 
ATOM      9  C   UNL d   1     -46.760  11.083  23.698  0.00  0.00    -0.000 A 
ATOM     10  C   UNL d   1     -45.808  12.298  23.110  0.00  0.00     0.005 A 
ATOM     11  C   UNL d   1     -45.950  10.969  23.598  0.00  0.00    -0.000 A 
ATOM     12  C   UNL d   1     -45.476  11.574  23.305  0.00  0.00     0.000 A 
ENDROOT
BRANCH   1  13
ATOM     13  C   UNL d   1     -48.756  13.289  23.272  0.00  0.00     0.285 C 
ATOM     14  N   UNL d   1     -49.375  13.210  22.733  0.00  0.00    -0.209 NA
ATOM     15  O   UNL d   1     -48.649  13.998  23.682  0.00  0.00    -0.267 OA
BRANCH  14  16
ATOM     16  C   UNL d   1     -49.886  13.844  22.606  0.00  0.00     0.090 A 
ATOM     17  C   UNL d   1     -50.389  13.835  21.962  0.00  0.00     0.082 A 
ATOM     18  C   UNL d   1     -50.902  14.468  21.832  0.00  0.00     0.008 A 
ATOM     19  C   UNL d   1     -50.906  15.108  22.352  0.00  0.00     0.000 A 
ATOM     20  C   UNL d   1     -50.395  15.112  23.002  0.00  0.00     0.002 A 
ATOM     21  C   UNL d   1     -49.888  14.477  23.123  0.00  0.00     0.019 A 
BRANCH  17  22
ATOM     22  C   UNL d   1     -50.383  13.191  21.442  0.00  0.00     0.212 C 
ATOM     23  O   UNL d   1     -49.870  13.196  20.793  0.00  0.00    -0.644 OA
ATOM     24  O   UNL d   1     -50.881  12.557  21.572  0.00  0.00    -0.644 OA
ENDBRANCH  17  22
ENDBRANCH  14  16
ENDBRANCH   1  13
TORSDOF 3
ENDMDL
MODEL 3
REMARK VINA RESULT:      -8.0      1.033      4.419
REMARK  3 active torsions:
REMARK  status: ('A' for Active; 'I' for Inactive)
REMARK    1  A    between atoms: C_4  and  C_1 
REMARK       I    between atoms: N_6  and  C_4 
REMARK    2  A    between atoms: C_8  and  C_5 
REMARK    3  A    between atoms: C_7  and  N_6 
ROOT
ATOM      1  C   UNL d   1     -46.988  12.242  23.342  0.00  0.00     0.192 A 
ATOM      2  C   UNL d   1     -45.659  12.527  22.866  0.00  0.00     0.296 A 
ATOM      3  O   UNL d   1     -46.446  12.766  22.983  0.00  0.00    -0.290 OA
ATOM      4  C   UNL d   1     -45.407  11.775  23.103  0.00  0.00     0.063 A 
ATOM      5  C   UNL d   1     -45.955  11.257  23.461  0.00  0.00     0.004 A 
ATOM      6  C   UNL d   1     -46.740  11.487  23.581  0.00  0.00     0.010 A 
ATOM      7  O   UNL d   1     -45.126  13.043  22.512  0.00  0.00    -0.259 OA
ATOM      8  C   UNL d   1     -47.515  11.720  23.696  0.00  0.00     0.045 C 
ATOM      9  C   UNL d   1     -45.704  10.504  23.698  0.00  0.00    -0.000 A 
ATOM     10  C   UNL d   1     -44.632  11.541  22.987  0.00  0.00     0.005 A 
ATOM     11  C   UNL d   1     -44.920  10.279  23.577  0.00  0.00    -0.000 A 
ATOM     12  C   UNL d   1     -44.387  10.795  23.223  0.00  0.00     0.000 A 
ENDROOT
BRANCH   1  13
ATOM     13  C   UNL d   1     -47.419  12.918  23.185  0.00  0.00     0.285 C 
ATOM     14  N   UNL d   1     -48.046  12.891  22.650  0.00  0.00    -0.209 NA
ATOM     15  O   UNL d   1     -47.225  13.625  23.564  0.00  0.00    -0.267 OA
BRANCH  14  16
ATOM     16  C   UNL d   1     -48.477  13.576  22.495  0.00  0.00     0.090 A 
ATOM     17  C   UNL d   1     -49.027  13.579  21.891  0.00  0.00     0.082 A 
ATOM     18  C   UNL d   1     -49.461  14.264  21.734  0.00  0.00     0.008 A 
ATOM     19  C   UNL d   1     -49.338  14.942  22.187  0.00  0.00     0.000 A 
ATOM     20  C   UNL d   1     -48.781  14.933  22.798  0.00  0.00     0.002 A 
ATOM     21  C   UNL d   1     -48.354  14.246  22.946  0.00  0.00     0.019 A 
BRANCH  17  22
ATOM     22  C   UNL d   1     -49.148  12.898  21.438  0.00  0.00     0.212 C 
ATOM     23  O   UNL d   1     -49.697  12.333  21.688  0.00  0.00    -0.644 OA
ATOM     24  O   UNL d   1     -48.725  12.787  20.748  0.00  0.00    -0.644 OA
ENDBRANCH  17  22
ENDBRANCH  14  16
ENDBRANCH   1  13
TORSDOF 3
ENDMDL
MODEL 4
REMARK VINA RESULT:      -6.5      9.225      9.863
REMARK  3 active torsions:
REMARK  status: ('A' for Active; 'I' for Inactive)
REMARK    1  A    between atoms: C_4  and  C_1 
REMARK       I    between atoms: N_6  and  C_4 
REMARK    2  A    between atoms: C_8  and  C_5 
REMARK    3  A    between atoms: C_7  and  N_6 
ROOT
ATOM      1  C   UNL d   1     -39.034  14.788  18.817  0.00  0.00     0.192 A 
ATOM      2  C   UNL d   1     -40.283  14.235  18.361  0.00  0.00     0.296 A 
ATOM      3  O   UNL d   1     -39.646  14.224  18.894  0.00  0.00    -0.290 OA
ATOM      4  C   UNL d   1     -40.317  14.799  17.755  0.00  0.00     0.063 A 
ATOM      5  C   UNL d   1     -39.701  15.358  17.686  0.00  0.00     0.004 A 
ATOM      6  C   UNL d   1     -39.064  15.354  18.211  0.00  0.00     0.010 A 
ATOM      7  O   UNL d   1     -40.885  13.681  18.437  0.00  0.00    -0.259 OA
ATOM      8  C   UNL d   1     -38.435  15.345  18.735  0.00  0.00     0.045 C 
ATOM      9  C   UNL d   1     -39.735  15.922  17.080  0.00  0.00    -0.000 A 
ATOM     10  C   UNL d   1     -40.945  14.808  17.232  0.00  0.00     0.005 A 
ATOM     11  C   UNL d   1     -40.373  15.922  16.557  0.00  0.00    -0.000 A 
ATOM     12  C   UNL d   1     -40.975  15.368  16.633  0.00  0.00     0.000 A 
ENDROOT
BRANCH   1  13
ATOM     13  C   UNL d   1     -38.822  14.330  19.460  0.00  0.00     0.285 C 
ATOM     14  N   UNL d   1     -38.808  14.662  20.215  0.00  0.00    -0.209 NA
ATOM     15  O   UNL d   1     -38.621  13.537  19.350  0.00  0.00    -0.267 OA
BRANCH  14  16
ATOM     16  C   UNL d   1     -38.594  14.197  20.859  0.00  0.00     0.090 A 
ATOM     17  C   UNL d   1     -38.794  14.435  21.615  0.00  0.00     0.082 A 
ATOM     18  C   UNL d   1     -38.579  13.970  22.262  0.00  0.00     0.008 A 
ATOM     19  C   UNL d   1     -38.165  13.267  22.146  0.00  0.00     0.000 A 
ATOM     20  C   UNL d   1     -37.965  13.030  21.379  0.00  0.00     0.002 A 
ATOM     21  C   UNL d   1     -38.182  13.500  20.741  0.00  0.00     0.019 A 
BRANCH  17  22
ATOM     22  C   UNL d   1     -39.210  15.140  21.729  0.00  0.00     0.212 C 
ATOM     23  O   UNL d   1     -38.795  15.852  21.798  0.00  0.00    -0.644 OA
ATOM     24  O   UNL d   1     -40.026  15.130  21.772  0.00  0.00    -0.644 OA
ENDBRANCH  17  22
ENDBRANCH  14  16
ENDBRANCH   1  13
TORSDOF 3
ENDMDL
MODEL 5
REMARK VINA RESULT:      -6.3      1.322      1.869
REMARK  3 active torsions:
REMARK  status: ('A' for Active; 'I' for Inactive)
REMARK    1  A    between atoms: C_4  and  C_1 
REMARK       I    between atoms: N_6  and  C_4 
REMARK    2  A    between atoms: C_8  and  C_5 
REMARK    3  A    between atoms: C_7  and  N_6 
ROOT
ATOM      1  C   UNL d   1     -48.105  12.233  22.937  0.00  0.00     0.192 A 
ATOM      2  C   UNL d   1     -49.035  12.719  21.951  0.00  0.00     0.296 A 
ATOM      3  O   UNL d   1     -48.253  12.571  22.188  0.00  0.00    -0.290 OA
ATOM      4  C   UNL d   1     -49.669  12.534  22.451  0.00  0.00     0.063 A 
ATOM      5  C   UNL d   1     -49.513  12.196  23.198  0.00  0.00     0.004 A 
ATOM      6  C   UNL d   1     -48.737  12.046  23.441  0.00  0.00     0.010 A 
ATOM      7  O   UNL d   1     -49.181  13.052  21.214  0.00  0.00    -0.259 OA
ATOM      8  C   UNL d   1     -47.968  11.899  23.676  0.00  0.00     0.045 C 
ATOM      9  C   UNL d   1     -50.147  12.011  23.698  0.00  0.00    -0.000 A 
ATOM     10  C   UNL d   1     -50.439  12.680  22.216  0.00  0.00     0.005 A 
ATOM     11  C   UNL d   1     -50.919  12.162  23.452  0.00  0.00    -0.000 A 
ATOM     12  C   UNL d   1     -51.064  12.496  22.714  0.00  0.00     0.000 A 
ENDROOT
BRANCH   1  13
ATOM     13  C   UNL d   1     -47.367  12.339  22.603  0.00  0.00     0.285 C 
ATOM     14  N   UNL d   1     -46.891  12.965  22.849  0.00  0.00    -0.209 NA
ATOM     15  O   UNL d   1     -47.102  11.817  22.020  0.00  0.00    -0.267 OA
BRANCH  14  16
ATOM     16  C   UNL d   1     -46.147  13.068  22.509  0.00  0.00     0.090 A 
ATOM     17  C   UNL d   1     -45.786  13.800  22.539  0.00  0.00     0.082 A 
ATOM     18  C   UNL d   1     -45.042  13.905  22.199  0.00  0.00     0.008 A 
ATOM     19  C   UNL d   1     -44.664  13.272  21.830  0.00  0.00     0.000 A 
ATOM     20  C   UNL d   1     -45.034  12.533  21.803  0.00  0.00     0.002 A 
ATOM     21  C   UNL d   1     -45.775  12.438  22.144  0.00  0.00     0.019 A 
BRANCH  17  22
ATOM     22  C   UNL d   1     -46.168  14.434  22.909  0.00  0.00     0.212 C 
ATOM     23  O   UNL d   1     -46.693  14.903  22.476  0.00  0.00    -0.644 OA
ATOM     24  O   UNL d   1     -46.024  14.592  23.698  0.00  0.00    -0.644 OA
ENDBRANCH  17  22
ENDBRANCH  14  16
ENDBRANCH   1  13
TORSDOF 3
ENDMDL
MODEL 6
REMARK VINA RESULT:      -6.0      8.626      9.687
REMARK  3 active torsions:
REMARK  status: ('A' for Active; 'I' for Inactive)
REMARK    1  A    between atoms: C_4  and  C_1 
REMARK       I    between atoms: N_6  and  C_4 
REMARK    2  A    between atoms: C_8  and  C_5 
REMARK    3  A    between atoms: C_7  and  N_6 
ROOT
ATOM      1  C   UNL d   1     -40.011  14.892  20.120  0.00  0.00     0.192 A 
ATOM      2  C   UNL d   1     -39.043  15.415  19.191  0.00  0.00     0.296 A 
ATOM      3  O   UNL d   1     -39.311  15.322  19.972  0.00  0.00    -0.290 OA
ATOM      4  C   UNL d   1     -39.464  15.085  18.559  0.00  0.00     0.063 A 
ATOM      5  C   UNL d   1     -40.163  14.656  18.716  0.00  0.00     0.004 A 
ATOM      6  C   UNL d   1     -40.436  14.560  19.490  0.00  0.00     0.010 A 
ATOM      7  O   UNL d   1     -38.353  15.838  19.046  0.00  0.00    -0.259 OA
ATOM      8  C   UNL d   1     -40.701  14.467  20.258  0.00  0.00     0.045 C 
ATOM      9  C   UNL d   1     -40.584  14.326  18.083  0.00  0.00    -0.000 A 
ATOM     10  C   UNL d   1     -39.198  15.177  17.791  0.00  0.00     0.005 A 
ATOM     11  C   UNL d   1     -40.308  14.426  17.313  0.00  0.00    -0.000 A 
ATOM     12  C   UNL d   1     -39.618  14.849  17.167  0.00  0.00     0.000 A 
ENDROOT
BRANCH   1  13
ATOM     13  C   UNL d   1     -39.750  15.131  20.856  0.00  0.00     0.285 C 
ATOM     14  N   UNL d   1     -39.413  14.582  21.372  0.00  0.00    -0.209 NA
ATOM     15  O   UNL d   1     -39.824  15.922  21.081  0.00  0.00    -0.267 OA
BRANCH  14  16
ATOM     16  C   UNL d   1     -39.151  14.828  22.113  0.00  0.00     0.090 A 
ATOM     17  C   UNL d   1     -38.749  14.305  22.594  0.00  0.00     0.082 A 
ATOM     18  C   UNL d   1     -38.485  14.549  23.337  0.00  0.00     0.008 A 
ATOM     19  C   UNL d   1     -38.628  15.320  23.592  0.00  0.00     0.000 A 
ATOM     20  C   UNL d   1     -39.036  15.846  23.101  0.00  0.00     0.002 A 
ATOM     21  C   UNL d   1     -39.294  15.593  22.363  0.00  0.00     0.019 A 
BRANCH  17  22
ATOM     22  C   UNL d   1     -38.606  13.532  22.336  0.00  0.00     0.212 C 
ATOM     23  O   UNL d   1     -39.142  12.932  22.529  0.00  0.00    -0.644 OA
ATOM     24  O   UNL d   1     -37.940  13.366  21.893  0.00  0.00    -0.644 OA
ENDBRANCH  17  22
ENDBRANCH  14  16
ENDBRANCH   1  13
TORSDOF 3
ENDMDL
