MODEL 1
REMARK VINA RESULT:      14.6      0.000      0.000
REMARK  1 active torsions:
REMARK  status: ('A' for Active; 'I' for Inactive)
REMARK    1  A    between atoms: C_12  and  C_1 
ROOT
ATOM      1  C   UNL d   1      14.393  11.941  -0.699  0.00  0.00     0.019 A 
ATOM      2  C   UNL d   1      14.584  11.942  -2.118  0.00  0.00     0.103 A 
ATOM      3  C   UNL d   1      14.087  11.901  -1.462  0.00  0.00     0.024 A 
ATOM      4  O   UNL d   1      15.397  12.023  -2.016  0.00  0.00    -0.273 OA
ATOM      5  C   UNL d   1      15.707  12.063  -1.250  0.00  0.00     0.300 A 
ATOM      6  C   UNL d   1      15.210  12.022  -0.593  0.00  0.00     0.070 A 
ATOM      7  C   UNL d   1      13.272  11.820  -1.570  0.00  0.00     0.002 A 
ATOM      8  C   UNL d   1      14.267  11.901  -2.884  0.00  0.00     0.025 A 
ATOM      9  C   UNL d   1      12.955  11.780  -2.327  0.00  0.00     0.000 A 
ATOM     10  O   UNL d   1      16.527  12.145  -1.143  0.00  0.00    -0.259 OA
ATOM     11  C   UNL d   1      13.455  11.820  -2.987  0.00  0.00     0.002 A 
ATOM     12  C   UNL d   1      12.769  11.779  -0.918  0.00  0.00     0.000 C 
ATOM     13  C   UNL d   1      13.133  11.779  -3.751  0.00  0.00     0.000 C 
ENDROOT
BRANCH   1  14
ATOM     14  C   UNL d   1      13.890  11.900  -0.047  0.00  0.00     0.069 C 
ATOM     15 CL   UNL d   1      13.226  12.388  -0.015  0.00  0.00    -0.082 Cl
ENDBRANCH   1  14
TORSDOF 1
ENDMDL
MODEL 2
REMARK VINA RESULT:      15.8      2.208      3.367
REMARK  1 active torsions:
REMARK  status: ('A' for Active; 'I' for Inactive)
REMARK    1  A    between atoms: C_12  and  C_1 
ROOT
ATOM      1  C   UNL d   1      13.442  13.435  -3.877  0.00  0.00     0.019 A 
ATOM      2  C   UNL d   1      13.685  12.194  -3.206  0.00  0.00     0.103 A 
ATOM      3  C   UNL d   1      13.719  13.017  -3.224  0.00  0.00     0.024 A 
ATOM      4  O   UNL d   1      13.371  11.779  -3.845  0.00  0.00    -0.273 OA
ATOM      5  C   UNL d   1      13.092  12.198  -4.502  0.00  0.00     0.300 A 
ATOM      6  C   UNL d   1      13.126  13.022  -4.520  0.00  0.00     0.070 A 
ATOM      7  C   UNL d   1      14.034  13.427  -2.581  0.00  0.00     0.002 A 
ATOM      8  C   UNL d   1      13.966  11.779  -2.545  0.00  0.00     0.025 A 
ATOM      9  C   UNL d   1      14.314  13.021  -1.925  0.00  0.00     0.000 A 
ATOM     10  O   UNL d   1      12.775  11.783  -5.148  0.00  0.00    -0.259 OA
ATOM     11  C   UNL d   1      14.280  12.193  -1.907  0.00  0.00     0.002 A 
ATOM     12  C   UNL d   1      14.071  14.251  -2.592  0.00  0.00     0.000 C 
ATOM     13  C   UNL d   1      14.563  11.783  -1.242  0.00  0.00     0.000 C 
ENDROOT
BRANCH   1  14
ATOM     14  C   UNL d   1      13.479  14.259  -3.888  0.00  0.00     0.069 C 
ATOM     15 CL   UNL d   1      13.047  14.678  -4.451  0.00  0.00    -0.082 Cl
ENDBRANCH   1  14
TORSDOF 1
ENDMDL
MODEL 3
REMARK VINA RESULT:      16.5      1.448      2.042
REMARK  1 active torsions:
REMARK  status: ('A' for Active; 'I' for Inactive)
REMARK    1  A    between atoms: C_12  and  C_1 
ROOT
ATOM      1  C   UNL d   1      14.514  12.249  -1.521  0.00  0.00     0.019 A 
ATOM      2  C   UNL d   1      13.292  11.902  -2.184  0.00  0.00     0.103 A 
ATOM      3  C   UNL d   1      14.082  12.133  -2.214  0.00  0.00     0.024 A 
ATOM      4  O   UNL d   1      12.924  11.783  -1.456  0.00  0.00    -0.273 OA
ATOM      5  C   UNL d   1      13.355  11.899  -0.760  0.00  0.00     0.300 A 
ATOM      6  C   UNL d   1      14.147  12.130  -0.790  0.00  0.00     0.070 A 
ATOM      7  C   UNL d   1      14.447  12.251  -2.945  0.00  0.00     0.002 A 
ATOM      8  C   UNL d   1      12.864  11.787  -2.885  0.00  0.00     0.025 A 
ATOM      9  C   UNL d   1      14.027  12.139  -3.642  0.00  0.00     0.000 A 
ATOM     10  O   UNL d   1      12.988  11.780  -0.025  0.00  0.00    -0.259 OA
ATOM     11  C   UNL d   1      13.232  11.906  -3.611  0.00  0.00     0.002 A 
ATOM     12  C   UNL d   1      15.237  12.483  -2.983  0.00  0.00     0.000 C 
ATOM     13  C   UNL d   1      12.808  11.793  -4.317  0.00  0.00     0.000 C 
ENDROOT
BRANCH   1  14
ATOM     14  C   UNL d   1      15.305  12.481  -1.559  0.00  0.00     0.069 C 
ATOM     15 CL   UNL d   1      15.550  13.155  -1.154  0.00  0.00    -0.082 Cl
ENDBRANCH   1  14
TORSDOF 1
ENDMDL
MODEL 4
REMARK VINA RESULT:      17.1      1.590      2.209
REMARK  1 active torsions:
REMARK  status: ('A' for Active; 'I' for Inactive)
REMARK    1  A    between atoms: C_12  and  C_1 
ROOT
ATOM      1  C   UNL d   1      14.199  13.431  -2.385  0.00  0.00     0.019 A 
ATOM      2  C   UNL d   1      13.780  12.193  -2.969  0.00  0.00     0.103 A 
ATOM      3  C   UNL d   1      13.844  13.014  -3.000  0.00  0.00     0.024 A 
ATOM      4  O   UNL d   1      14.072  11.779  -2.319  0.00  0.00    -0.273 OA
ATOM      5  C   UNL d   1      14.429  12.197  -1.701  0.00  0.00     0.300 A 
ATOM      6  C   UNL d   1      14.493  13.019  -1.731  0.00  0.00     0.070 A 
ATOM      7  C   UNL d   1      13.550  13.423  -3.653  0.00  0.00     0.002 A 
ATOM      8  C   UNL d   1      13.421  11.779  -3.593  0.00  0.00     0.025 A 
ATOM      9  C   UNL d   1      13.194  13.018  -4.272  0.00  0.00     0.000 A 
ATOM     10  O   UNL d   1      14.725  11.783  -1.044  0.00  0.00    -0.259 OA
ATOM     11  C   UNL d   1      13.129  12.192  -4.242  0.00  0.00     0.002 A 
ATOM     12  C   UNL d   1      13.611  14.245  -3.691  0.00  0.00     0.000 C 
ATOM     13  C   UNL d   1      12.769  11.783  -4.869  0.00  0.00     0.000 C 
ENDROOT
BRANCH   1  14
ATOM     14  C   UNL d   1      14.260  14.253  -2.422  0.00  0.00     0.069 C 
ATOM     15 CL   UNL d   1      14.648  14.659  -1.820  0.00  0.00    -0.082 Cl
ENDBRANCH   1  14
TORSDOF 1
ENDMDL
