MODEL 1
REMARK VINA RESULT:      77.6      0.000      0.000
REMARK  4 active torsions:
REMARK  status: ('A' for Active; 'I' for Inactive)
REMARK    1  A    between atoms: C_4  and  N_1 
REMARK    2  A    between atoms: S_8  and  C_5 
REMARK    3  A    between atoms: C_10  and  C_7 
REMARK    4  A    between atoms: C_9  and  S_8 
ROOT
ATOM      1  N   UNL d   1     -48.528  28.318  35.016  0.00  0.00    -0.241 N 
ATOM      2  C   UNL d   1     -49.221  28.152  35.425  0.00  0.00     0.268 A 
ATOM      3  C   UNL d   1     -48.495  27.828  34.350  0.00  0.00     0.273 A 
ATOM      4  C   UNL d   1     -49.170  27.360  34.351  0.00  0.00     0.091 A 
ATOM      5  C   UNL d   1     -49.621  27.557  35.013  0.00  0.00     0.072 A 
ATOM      6  O   UNL d   1     -49.474  28.513  36.123  0.00  0.00    -0.267 OA
ATOM      7  O   UNL d   1     -47.892  27.814  33.788  0.00  0.00    -0.266 OA
ENDROOT
BRANCH   1   8
ATOM      8  C   UNL d   1     -47.966  28.875  35.234  0.00  0.00     0.070 A 
ATOM      9  C   UNL d   1     -48.046  29.667  34.999  0.00  0.00     0.016 A 
ATOM     10  C   UNL d   1     -47.477  30.224  35.221  0.00  0.00     0.001 A 
ATOM     11  C   UNL d   1     -48.693  29.889  34.546  0.00  0.00     0.001 A 
ATOM     12  C   UNL d   1     -47.556  31.004  34.988  0.00  0.00     0.000 A 
ATOM     13  C   UNL d   1     -46.832  29.998  35.673  0.00  0.00     0.000 A 
ATOM     14  C   UNL d   1     -48.205  31.238  34.531  0.00  0.00     0.000 A 
ATOM     15  C   UNL d   1     -48.774  30.676  34.311  0.00  0.00     0.000 A 
ATOM     16  C   UNL d   1     -46.746  29.208  35.912  0.00  0.00     0.002 A 
ATOM     17  C   UNL d   1     -47.313  28.650  35.691  0.00  0.00     0.018 A 
ENDBRANCH   1   8
BRANCH   4  18
ATOM     18  S   UNL d   1     -49.368  26.787  33.784  0.00  0.00    -0.082 SA
BRANCH  18  19
ATOM     19  C   UNL d   1     -50.173  26.716  33.646  0.00  0.00     0.035 A 
ATOM     20  C   UNL d   1     -50.489  25.983  33.444  0.00  0.00     0.070 A 
ATOM     21  C   UNL d   1     -51.299  25.916  33.306  0.00  0.00     0.007 A 
ATOM     22  C   UNL d   1     -51.787  26.573  33.368  0.00  0.00     0.000 A 
ATOM     23  C   UNL d   1     -51.467  27.302  33.569  0.00  0.00     0.001 A 
ATOM     24  C   UNL d   1     -50.670  27.379  33.708  0.00  0.00     0.007 A 
BRANCH  20  25
ATOM     25  C   UNL d   1     -49.998  25.325  33.382  0.00  0.00     0.211 C 
ATOM     26  O   UNL d   1     -49.183  25.427  33.306  0.00  0.00    -0.644 OA
ATOM     27  O   UNL d   1     -50.324  24.566  33.397  0.00  0.00    -0.644 OA
ENDBRANCH  20  25
ENDBRANCH  18  19
ENDBRANCH   4  18
TORSDOF 4
ENDMDL
MODEL 2
REMARK VINA RESULT:      80.5      1.854      3.165
REMARK  4 active torsions:
REMARK  status: ('A' for Active; 'I' for Inactive)
REMARK    1  A    between atoms: C_4  and  N_1 
REMARK    2  A    between atoms: S_8  and  C_5 
REMARK    3  A    between atoms: C_10  and  C_7 
REMARK    4  A    between atoms: C_9  and  S_8 
ROOT
ATOM      1  N   UNL d   1     -50.782  26.853  34.573  0.00  0.00    -0.241 N 
ATOM      2  C   UNL d   1     -50.687  27.110  33.799  0.00  0.00     0.268 A 
ATOM      3  C   UNL d   1     -51.296  26.205  34.570  0.00  0.00     0.273 A 
ATOM      4  C   UNL d   1     -51.517  26.064  33.792  0.00  0.00     0.091 A 
ATOM      5  C   UNL d   1     -51.142  26.622  33.312  0.00  0.00     0.072 A 
ATOM      6  O   UNL d   1     -50.220  27.744  33.549  0.00  0.00    -0.267 OA
ATOM      7  O   UNL d   1     -51.541  25.778  35.231  0.00  0.00    -0.266 OA
ENDROOT
BRANCH   1   8
ATOM      8  C   UNL d   1     -50.426  27.185  35.234  0.00  0.00     0.070 A 
ATOM      9  C   UNL d   1     -49.671  27.524  35.180  0.00  0.00     0.016 A 
ATOM     10  C   UNL d   1     -49.318  27.857  35.850  0.00  0.00     0.001 A 
ATOM     11  C   UNL d   1     -49.282  27.526  34.458  0.00  0.00     0.001 A 
ATOM     12  C   UNL d   1     -48.573  28.191  35.795  0.00  0.00     0.000 A 
ATOM     13  C   UNL d   1     -49.711  27.852  36.568  0.00  0.00     0.000 A 
ATOM     14  C   UNL d   1     -48.172  28.198  35.072  0.00  0.00     0.000 A 
ATOM     15  C   UNL d   1     -48.530  27.863  34.403  0.00  0.00     0.000 A 
ATOM     16  C   UNL d   1     -50.466  27.515  36.630  0.00  0.00     0.002 A 
ATOM     17  C   UNL d   1     -50.820  27.182  35.963  0.00  0.00     0.018 A 
ENDBRANCH   1   8
BRANCH   4  18
ATOM     18  S   UNL d   1     -52.028  25.465  33.529  0.00  0.00    -0.082 SA
BRANCH  18  19
ATOM     19  C   UNL d   1     -51.680  24.724  33.484  0.00  0.00     0.035 A 
ATOM     20  C   UNL d   1     -52.145  24.050  33.570  0.00  0.00     0.070 A 
ATOM     21  C   UNL d   1     -51.792  23.306  33.524  0.00  0.00     0.007 A 
ATOM     22  C   UNL d   1     -50.984  23.237  33.393  0.00  0.00     0.000 A 
ATOM     23  C   UNL d   1     -50.525  23.913  33.308  0.00  0.00     0.001 A 
ATOM     24  C   UNL d   1     -50.863  24.650  33.352  0.00  0.00     0.007 A 
BRANCH  20  25
ATOM     25  C   UNL d   1     -52.954  24.121  33.701  0.00  0.00     0.211 C 
ATOM     26  O   UNL d   1     -53.332  23.607  34.225  0.00  0.00    -0.644 OA
ATOM     27  O   UNL d   1     -53.385  24.706  33.308  0.00  0.00    -0.644 OA
ENDBRANCH  20  25
ENDBRANCH  18  19
ENDBRANCH   4  18
TORSDOF 4
ENDMDL
