MODEL 1
REMARK VINA RESULT:       6.5      0.000      0.000
REMARK  4 active torsions:
REMARK  status: ('A' for Active; 'I' for Inactive)
REMARK    1  A    between atoms: C_18  and  N_4 
REMARK    2  A    between atoms: C_11  and  C_6 
REMARK       I    between atoms: N_15  and  C_11 
REMARK    3  A    between atoms: C_26  and  N_15 
REMARK    4  A    between atoms: C_17  and  C_26 
ROOT
ATOM      1  C   UNL d   1     -41.815-121.886 -52.825  0.00  0.00     0.155 A 
ATOM      2  C   UNL d   1     -42.001-122.686 -52.887  0.00  0.00     0.091 A 
ATOM      3  N   UNL d   1     -41.832-121.413 -53.504  0.00  0.00    -0.210 NA
ATOM      4  N   UNL d   1     -41.617-121.572 -52.103  0.00  0.00    -0.275 N 
ATOM      5  C   UNL d   1     -41.600-122.038 -51.433  0.00  0.00     0.175 A 
ATOM      6  C   UNL d   1     -41.786-122.836 -51.495  0.00  0.00     0.094 A 
ATOM      7  N   UNL d   1     -42.221-122.537 -54.300  0.00  0.00    -0.258 N 
ATOM      8  C   UNL d   1     -42.031-121.726 -54.237  0.00  0.00     0.152 A 
ATOM      9  C   UNL d   1     -42.208-123.023 -53.629  0.00  0.00     0.269 A 
ATOM     10  C   UNL d   1     -41.988-123.169 -52.218  0.00  0.00     0.016 A 
ATOM     11  C   UNL d   1     -42.047-121.254 -54.904  0.00  0.00     0.035 A 
ATOM     12  N   UNL d   1     -41.398-121.719 -50.693  0.00  0.00    -0.128 N 
ATOM     13  C   UNL d   1     -42.422-122.864 -55.029  0.00  0.00     0.084 A 
ATOM     14  O   UNL d   1     -42.391-123.816 -53.682  0.00  0.00    -0.266 OA
ATOM     15  C   UNL d   1     -42.435-122.379 -55.698  0.00  0.00     0.019 A 
ATOM     16  C   UNL d   1     -42.246-121.567 -55.634  0.00  0.00     0.005 A 
ATOM     17  C   UNL d   1     -41.859-120.448 -54.841  0.00  0.00     0.003 C 
ENDROOT
BRANCH   6  18
ATOM     18  C   UNL d   1     -41.771-123.317 -50.817  0.00  0.00     0.282 C 
ATOM     19  N   UNL d   1     -42.397-123.299 -50.280  0.00  0.00    -0.204 NA
ATOM     20  O   UNL d   1     -41.123-123.815 -50.681  0.00  0.00    -0.265 OA
BRANCH  19  21
ATOM     21  C   UNL d   1     -42.381-123.774 -49.611  0.00  0.00     0.127 C 
BRANCH  21  22
ATOM     22  C   UNL d   1     -42.643-123.479 -48.881  0.00  0.00     0.119 A 
ATOM     23  O   UNL d   1     -43.334-123.042 -48.752  0.00  0.00    -0.304 OA
ATOM     24  C   UNL d   1     -43.372-122.866 -47.944  0.00  0.00     0.123 A 
ATOM     25  C   UNL d   1     -42.708-123.193 -47.581  0.00  0.00     0.029 A 
ATOM     26  C   UNL d   1     -42.257-123.573 -48.164  0.00  0.00     0.028 A 
ENDBRANCH  21  22
ENDBRANCH  19  21
ENDBRANCH   6  18
BRANCH   4  27
ATOM     27  C   UNL d   1     -41.429-120.766 -52.040  0.00  0.00     0.067 A 
ATOM     28  C   UNL d   1     -41.290-120.363 -51.335  0.00  0.00     0.018 A 
ATOM     29  C   UNL d   1     -41.123-119.577 -51.524  0.00  0.00     0.002 A 
ATOM     30  C   UNL d   1     -41.159-119.493 -52.355  0.00  0.00     0.002 A 
ATOM     31  C   UNL d   1     -41.349-120.232 -52.662  0.00  0.00     0.018 A 
ENDBRANCH   4  27
TORSDOF 4
ENDMDL
