MODEL 1
REMARK VINA RESULT:       9.2      0.000      0.000
REMARK  5 active torsions:
REMARK  status: ('A' for Active; 'I' for Inactive)
REMARK    1  A    between atoms: C_11  and  N_5 
REMARK    2  A    between atoms: C_15  and  C_8 
REMARK    3  A    between atoms: C_12  and  C_11 
REMARK    4  A    between atoms: O_20  and  C_15 
REMARK    5  A    between atoms: C_23  and  O_20 
ROOT
ATOM      1  C   UNL d   1     -42.224-122.406 -49.984  0.00  0.00     0.130 A 
ATOM      2  C   UNL d   1     -42.762-122.886 -50.376  0.00  0.00     0.157 A 
ATOM      3  C   UNL d   1     -41.675-121.961 -50.415  0.00  0.00     0.272 A 
ATOM      4  N   UNL d   1     -42.756-122.924 -51.197  0.00  0.00    -0.208 NA
ATOM      5  N   UNL d   1     -41.669-121.999 -51.236  0.00  0.00    -0.254 N 
ATOM      6  C   UNL d   1     -42.227-122.365 -49.157  0.00  0.00     0.204 A 
ATOM      7  N   UNL d   1     -43.314-123.334 -49.943  0.00  0.00    -0.289 N 
ATOM      8  C   UNL d   1     -42.207-122.479 -51.628  0.00  0.00     0.177 A 
ATOM      9  C   UNL d   1     -42.779-122.813 -48.724  0.00  0.00     0.055 A 
ATOM     10  C   UNL d   1     -43.320-123.296 -49.123  0.00  0.00     0.069 A 
ATOM     11  O   UNL d   1     -41.123-121.469 -50.020  0.00  0.00    -0.266 OA
ATOM     12  O   UNL d   1     -41.684-121.881 -48.764  0.00  0.00    -0.286 OA
ATOM     13  C   UNL d   1     -43.857-123.817 -50.337  0.00  0.00     0.101 C 
ATOM     14  C   UNL d   1     -42.784-122.773 -47.900  0.00  0.00     0.005 A 
ATOM     15  C   UNL d   1     -43.866-123.738 -48.694  0.00  0.00     0.018 A 
ATOM     16  C   UNL d   1     -43.329-123.216 -47.471  0.00  0.00     0.000 A 
ATOM     17  C   UNL d   1     -43.873-123.701 -47.873  0.00  0.00     0.002 A 
ENDROOT
BRANCH   8  18
ATOM     18  C   UNL d   1     -42.199-122.516 -52.463  0.00  0.00     0.160 C 
BRANCH  18  19
ATOM     19  O   UNL d   1     -41.779-123.116 -52.844  0.00  0.00    -0.302 OA
BRANCH  19  20
ATOM     20  C   UNL d   1     -41.770-123.149 -53.667  0.00  0.00     0.100 A 
ATOM     21  C   UNL d   1     -42.323-123.613 -54.060  0.00  0.00     0.025 A 
ATOM     22  C   UNL d   1     -42.319-123.651 -54.888  0.00  0.00     0.002 A 
ATOM     23  C   UNL d   1     -41.759-123.220 -55.309  0.00  0.00     0.000 A 
ATOM     24  C   UNL d   1     -41.206-122.754 -54.911  0.00  0.00     0.002 A 
ATOM     25  C   UNL d   1     -41.211-122.719 -54.091  0.00  0.00     0.025 A 
ENDBRANCH  19  20
ENDBRANCH  18  19
ENDBRANCH   8  18
BRANCH   5  26
ATOM     26  C   UNL d   1     -41.123-121.556 -51.664  0.00  0.00     0.109 C 
BRANCH  26  27
ATOM     27  C   UNL d   1     -41.154-120.735 -51.647  0.00  0.00     0.118 A 
ATOM     28  O   UNL d   1     -41.194-120.195 -51.026  0.00  0.00    -0.304 OA
ATOM     29  C   UNL d   1     -41.211-119.440 -51.352  0.00  0.00     0.123 A 
ATOM     30  C   UNL d   1     -41.183-119.497 -52.164  0.00  0.00     0.029 A 
ATOM     31  C   UNL d   1     -41.147-120.304 -52.355  0.00  0.00     0.028 A 
ENDBRANCH  26  27
ENDBRANCH   5  26
TORSDOF 5
ENDMDL
