MODEL 1
REMARK VINA RESULT:      -0.5      0.000      0.000
REMARK  3 active torsions:
REMARK  status: ('A' for Active; 'I' for Inactive)
REMARK    1  A    between atoms: C_2  and  O_3 
REMARK    2  A    between atoms: O_3  and  C_5 
REMARK    3  A    between atoms: C_5  and  C_4 
ROOT
ATOM      1  C   UNL d   1      45.408 -13.541  44.223  0.00  0.00     0.100 A 
ATOM      2  C   UNL d   1      44.753 -14.042  44.250  0.00  0.00     0.025 A 
ATOM      3  C   UNL d   1      46.121 -13.776  44.562  0.00  0.00     0.025 A 
ATOM      4  C   UNL d   1      44.805 -14.782  44.617  0.00  0.00     0.002 A 
ATOM      5  C   UNL d   1      46.172 -14.516  44.928  0.00  0.00     0.002 A 
ATOM      6  C   UNL d   1      45.523 -15.012  44.955  0.00  0.00     0.000 A 
ENDROOT
BRANCH   1   7
ATOM      7  O   UNL d   1      45.351 -12.806  43.857  0.00  0.00    -0.303 OA
BRANCH   7   8
ATOM      8  C   UNL d   1      44.866 -12.705  43.193  0.00  0.00     0.145 C 
BRANCH   8   9
ATOM      9  C   UNL d   1      44.999 -12.084  42.670  0.00  0.00     0.149 C 
ATOM     10  N   UNL d   1      44.841 -12.172  41.867  0.00  0.00    -0.144 N 
ENDBRANCH   8   9
ENDBRANCH   7   8
ENDBRANCH   1   7
TORSDOF 3
ENDMDL
MODEL 2
REMARK VINA RESULT:      -0.4      7.093      7.738
REMARK  3 active torsions:
REMARK  status: ('A' for Active; 'I' for Inactive)
REMARK    1  A    between atoms: C_2  and  O_3 
REMARK    2  A    between atoms: O_3  and  C_5 
REMARK    3  A    between atoms: C_5  and  C_4 
ROOT
ATOM      1  C   UNL d   1      45.266 -15.345  36.704  0.00  0.00     0.100 A 
ATOM      2  C   UNL d   1      46.027 -15.486  36.417  0.00  0.00     0.025 A 
ATOM      3  C   UNL d   1      45.116 -14.681  37.168  0.00  0.00     0.025 A 
ATOM      4  C   UNL d   1      46.645 -14.965  36.592  0.00  0.00     0.002 A 
ATOM      5  C   UNL d   1      45.735 -14.161  37.342  0.00  0.00     0.002 A 
ATOM      6  C   UNL d   1      46.488 -14.301  37.059  0.00  0.00     0.000 A 
ENDROOT
BRANCH   1   7
ATOM      7  O   UNL d   1      44.655 -15.867  36.526  0.00  0.00    -0.303 OA
BRANCH   7   8
ATOM      8  C   UNL d   1      43.889 -15.583  36.388  0.00  0.00     0.145 C 
BRANCH   8   9
ATOM      9  C   UNL d   1      43.255 -16.105  36.330  0.00  0.00     0.149 C 
ATOM     10  N   UNL d   1      42.481 -15.826  36.345  0.00  0.00    -0.144 N 
ENDBRANCH   8   9
ENDBRANCH   7   8
ENDBRANCH   1   7
TORSDOF 3
ENDMDL
MODEL 3
REMARK VINA RESULT:       0.6      1.894      2.920
REMARK  3 active torsions:
REMARK  status: ('A' for Active; 'I' for Inactive)
REMARK    1  A    between atoms: C_2  and  O_3 
REMARK    2  A    between atoms: O_3  and  C_5 
REMARK    3  A    between atoms: C_5  and  C_4 
ROOT
ATOM      1  C   UNL d   1      45.311 -13.518  44.552  0.00  0.00     0.100 A 
ATOM      2  C   UNL d   1      45.798 -12.963  44.920  0.00  0.00     0.025 A 
ATOM      3  C   UNL d   1      44.981 -13.354  43.815  0.00  0.00     0.025 A 
ATOM      4  C   UNL d   1      45.961 -12.239  44.554  0.00  0.00     0.002 A 
ATOM      5  C   UNL d   1      45.144 -12.630  43.450  0.00  0.00     0.002 A 
ATOM      6  C   UNL d   1      45.627 -12.080  43.814  0.00  0.00     0.000 A 
ENDROOT
BRANCH   1   7
ATOM      7  O   UNL d   1      45.152 -14.237  44.921  0.00  0.00    -0.303 OA
BRANCH   7   8
ATOM      8  C   UNL d   1      45.513 -14.933  44.654  0.00  0.00     0.145 C 
BRANCH   8   9
ATOM      9  C   UNL d   1      45.284 -15.663  44.955  0.00  0.00     0.149 C 
ATOM     10  N   UNL d   1      45.765 -16.324  44.860  0.00  0.00    -0.144 N 
ENDBRANCH   8   9
ENDBRANCH   7   8
ENDBRANCH   1   7
TORSDOF 3
ENDMDL
MODEL 4
REMARK VINA RESULT:       0.8      7.217      7.687
REMARK  3 active torsions:
REMARK  status: ('A' for Active; 'I' for Inactive)
REMARK    1  A    between atoms: C_2  and  O_3 
REMARK    2  A    between atoms: O_3  and  C_5 
REMARK    3  A    between atoms: C_5  and  C_4 
ROOT
ATOM      1  C   UNL d   1      44.360 -15.652  36.914  0.00  0.00     0.100 A 
ATOM      2  C   UNL d   1      43.848 -15.061  37.178  0.00  0.00     0.025 A 
ATOM      3  C   UNL d   1      44.063 -16.301  36.503  0.00  0.00     0.025 A 
ATOM      4  C   UNL d   1      43.035 -15.114  37.033  0.00  0.00     0.002 A 
ATOM      5  C   UNL d   1      43.250 -16.353  36.359  0.00  0.00     0.002 A 
ATOM      6  C   UNL d   1      42.743 -15.768  36.620  0.00  0.00     0.000 A 
ENDROOT
BRANCH   1   7
ATOM      7  O   UNL d   1      45.167 -15.594  37.060  0.00  0.00    -0.303 OA
BRANCH   7   8
ATOM      8  C   UNL d   1      45.655 -15.156  36.553  0.00  0.00     0.145 C 
BRANCH   8   9
ATOM      9  C   UNL d   1      46.425 -14.969  36.774  0.00  0.00     0.149 C 
ATOM     10  N   UNL d   1      46.615 -14.209  37.026  0.00  0.00    -0.144 N 
ENDBRANCH   8   9
ENDBRANCH   7   8
ENDBRANCH   1   7
TORSDOF 3
ENDMDL
