MODEL 1
REMARK VINA RESULT:      -9.2      0.000      0.000
REMARK  3 active torsions:
REMARK  status: ('A' for Active; 'I' for Inactive)
REMARK    1  A    between atoms: N_4  and  C_2 
REMARK    2  A    between atoms: C_12  and  C_10 
REMARK    3  A    between atoms: C_19  and  C_11 
ROOT
ATOM      1  C   UNL d   1     -48.527  13.829  22.892  0.00  0.00     0.152 A 
ATOM      2  C   UNL d   1     -49.318  13.707  22.987  0.00  0.00     0.174 A 
ATOM      3  C   UNL d   1     -48.233  14.601  22.827  0.00  0.00     0.111 A 
ATOM      4  O   UNL d   1     -48.001  13.182  22.860  0.00  0.00    -0.302 OA
ATOM      5  N   UNL d   1     -49.836  14.337  23.019  0.00  0.00    -0.207 NA
ATOM      6  C   UNL d   1     -46.900  14.083  22.698  0.00  0.00     0.043 A 
ATOM      7  N   UNL d   1     -48.736  15.238  22.857  0.00  0.00    -0.225 NA
ATOM      8  C   UNL d   1     -47.190  13.320  22.763  0.00  0.00     0.102 A 
ATOM      9  C   UNL d   1     -49.542  15.109  22.954  0.00  0.00     0.164 A 
ATOM     10  C   UNL d   1     -46.093  14.213  22.602  0.00  0.00     0.004 A 
ATOM     11  C   UNL d   1     -46.671  12.680  22.731  0.00  0.00     0.025 A 
ATOM     12  C   UNL d   1     -45.572  13.577  22.570  0.00  0.00     0.000 A 
ATOM     13  C   UNL d   1     -45.857  12.802  22.634  0.00  0.00     0.002 A 
ENDROOT
BRANCH   2  14
ATOM     14  N   UNL d   1     -49.608  12.944  23.051  0.00  0.00    -0.284 N 
ATOM     15  C   UNL d   1     -50.053  12.544  22.496  0.00  0.00     0.130 A 
ATOM     16  C   UNL d   1     -50.222  11.800  22.787  0.00  0.00     0.025 A 
ATOM     17  C   UNL d   1     -49.881  11.733  23.530  0.00  0.00     0.021 A 
ATOM     18  C   UNL d   1     -49.497  12.443  23.698  0.00  0.00     0.082 A 
BRANCH  15  19
ATOM     19  C   UNL d   1     -50.301  12.851  21.738  0.00  0.00     0.228 C 
ATOM     20  O   UNL d   1     -51.040  13.261  21.669  0.00  0.00    -0.643 OA
ATOM     21  O   UNL d   1     -49.807  12.745  21.057  0.00  0.00    -0.643 OA
ENDBRANCH  15  19
ENDBRANCH   2  14
BRANCH   9  22
ATOM     22  C   UNL d   1     -50.085  15.772  22.987  0.00  0.00     0.039 C 
ATOM     23  C   UNL d   1     -50.527  15.919  23.692  0.00  0.00     0.003 C 
ENDBRANCH   9  22
TORSDOF 3
ENDMDL
MODEL 2
REMARK VINA RESULT:      -8.2      0.898      1.229
REMARK  3 active torsions:
REMARK  status: ('A' for Active; 'I' for Inactive)
REMARK    1  A    between atoms: N_4  and  C_2 
REMARK    2  A    between atoms: C_12  and  C_10 
REMARK    3  A    between atoms: C_19  and  C_11 
ROOT
ATOM      1  C   UNL d   1     -48.469  13.123  23.088  0.00  0.00     0.152 A 
ATOM      2  C   UNL d   1     -49.231  13.355  22.965  0.00  0.00     0.174 A 
ATOM      3  C   UNL d   1     -47.857  13.679  23.044  0.00  0.00     0.111 A 
ATOM      4  O   UNL d   1     -48.293  12.326  23.261  0.00  0.00    -0.302 OA
ATOM      5  N   UNL d   1     -49.408  14.134  22.796  0.00  0.00    -0.207 NA
ATOM      6  C   UNL d   1     -46.900  12.650  23.342  0.00  0.00     0.043 A 
ATOM      7  N   UNL d   1     -48.016  14.458  22.877  0.00  0.00    -0.225 NA
ATOM      8  C   UNL d   1     -47.506  12.100  23.386  0.00  0.00     0.102 A 
ATOM      9  C   UNL d   1     -48.796  14.690  22.752  0.00  0.00     0.164 A 
ATOM     10  C   UNL d   1     -46.121  12.418  23.467  0.00  0.00     0.004 A 
ATOM     11  C   UNL d   1     -47.332  11.312  23.556  0.00  0.00     0.025 A 
ATOM     12  C   UNL d   1     -45.944  11.633  23.637  0.00  0.00     0.000 A 
ATOM     13  C   UNL d   1     -46.550  11.071  23.684  0.00  0.00     0.002 A 
ENDROOT
BRANCH   2  14
ATOM     14  N   UNL d   1     -49.836  12.805  23.009  0.00  0.00    -0.284 N 
ATOM     15  C   UNL d   1     -50.295  12.536  22.390  0.00  0.00     0.130 A 
ATOM     16  C   UNL d   1     -50.830  11.992  22.681  0.00  0.00     0.025 A 
ATOM     17  C   UNL d   1     -50.706  11.920  23.489  0.00  0.00     0.021 A 
ATOM     18  C   UNL d   1     -50.089  12.424  23.697  0.00  0.00     0.082 A 
BRANCH  15  19
ATOM     19  C   UNL d   1     -50.227  12.780  21.573  0.00  0.00     0.228 C 
ATOM     20  O   UNL d   1     -49.660  12.406  21.065  0.00  0.00    -0.643 OA
ATOM     21  O   UNL d   1     -50.726  13.396  21.274  0.00  0.00    -0.643 OA
ENDBRANCH  15  19
ENDBRANCH   2  14
BRANCH   9  22
ATOM     22  C   UNL d   1     -48.980  15.508  22.574  0.00  0.00     0.039 C 
ATOM     23  C   UNL d   1     -49.551  15.922  23.040  0.00  0.00     0.003 C 
ENDBRANCH   9  22
TORSDOF 3
ENDMDL
MODEL 3
REMARK VINA RESULT:      -8.1      0.774      2.364
REMARK  3 active torsions:
REMARK  status: ('A' for Active; 'I' for Inactive)
REMARK    1  A    between atoms: N_4  and  C_2 
REMARK    2  A    between atoms: C_12  and  C_10 
REMARK    3  A    between atoms: C_19  and  C_11 
ROOT
ATOM      1  C   UNL d   1     -48.576  13.346  23.147  0.00  0.00     0.152 A 
ATOM      2  C   UNL d   1     -49.347  13.569  23.220  0.00  0.00     0.174 A 
ATOM      3  C   UNL d   1     -48.365  12.552  23.256  0.00  0.00     0.111 A 
ATOM      4  O   UNL d   1     -47.989  13.909  22.963  0.00  0.00    -0.302 OA
ATOM      5  N   UNL d   1     -49.925  13.021  23.400  0.00  0.00    -0.207 NA
ATOM      6  C   UNL d   1     -46.992  12.883  22.999  0.00  0.00     0.043 A 
ATOM      7  N   UNL d   1     -48.929  11.995  23.435  0.00  0.00    -0.225 NA
ATOM      8  C   UNL d   1     -47.201  13.667  22.891  0.00  0.00     0.102 A 
ATOM      9  C   UNL d   1     -49.714  12.228  23.508  0.00  0.00     0.164 A 
ATOM     10  C   UNL d   1     -46.206  12.650  22.926  0.00  0.00     0.004 A 
ATOM     11  C   UNL d   1     -46.620  14.225  22.709  0.00  0.00     0.025 A 
ATOM     12  C   UNL d   1     -45.624  13.202  22.744  0.00  0.00     0.000 A 
ATOM     13  C   UNL d   1     -45.827  13.998  22.634  0.00  0.00     0.002 A 
ENDROOT
BRANCH   2  14
ATOM     14  N   UNL d   1     -49.556  14.354  23.113  0.00  0.00    -0.284 N 
ATOM     15  C   UNL d   1     -49.975  14.665  22.485  0.00  0.00     0.130 A 
ATOM     16  C   UNL d   1     -50.058  15.469  22.602  0.00  0.00     0.025 A 
ATOM     17  C   UNL d   1     -49.690  15.663  23.308  0.00  0.00     0.021 A 
ATOM     18  C   UNL d   1     -49.375  14.972  23.629  0.00  0.00     0.082 A 
BRANCH  15  19
ATOM     19  C   UNL d   1     -50.276  14.224  21.817  0.00  0.00     0.228 C 
ATOM     20  O   UNL d   1     -49.785  14.098  21.137  0.00  0.00    -0.643 OA
ATOM     21  O   UNL d   1     -51.064  13.914  21.836  0.00  0.00    -0.643 OA
ENDBRANCH  15  19
ENDBRANCH   2  14
BRANCH   9  22
ATOM     22  C   UNL d   1     -50.320  11.651  23.697  0.00  0.00     0.039 C 
ATOM     23  C   UNL d   1     -50.133  10.827  23.692  0.00  0.00     0.003 C 
ENDBRANCH   9  22
TORSDOF 3
ENDMDL
MODEL 4
REMARK VINA RESULT:      -7.2      1.965      4.417
REMARK  3 active torsions:
REMARK  status: ('A' for Active; 'I' for Inactive)
REMARK    1  A    between atoms: N_4  and  C_2 
REMARK    2  A    between atoms: C_12  and  C_10 
REMARK    3  A    between atoms: C_19  and  C_11 
ROOT
ATOM      1  C   UNL d   1     -47.265  12.316  23.352  0.00  0.00     0.152 A 
ATOM      2  C   UNL d   1     -46.527  12.623  23.253  0.00  0.00     0.174 A 
ATOM      3  C   UNL d   1     -47.356  11.522  23.568  0.00  0.00     0.111 A 
ATOM      4  O   UNL d   1     -47.940  12.793  23.237  0.00  0.00    -0.302 OA
ATOM      5  N   UNL d   1     -45.864  12.160  23.364  0.00  0.00    -0.207 NA
ATOM      6  C   UNL d   1     -48.783  11.681  23.555  0.00  0.00     0.043 A 
ATOM      7  N   UNL d   1     -46.706  11.047  23.682  0.00  0.00    -0.225 NA
ATOM      8  C   UNL d   1     -48.694  12.466  23.341  0.00  0.00     0.102 A 
ATOM      9  C   UNL d   1     -45.955  11.366  23.581  0.00  0.00     0.164 A 
ATOM     10  C   UNL d   1     -49.535  11.362  23.656  0.00  0.00     0.004 A 
ATOM     11  C   UNL d   1     -49.360  12.939  23.227  0.00  0.00     0.025 A 
ATOM     12  C   UNL d   1     -50.202  11.830  23.544  0.00  0.00     0.000 A 
ATOM     13  C   UNL d   1     -50.121  12.625  23.328  0.00  0.00     0.002 A 
ENDROOT
BRANCH   2  14
ATOM     14  N   UNL d   1     -46.438  13.409  23.039  0.00  0.00    -0.284 N 
ATOM     15  C   UNL d   1     -46.006  13.696  22.409  0.00  0.00     0.130 A 
ATOM     16  C   UNL d   1     -46.068  14.510  22.401  0.00  0.00     0.025 A 
ATOM     17  C   UNL d   1     -46.542  14.735  23.031  0.00  0.00     0.021 A 
ATOM     18  C   UNL d   1     -46.774  14.053  23.431  0.00  0.00     0.082 A 
BRANCH  15  19
ATOM     19  C   UNL d   1     -45.563  13.224  21.850  0.00  0.00     0.228 C 
ATOM     20  O   UNL d   1     -45.955  12.881  21.181  0.00  0.00    -0.643 OA
ATOM     21  O   UNL d   1     -44.732  13.101  21.966  0.00  0.00    -0.643 OA
ENDBRANCH  15  19
ENDBRANCH   2  14
BRANCH   9  22
ATOM     22  C   UNL d   1     -45.259  10.878  23.698  0.00  0.00     0.039 C 
ATOM     23  C   UNL d   1     -45.323  10.036  23.653  0.00  0.00     0.003 C 
ENDBRANCH   9  22
TORSDOF 3
ENDMDL
MODEL 5
REMARK VINA RESULT:      -6.5      8.793     10.208
REMARK  3 active torsions:
REMARK  status: ('A' for Active; 'I' for Inactive)
REMARK    1  A    between atoms: N_4  and  C_2 
REMARK    2  A    between atoms: C_12  and  C_10 
REMARK    3  A    between atoms: C_19  and  C_11 
ROOT
ATOM      1  C   UNL d   1     -39.655  14.556  18.390  0.00  0.00     0.152 A 
ATOM      2  C   UNL d   1     -39.929  15.232  18.733  0.00  0.00     0.174 A 
ATOM      3  C   UNL d   1     -39.953  14.317  17.655  0.00  0.00     0.111 A 
ATOM      4  O   UNL d   1     -39.073  14.096  18.770  0.00  0.00    -0.302 OA
ATOM      5  N   UNL d   1     -40.499  15.686  18.365  0.00  0.00    -0.207 NA
ATOM      6  C   UNL d   1     -39.094  13.167  17.681  0.00  0.00     0.043 A 
ATOM      7  N   UNL d   1     -40.521  14.758  17.276  0.00  0.00    -0.225 NA
ATOM      8  C   UNL d   1     -38.799  13.403  18.407  0.00  0.00     0.102 A 
ATOM      9  C   UNL d   1     -40.797  15.447  17.630  0.00  0.00     0.164 A 
ATOM     10  C   UNL d   1     -38.818  12.478  17.326  0.00  0.00     0.004 A 
ATOM     11  C   UNL d   1     -38.223  12.948  18.783  0.00  0.00     0.025 A 
ATOM     12  C   UNL d   1     -38.243  12.022  17.698  0.00  0.00     0.000 A 
ATOM     13  C   UNL d   1     -37.940  12.253  18.432  0.00  0.00     0.002 A 
ENDROOT
BRANCH   2  14
ATOM     14  N   UNL d   1     -39.634  15.468  19.460  0.00  0.00    -0.284 N 
ATOM     15  C   UNL d   1     -40.035  15.472  20.170  0.00  0.00     0.130 A 
ATOM     16  C   UNL d   1     -39.532  15.749  20.751  0.00  0.00     0.025 A 
ATOM     17  C   UNL d   1     -38.810  15.921  20.402  0.00  0.00     0.021 A 
ATOM     18  C   UNL d   1     -38.869  15.747  19.598  0.00  0.00     0.082 A 
BRANCH  15  19
ATOM     19  C   UNL d   1     -40.846  15.227  20.288  0.00  0.00     0.228 C 
ATOM     20  O   UNL d   1     -41.469  15.801  20.262  0.00  0.00    -0.643 OA
ATOM     21  O   UNL d   1     -41.024  14.411  20.431  0.00  0.00    -0.643 OA
ENDBRANCH  15  19
ENDBRANCH   2  14
BRANCH   9  22
ATOM     22  C   UNL d   1     -41.396  15.922  17.242  0.00  0.00     0.039 C 
ATOM     23  C   UNL d   1     -41.694  15.689  16.487  0.00  0.00     0.003 C 
ENDBRANCH   9  22
TORSDOF 3
ENDMDL
MODEL 6
REMARK VINA RESULT:      -6.4      1.158      3.327
REMARK  3 active torsions:
REMARK  status: ('A' for Active; 'I' for Inactive)
REMARK    1  A    between atoms: N_4  and  C_2 
REMARK    2  A    between atoms: C_12  and  C_10 
REMARK    3  A    between atoms: C_19  and  C_11 
ROOT
ATOM      1  C   UNL d   1     -48.600  13.419  23.194  0.00  0.00     0.152 A 
ATOM      2  C   UNL d   1     -48.392  14.187  23.066  0.00  0.00     0.174 A 
ATOM      3  C   UNL d   1     -48.016  12.832  23.213  0.00  0.00     0.111 A 
ATOM      4  O   UNL d   1     -49.400  13.211  23.306  0.00  0.00    -0.302 OA
ATOM      5  N   UNL d   1     -47.611  14.395  22.955  0.00  0.00    -0.207 NA
ATOM      6  C   UNL d   1     -49.023  11.838  23.456  0.00  0.00     0.043 A 
ATOM      7  N   UNL d   1     -47.234  13.023  23.105  0.00  0.00    -0.225 NA
ATOM      8  C   UNL d   1     -49.601  12.418  23.437  0.00  0.00     0.102 A 
ATOM      9  C   UNL d   1     -47.027  13.808  22.975  0.00  0.00     0.164 A 
ATOM     10  C   UNL d   1     -49.230  11.052  23.586  0.00  0.00     0.004 A 
ATOM     11  C   UNL d   1     -50.392  12.213  23.548  0.00  0.00     0.025 A 
ATOM     12  C   UNL d   1     -50.018  10.844  23.698  0.00  0.00     0.000 A 
ATOM     13  C   UNL d   1     -50.608  11.424  23.680  0.00  0.00     0.002 A 
ENDROOT
BRANCH   2  14
ATOM     14  N   UNL d   1     -48.970  14.767  23.046  0.00  0.00    -0.284 N 
ATOM     15  C   UNL d   1     -49.223  15.181  22.390  0.00  0.00     0.130 A 
ATOM     16  C   UNL d   1     -49.805  15.704  22.622  0.00  0.00     0.025 A 
ATOM     17  C   UNL d   1     -49.918  15.619  23.429  0.00  0.00     0.021 A 
ATOM     18  C   UNL d   1     -49.401  15.036  23.698  0.00  0.00     0.082 A 
BRANCH  15  19
ATOM     19  C   UNL d   1     -48.928  15.084  21.593  0.00  0.00     0.228 C 
ATOM     20  O   UNL d   1     -48.288  15.566  21.317  0.00  0.00    -0.643 OA
ATOM     21  O   UNL d   1     -49.276  14.505  21.082  0.00  0.00    -0.643 OA
ENDBRANCH  15  19
ENDBRANCH   2  14
BRANCH   9  22
ATOM     22  C   UNL d   1     -46.205  14.025  22.859  0.00  0.00     0.039 C 
ATOM     23  C   UNL d   1     -45.709  13.548  22.368  0.00  0.00     0.003 C 
ENDBRANCH   9  22
TORSDOF 3
ENDMDL
