MODEL 1
REMARK VINA RESULT:      14.0      0.000      0.000
REMARK  4 active torsions:
REMARK  status: ('A' for Active; 'I' for Inactive)
REMARK    1  A    between atoms: N_3  and  S_1 
REMARK    2  A    between atoms: C_5  and  S_1 
REMARK    3  A    between atoms: C_2  and  C_9 
REMARK       I    between atoms: N_4  and  C_2 
REMARK    4  A    between atoms: C_11  and  N_3 
ROOT
ATOM      1  C   UNL d   1      46.149 -17.402  43.597  0.00  0.00     0.057 A 
ATOM      2  C   UNL d   1      45.673 -16.114  44.506  0.00  0.00     0.094 A 
ATOM      3  C   UNL d   1      46.331 -17.376  44.403  0.00  0.00     0.006 A 
ATOM      4  C   UNL d   1      45.730 -16.787  43.243  0.00  0.00     0.006 A 
ATOM      5  C   UNL d   1      46.091 -16.729  44.856  0.00  0.00     0.020 A 
ATOM      6  C   UNL d   1      45.490 -16.143  43.690  0.00  0.00     0.020 A 
ENDROOT
BRANCH   2   7
ATOM      7  N   UNL d   1      45.432 -15.470  44.953  0.00  0.00    -0.158 NA
BRANCH   7   8
ATOM      8  S   UNL d   1      45.449 -14.711  44.624  0.00  0.00     0.285 S 
ATOM      9  O   UNL d   1      44.628 -14.724  44.541  0.00  0.00    -0.198 OA
ATOM     10  O   UNL d   1      46.271 -14.702  44.708  0.00  0.00    -0.198 OA
BRANCH   8  11
ATOM     11  C   UNL d   1      45.469 -13.956  44.297  0.00  0.00     0.107 A 
ATOM     12  C   UNL d   1      45.026 -13.787  43.618  0.00  0.00     0.043 A 
ATOM     13  C   UNL d   1      45.045 -13.029  43.289  0.00  0.00     0.141 A 
ATOM     14  F   UNL d   1      44.601 -12.852  42.606  0.00  0.00    -0.204 F 
ATOM     15  C   UNL d   1      45.506 -12.442  43.639  0.00  0.00     0.030 A 
ATOM     16  C   UNL d   1      45.946 -12.610  44.312  0.00  0.00     0.003 A 
ATOM     17  C   UNL d   1      45.930 -13.366  44.644  0.00  0.00     0.013 A 
ENDBRANCH   8  11
ENDBRANCH   7   8
ENDBRANCH   2   7
BRANCH   1  18
ATOM     18  C   UNL d   1      46.391 -18.058  43.132  0.00  0.00     0.265 C 
ATOM     19  N   UNL d   1      46.378 -18.818  43.459  0.00  0.00    -0.272 N 
ATOM     20  C   UNL d   1      46.616 -19.465  43.002  0.00  0.00     0.083 A 
ATOM     21  C   UNL d   1      46.131 -18.934  44.233  0.00  0.00     0.083 A 
ATOM     22  C   UNL d   1      46.604 -20.223  43.325  0.00  0.00     0.019 A 
ATOM     23  C   UNL d   1      46.355 -20.324  44.097  0.00  0.00     0.003 A 
ATOM     24  C   UNL d   1      46.119 -19.686  44.550  0.00  0.00     0.019 A 
ATOM     25  O   UNL d   1      46.642 -17.938  42.347  0.00  0.00    -0.267 OA
ENDBRANCH   1  18
TORSDOF 4
ENDMDL
MODEL 2
REMARK VINA RESULT:      16.3      1.754      5.074
REMARK  4 active torsions:
REMARK  status: ('A' for Active; 'I' for Inactive)
REMARK    1  A    between atoms: N_3  and  S_1 
REMARK    2  A    between atoms: C_5  and  S_1 
REMARK    3  A    between atoms: C_2  and  C_9 
REMARK       I    between atoms: N_4  and  C_2 
REMARK    4  A    between atoms: C_11  and  N_3 
ROOT
ATOM      1  C   UNL d   1      45.266 -15.021  44.313  0.00  0.00     0.057 A 
ATOM      2  C   UNL d   1      45.958 -16.466  44.695  0.00  0.00     0.094 A 
ATOM      3  C   UNL d   1      46.033 -15.193  44.055  0.00  0.00     0.006 A 
ATOM      4  C   UNL d   1      44.844 -15.569  44.761  0.00  0.00     0.006 A 
ATOM      5  C   UNL d   1      46.377 -15.918  44.248  0.00  0.00     0.020 A 
ATOM      6  C   UNL d   1      45.183 -16.290  44.955  0.00  0.00     0.020 A 
ENDROOT
BRANCH   2   7
ATOM      7  N   UNL d   1      46.298 -17.187  44.889  0.00  0.00    -0.158 NA
BRANCH   7   8
ATOM      8  S   UNL d   1      46.259 -17.817  44.354  0.00  0.00     0.285 S 
ATOM      9  O   UNL d   1      46.647 -17.362  43.783  0.00  0.00    -0.198 OA
ATOM     10  O   UNL d   1      45.872 -18.268  44.926  0.00  0.00    -0.198 OA
BRANCH   8  11
ATOM     11  C   UNL d   1      46.219 -18.445  43.823  0.00  0.00     0.107 A 
ATOM     12  C   UNL d   1      46.193 -18.299  43.009  0.00  0.00     0.043 A 
ATOM     13  C   UNL d   1      46.153 -18.929  42.476  0.00  0.00     0.141 A 
ATOM     14  F   UNL d   1      46.126 -18.788  41.654  0.00  0.00    -0.204 F 
ATOM     15  C   UNL d   1      46.140 -19.704  42.757  0.00  0.00     0.030 A 
ATOM     16  C   UNL d   1      46.166 -19.848  43.566  0.00  0.00     0.003 A 
ATOM     17  C   UNL d   1      46.206 -19.222  44.102  0.00  0.00     0.013 A 
ENDBRANCH   8  11
ENDBRANCH   7   8
ENDBRANCH   2   7
BRANCH   1  18
ATOM     18  C   UNL d   1      44.911 -14.286  44.119  0.00  0.00     0.265 C 
ATOM     19  N   UNL d   1      45.289 -13.580  44.332  0.00  0.00    -0.272 N 
ATOM     20  C   UNL d   1      44.941 -12.855  44.142  0.00  0.00     0.083 A 
ATOM     21  C   UNL d   1      46.007 -13.597  44.730  0.00  0.00     0.083 A 
ATOM     22  C   UNL d   1      45.315 -12.151  44.353  0.00  0.00     0.019 A 
ATOM     23  C   UNL d   1      46.029 -12.183  44.749  0.00  0.00     0.003 A 
ATOM     24  C   UNL d   1      46.376 -12.900  44.938  0.00  0.00     0.019 A 
ATOM     25  O   UNL d   1      44.183 -14.271  43.716  0.00  0.00    -0.267 OA
ENDBRANCH   1  18
TORSDOF 4
ENDMDL
