MODEL 1
REMARK VINA RESULT:      -4.1      0.000      0.000
REMARK  4 active torsions:
REMARK  status: ('A' for Active; 'I' for Inactive)
REMARK    1  A    between atoms: C_15  and  C_2 
REMARK    2  A    between atoms: C_5  and  S_13 
REMARK       I    between atoms: C_11  and  N_8 
REMARK    3  A    between atoms: C_18  and  C_11 
REMARK    4  A    between atoms: S_13  and  C_18 
ROOT
ATOM      1  N   UNL d   1      57.012  -0.646  31.498  0.00  0.00    -0.272 N 
ATOM      2  C   UNL d   1      56.521  -0.854  32.114  0.00  0.00     0.271 C 
ATOM      3  C   UNL d   1      58.004  -0.201  30.257  0.00  0.00     0.023 A 
ATOM      4  C   UNL d   1      57.320  -1.211  30.986  0.00  0.00     0.083 A 
ATOM      5  C   UNL d   1      57.205   0.155  31.386  0.00  0.00     0.083 A 
ATOM      6  O   UNL d   1      56.326  -1.636  32.232  0.00  0.00    -0.266 OA
ATOM      7  C   UNL d   1      57.816  -0.989  30.364  0.00  0.00     0.021 A 
ATOM      8  C   UNL d   1      57.703   0.370  30.761  0.00  0.00     0.021 A 
ENDROOT
BRANCH   2   9
ATOM      9  C   UNL d   1      56.218  -0.272  32.624  0.00  0.00     0.099 C 
BRANCH   9  10
ATOM     10  S   UNL d   1      55.490  -0.391  32.997  0.00  0.00    -0.054 SA
BRANCH  10  11
ATOM     11  C   UNL d   1      55.313  -0.006  33.718  0.00  0.00     0.164 A 
ATOM     12  S   UNL d   1      55.814   0.059  34.371  0.00  0.00    -0.039 SA
ATOM     13  C   UNL d   1      55.408   0.485  34.960  0.00  0.00     0.134 A 
ATOM     14  C   UNL d   1      55.708   0.680  35.714  0.00  0.00     0.030 C 
ATOM     15  N   UNL d   1      54.654   0.682  34.666  0.00  0.00    -0.140 NA
ATOM     16  N   UNL d   1      54.592   0.376  33.891  0.00  0.00    -0.134 NA
ENDBRANCH  10  11
ENDBRANCH   9  10
ENDBRANCH   2   9
BRANCH   3  17
ATOM     17  C   UNL d   1      58.494   0.023  29.645  0.00  0.00     0.110 A 
ATOM     18  N   UNL d   1      58.290   0.515  29.029  0.00  0.00    -0.126 NA
ATOM     19  O   UNL d   1      58.945   0.600  28.532  0.00  0.00    -0.211 OA
ATOM     20  C   UNL d   1      59.549   0.158  28.847  0.00  0.00     0.127 A 
ATOM     21  C   UNL d   1      60.327   0.024  28.606  0.00  0.00     0.029 A 
ATOM     22  C   UNL d   1      59.272  -0.202  29.540  0.00  0.00     0.047 A 
ATOM     23  C   UNL d   1      60.815  -0.455  29.041  0.00  0.00     0.032 A 
ATOM     24  C   UNL d   1      60.549  -0.821  29.738  0.00  0.00     0.140 A 
ATOM     25  C   UNL d   1      59.761  -0.681  29.976  0.00  0.00     0.033 A 
ATOM     26  F   UNL d   1      61.038  -1.300  30.173  0.00  0.00    -0.204 F 
ENDBRANCH   3  17
TORSDOF 4
ENDMDL
MODEL 2
REMARK VINA RESULT:      -3.7      2.123      5.652
REMARK  4 active torsions:
REMARK  status: ('A' for Active; 'I' for Inactive)
REMARK    1  A    between atoms: C_15  and  C_2 
REMARK    2  A    between atoms: C_5  and  S_13 
REMARK       I    between atoms: C_11  and  N_8 
REMARK    3  A    between atoms: C_18  and  C_11 
REMARK    4  A    between atoms: S_13  and  C_18 
ROOT
ATOM      1  N   UNL d   1      56.936  -0.619  31.707  0.00  0.00    -0.272 N 
ATOM      2  C   UNL d   1      57.430  -0.835  31.096  0.00  0.00     0.271 C 
ATOM      3  C   UNL d   1      55.944  -0.161  32.943  0.00  0.00     0.023 A 
ATOM      4  C   UNL d   1      56.404  -1.154  32.037  0.00  0.00     0.083 A 
ATOM      5  C   UNL d   1      56.971   0.157  32.002  0.00  0.00     0.083 A 
ATOM      6  O   UNL d   1      57.404  -1.593  30.800  0.00  0.00    -0.266 OA
ATOM      7  C   UNL d   1      55.908  -0.925  32.655  0.00  0.00     0.021 A 
ATOM      8  C   UNL d   1      56.470   0.379  32.622  0.00  0.00     0.021 A 
ENDROOT
BRANCH   2   9
ATOM      9  C   UNL d   1      57.963  -0.284  30.773  0.00  0.00     0.099 C 
BRANCH   9  10
ATOM     10  S   UNL d   1      58.087  -0.264  29.957  0.00  0.00    -0.054 SA
BRANCH  10  11
ATOM     11  C   UNL d   1      58.827  -0.028  29.644  0.00  0.00     0.164 A 
ATOM     12  S   UNL d   1      59.542  -0.432  29.728  0.00  0.00    -0.039 SA
ATOM     13  C   UNL d   1      60.128   0.004  29.329  0.00  0.00     0.134 A 
ATOM     14  C   UNL d   1      60.935  -0.202  29.271  0.00  0.00     0.030 C 
ATOM     15  N   UNL d   1      59.769   0.680  28.999  0.00  0.00    -0.140 NA
ATOM     16  N   UNL d   1      58.958   0.662  29.195  0.00  0.00    -0.134 NA
ENDBRANCH  10  11
ENDBRANCH   9  10
ENDBRANCH   2   9
BRANCH   3  17
ATOM     17  C   UNL d   1      55.456   0.070  33.554  0.00  0.00     0.110 A 
ATOM     18  N   UNL d   1      54.648   0.158  33.509  0.00  0.00    -0.126 NA
ATOM     19  O   UNL d   1      54.368   0.399  34.249  0.00  0.00    -0.211 OA
ATOM     20  C   UNL d   1      55.009   0.459  34.744  0.00  0.00     0.127 A 
ATOM     21  C   UNL d   1      55.082   0.672  35.538  0.00  0.00     0.029 A 
ATOM     22  C   UNL d   1      55.688   0.255  34.315  0.00  0.00     0.047 A 
ATOM     23  C   UNL d   1      55.810   0.682  35.895  0.00  0.00     0.032 A 
ATOM     24  C   UNL d   1      56.498   0.479  35.476  0.00  0.00     0.140 A 
ATOM     25  C   UNL d   1      56.416   0.265  34.673  0.00  0.00     0.033 A 
ATOM     26  F   UNL d   1      57.225   0.489  35.833  0.00  0.00    -0.204 F 
ENDBRANCH   3  17
TORSDOF 4
ENDMDL
MODEL 3
REMARK VINA RESULT:      -1.6      1.148      1.316
REMARK  4 active torsions:
REMARK  status: ('A' for Active; 'I' for Inactive)
REMARK    1  A    between atoms: C_15  and  C_2 
REMARK    2  A    between atoms: C_5  and  S_13 
REMARK       I    between atoms: C_11  and  N_8 
REMARK    3  A    between atoms: C_18  and  C_11 
REMARK    4  A    between atoms: S_13  and  C_18 
ROOT
ATOM      1  N   UNL d   1      57.322   0.403  32.257  0.00  0.00    -0.272 N 
ATOM      2  C   UNL d   1      57.069   0.527  33.021  0.00  0.00     0.271 C 
ATOM      3  C   UNL d   1      57.812   0.151  30.702  0.00  0.00     0.023 A 
ATOM      4  C   UNL d   1      58.121   0.420  32.063  0.00  0.00     0.083 A 
ATOM      5  C   UNL d   1      56.760   0.258  31.662  0.00  0.00     0.083 A 
ATOM      6  O   UNL d   1      57.611   0.670  33.611  0.00  0.00    -0.266 OA
ATOM      7  C   UNL d   1      58.367   0.294  31.285  0.00  0.00     0.021 A 
ATOM      8  C   UNL d   1      57.014   0.133  30.884  0.00  0.00     0.021 A 
ENDROOT
BRANCH   2   9
ATOM      9  C   UNL d   1      56.257   0.507  33.203  0.00  0.00     0.099 C 
BRANCH   9  10
ATOM     10  S   UNL d   1      56.014   0.435  33.989  0.00  0.00    -0.054 SA
BRANCH  10  11
ATOM     11  C   UNL d   1      55.203   0.479  34.190  0.00  0.00     0.164 A 
ATOM     12  S   UNL d   1      54.893   0.558  34.951  0.00  0.00    -0.039 SA
ATOM     13  C   UNL d   1      54.063   0.578  34.886  0.00  0.00     0.134 A 
ATOM     14  C   UNL d   1      53.527   0.653  35.521  0.00  0.00     0.030 C 
ATOM     15  N   UNL d   1      53.864   0.512  34.079  0.00  0.00    -0.140 NA
ATOM     16  N   UNL d   1      54.574   0.450  33.644  0.00  0.00    -0.134 NA
ENDBRANCH  10  11
ENDBRANCH   9  10
ENDBRANCH   2   9
BRANCH   3  17
ATOM     17  C   UNL d   1      58.050   0.026  29.932  0.00  0.00     0.110 A 
ATOM     18  N   UNL d   1      57.747   0.399  29.275  0.00  0.00    -0.126 NA
ATOM     19  O   UNL d   1      58.139   0.113  28.606  0.00  0.00    -0.211 OA
ATOM     20  C   UNL d   1      58.683  -0.435  28.857  0.00  0.00     0.127 A 
ATOM     21  C   UNL d   1      59.231  -0.903  28.455  0.00  0.00     0.029 A 
ATOM     22  C   UNL d   1      58.630  -0.492  29.683  0.00  0.00     0.047 A 
ATOM     23  C   UNL d   1      59.713  -1.413  28.862  0.00  0.00     0.032 A 
ATOM     24  C   UNL d   1      59.669  -1.479  29.689  0.00  0.00     0.140 A 
ATOM     25  C   UNL d   1      59.112  -1.002  30.089  0.00  0.00     0.033 A 
ATOM     26  F   UNL d   1      60.151  -1.989  30.095  0.00  0.00    -0.204 F 
ENDBRANCH   3  17
TORSDOF 4
ENDMDL
