MODEL 1
REMARK VINA RESULT:      44.3      0.000      0.000
REMARK  3 active torsions:
REMARK  status: ('A' for Active; 'I' for Inactive)
REMARK    1  A    between atoms: C_2  and  C_1 
REMARK       I    between atoms: N_4  and  C_2 
REMARK    2  A    between atoms: C_6  and  N_4 
REMARK    3  A    between atoms: S_12  and  C_5 
ROOT
ATOM      1  C   UNL d   1      58.707  49.464  50.305  0.00  0.00     0.298 C 
ATOM      2  N   UNL d   1      59.131  49.387  51.010  0.00  0.00    -0.207 NA
ATOM      3  O   UNL d   1      59.098  49.644  49.592  0.00  0.00    -0.264 OA
ENDROOT
BRANCH   1   4
ATOM      4  C   UNL d   1      57.887  49.362  50.307  0.00  0.00     0.153 A 
ATOM      5  N   UNL d   1      57.471  49.292  51.031  0.00  0.00    -0.216 NA
ATOM      6  C   UNL d   1      56.647  49.190  51.025  0.00  0.00     0.190 A 
ATOM      7  N   UNL d   1      56.236  49.156  50.309  0.00  0.00    -0.219 NA
ATOM      8  C   UNL d   1      56.648  49.225  49.593  0.00  0.00     0.114 A 
ATOM      9  C   UNL d   1      57.472  49.328  49.589  0.00  0.00     0.099 A 
ATOM     10 CL   UNL d   1      57.880  49.397  48.870  0.00  0.00    -0.079 Cl
BRANCH   6  11
ATOM     11  S   UNL d   1      56.234  49.121  51.736  0.00  0.00    -0.075 SA
ATOM     12  C   UNL d   1      56.369  49.669  52.350  0.00  0.00     0.077 C 
ENDBRANCH   6  11
ENDBRANCH   1   4
BRANCH   2  13
ATOM     13  C   UNL d   1      59.949  49.488  51.011  0.00  0.00     0.085 A 
ATOM     14  C   UNL d   1      60.358  49.533  51.719  0.00  0.00     0.018 A 
ATOM     15  C   UNL d   1      61.172  49.634  51.728  0.00  0.00     0.002 A 
ATOM     16  C   UNL d   1      59.947  49.476  52.433  0.00  0.00     0.002 A 
ATOM     17  C   UNL d   1      61.578  49.678  52.442  0.00  0.00     0.000 A 
ATOM     18  C   UNL d   1      61.582  49.690  51.015  0.00  0.00     0.000 A 
ATOM     19  C   UNL d   1      61.171  49.622  53.149  0.00  0.00     0.000 A 
ATOM     20  C   UNL d   1      60.354  49.521  53.147  0.00  0.00     0.000 A 
ATOM     21  C   UNL d   1      61.172  49.646  50.298  0.00  0.00     0.002 A 
ATOM     22  C   UNL d   1      60.353  49.544  50.300  0.00  0.00     0.019 A 
ENDBRANCH   2  13
TORSDOF 3
ENDMDL
