MODEL 1
REMARK VINA RESULT:      -8.7      0.000      0.000
REMARK  3 active torsions:
REMARK  status: ('A' for Active; 'I' for Inactive)
REMARK    1  A    between atoms: CB_6  and  CG_1 
REMARK    2  A    between atoms: C_5  and  CA_8 
REMARK    3  A    between atoms: CA_8  and  CB_6 
ROOT
ATOM      1  CG  TRP d   1      53.394  31.876  53.637  0.00  0.00     0.022 A 
ATOM      2  NE1 TRP d   1      52.882  33.004  53.156  0.00  0.00    -0.244 NA
ATOM      3  CD1 TRP d   1      52.916  32.186  53.060  0.00  0.00     0.099 A 
ATOM      4  CD2 TRP d   1      53.668  32.502  54.108  0.00  0.00     0.019 A 
ATOM      5  CE2 TRP d   1      53.349  33.199  53.808  0.00  0.00     0.081 A 
ATOM      6  CE3 TRP d   1      54.165  32.525  54.769  0.00  0.00     0.002 A 
ATOM      7  CZ2 TRP d   1      53.525  33.921  54.166  0.00  0.00     0.019 A 
ATOM      8  CZ3 TRP d   1      54.341  33.244  55.127  0.00  0.00     0.000 A 
ATOM      9  CH2 TRP d   1      54.023  33.944  54.828  0.00  0.00     0.002 A 
ENDROOT
BRANCH   1  10
ATOM     10  CB  TRP d   1      53.568  31.072  53.728  0.00  0.00     0.029 C 
BRANCH  10  11
ATOM     11  CA  TRP d   1      53.153  30.516  53.298  0.00  0.00     0.167 C 
ATOM     12  N   TRP d   1      52.891  30.695  52.536  0.00  0.00    -0.142 N 
BRANCH  11  13
ATOM     13  C   TRP d   1      52.997  29.779  53.627  0.00  0.00     0.231 C 
ATOM     14  O   TRP d   1      53.581  29.378  54.032  0.00  0.00    -0.643 OA
ATOM     15  OXT TRP d   1      52.247  29.447  53.545  0.00  0.00    -0.643 OA
ENDBRANCH  11  13
ENDBRANCH  10  11
ENDBRANCH   1  10
TORSDOF 3
ENDMDL
MODEL 2
REMARK VINA RESULT:      -8.6      1.927      3.235
REMARK  3 active torsions:
REMARK  status: ('A' for Active; 'I' for Inactive)
REMARK    1  A    between atoms: CB_6  and  CG_1 
REMARK    2  A    between atoms: C_5  and  CA_8 
REMARK    3  A    between atoms: CA_8  and  CB_6 
ROOT
ATOM      1  CG  TRP d   1      53.547  32.238  53.746  0.00  0.00     0.022 A 
ATOM      2  NE1 TRP d   1      52.737  32.101  52.701  0.00  0.00    -0.244 NA
ATOM      3  CD1 TRP d   1      53.132  32.644  53.179  0.00  0.00     0.099 A 
ATOM      4  CD2 TRP d   1      53.416  31.426  53.628  0.00  0.00     0.019 A 
ATOM      5  CE2 TRP d   1      52.914  31.345  52.981  0.00  0.00     0.081 A 
ATOM      6  CE3 TRP d   1      53.689  30.754  54.027  0.00  0.00     0.002 A 
ATOM      7  CZ2 TRP d   1      52.684  30.594  52.729  0.00  0.00     0.019 A 
ATOM      8  CZ3 TRP d   1      53.460  30.006  53.777  0.00  0.00     0.000 A 
ATOM      9  CH2 TRP d   1      52.957  29.922  53.128  0.00  0.00     0.002 A 
ENDROOT
BRANCH   1  10
ATOM     10  CB  TRP d   1      54.016  32.586  54.333  0.00  0.00     0.029 C 
BRANCH  10  11
ATOM     11  CA  TRP d   1      53.843  33.339  54.596  0.00  0.00     0.167 C 
ATOM     12  N   TRP d   1      53.087  33.651  54.484  0.00  0.00    -0.142 N 
BRANCH  11  13
ATOM     13  C   TRP d   1      54.424  33.783  54.971  0.00  0.00     0.231 C 
ATOM     14  O   TRP d   1      55.136  33.441  55.173  0.00  0.00    -0.643 OA
ATOM     15  OXT TRP d   1      54.281  34.577  55.142  0.00  0.00    -0.643 OA
ENDBRANCH  11  13
ENDBRANCH  10  11
ENDBRANCH   1  10
TORSDOF 3
ENDMDL
MODEL 3
REMARK VINA RESULT:      -8.2      2.398      3.510
REMARK  3 active torsions:
REMARK  status: ('A' for Active; 'I' for Inactive)
REMARK    1  A    between atoms: CB_6  and  CG_1 
REMARK    2  A    between atoms: C_5  and  CA_8 
REMARK    3  A    between atoms: CA_8  and  CB_6 
ROOT
ATOM      1  CG  TRP d   1      52.941  33.241  53.574  0.00  0.00     0.022 A 
ATOM      2  NE1 TRP d   1      52.168  32.620  52.689  0.00  0.00    -0.244 NA
ATOM      3  CD1 TRP d   1      52.335  33.344  53.045  0.00  0.00     0.099 A 
ATOM      4  CD2 TRP d   1      53.164  32.441  53.557  0.00  0.00     0.019 A 
ATOM      5  CE2 TRP d   1      52.684  32.059  53.009  0.00  0.00     0.081 A 
ATOM      6  CE3 TRP d   1      53.741  32.015  53.970  0.00  0.00     0.002 A 
ATOM      7  CZ2 TRP d   1      52.778  31.251  52.870  0.00  0.00     0.019 A 
ATOM      8  CZ3 TRP d   1      53.835  31.210  53.833  0.00  0.00     0.000 A 
ATOM      9  CH2 TRP d   1      53.355  30.825  53.284  0.00  0.00     0.002 A 
ENDROOT
BRANCH   1  10
ATOM     10  CB  TRP d   1      53.269  33.839  54.043  0.00  0.00     0.029 C 
BRANCH  10  11
ATOM     11  CA  TRP d   1      53.029  34.612  53.941  0.00  0.00     0.167 C 
ATOM     12  N   TRP d   1      52.709  34.852  53.219  0.00  0.00    -0.142 N 
BRANCH  11  13
ATOM     13  C   TRP d   1      53.107  35.149  54.559  0.00  0.00     0.231 C 
ATOM     14  O   TRP d   1      53.337  34.892  55.298  0.00  0.00    -0.643 OA
ATOM     15  OXT TRP d   1      52.952  35.947  54.426  0.00  0.00    -0.643 OA
ENDBRANCH  11  13
ENDBRANCH  10  11
ENDBRANCH   1  10
TORSDOF 3
ENDMDL
MODEL 4
REMARK VINA RESULT:      -8.2      2.155      3.123
REMARK  3 active torsions:
REMARK  status: ('A' for Active; 'I' for Inactive)
REMARK    1  A    between atoms: CB_6  and  CG_1 
REMARK    2  A    between atoms: C_5  and  CA_8 
REMARK    3  A    between atoms: CA_8  and  CB_6 
ROOT
ATOM      1  CG  TRP d   1      53.210  33.377  53.546  0.00  0.00     0.022 A 
ATOM      2  NE1 TRP d   1      52.579  32.507  52.764  0.00  0.00    -0.244 NA
ATOM      3  CD1 TRP d   1      53.244  32.628  53.235  0.00  0.00     0.099 A 
ATOM      4  CD2 TRP d   1      52.516  33.738  53.270  0.00  0.00     0.019 A 
ATOM      5  CE2 TRP d   1      52.127  33.198  52.787  0.00  0.00     0.081 A 
ATOM      6  CE3 TRP d   1      52.190  34.489  53.398  0.00  0.00     0.002 A 
ATOM      7  CZ2 TRP d   1      51.412  33.404  52.429  0.00  0.00     0.019 A 
ATOM      8  CZ3 TRP d   1      51.478  34.694  53.043  0.00  0.00     0.000 A 
ATOM      9  CH2 TRP d   1      51.087  34.154  52.558  0.00  0.00     0.002 A 
ENDROOT
BRANCH   1  10
ATOM     10  CB  TRP d   1      53.778  33.708  54.049  0.00  0.00     0.029 C 
BRANCH  10  11
ATOM     11  CA  TRP d   1      54.407  33.255  54.305  0.00  0.00     0.167 C 
ATOM     12  N   TRP d   1      54.758  32.711  53.794  0.00  0.00    -0.142 N 
BRANCH  11  13
ATOM     13  C   TRP d   1      54.688  33.344  55.073  0.00  0.00     0.231 C 
ATOM     14  O   TRP d   1      54.466  32.817  55.655  0.00  0.00    -0.643 OA
ATOM     15  OXT TRP d   1      55.195  33.969  55.250  0.00  0.00    -0.643 OA
ENDBRANCH  11  13
ENDBRANCH  10  11
ENDBRANCH   1  10
TORSDOF 3
ENDMDL
MODEL 5
REMARK VINA RESULT:      -8.1      2.383      3.022
REMARK  3 active torsions:
REMARK  status: ('A' for Active; 'I' for Inactive)
REMARK    1  A    between atoms: CB_6  and  CG_1 
REMARK    2  A    between atoms: C_5  and  CA_8 
REMARK    3  A    between atoms: CA_8  and  CB_6 
ROOT
ATOM      1  CG  TRP d   1      52.613  33.360  53.530  0.00  0.00     0.022 A 
ATOM      2  NE1 TRP d   1      53.302  32.223  53.514  0.00  0.00    -0.244 NA
ATOM      3  CD1 TRP d   1      52.653  32.620  53.198  0.00  0.00     0.099 A 
ATOM      4  CD2 TRP d   1      53.245  33.436  54.063  0.00  0.00     0.019 A 
ATOM      5  CE2 TRP d   1      53.669  32.731  54.051  0.00  0.00     0.081 A 
ATOM      6  CE3 TRP d   1      53.486  34.056  54.556  0.00  0.00     0.002 A 
ATOM      7  CZ2 TRP d   1      54.335  32.642  54.530  0.00  0.00     0.019 A 
ATOM      8  CZ3 TRP d   1      54.149  33.968  55.034  0.00  0.00     0.000 A 
ATOM      9  CH2 TRP d   1      54.576  33.262  55.023  0.00  0.00     0.002 A 
ENDROOT
BRANCH   1  10
ATOM     10  CB  TRP d   1      52.037  33.928  53.356  0.00  0.00     0.029 C 
BRANCH  10  11
ATOM     11  CA  TRP d   1      51.302  33.692  53.090  0.00  0.00     0.167 C 
ATOM     12  N   TRP d   1      51.003  32.955  53.307  0.00  0.00    -0.142 N 
BRANCH  11  13
ATOM     13  C   TRP d   1      50.864  34.193  52.607  0.00  0.00     0.231 C 
ATOM     14  O   TRP d   1      51.063  34.283  51.821  0.00  0.00    -0.643 OA
ATOM     15  OXT TRP d   1      50.221  34.601  52.922  0.00  0.00    -0.643 OA
ENDBRANCH  11  13
ENDBRANCH  10  11
ENDBRANCH   1  10
TORSDOF 3
ENDMDL
