MODEL 1
REMARK VINA RESULT:      72.6      0.000      0.000
REMARK  3 active torsions:
REMARK  status: ('A' for Active; 'I' for Inactive)
REMARK       I    between atoms: N_3  and  C_1 
REMARK       I    between atoms: N_5  and  C_1 
REMARK    1  A    between atoms: C_2  and  O_6 
REMARK       I    between atoms: N_4  and  C_2 
REMARK    2  A    between atoms: C_10  and  N_5 
REMARK    3  A    between atoms: O_6  and  C_11 
ROOT
ATOM      1  C   UNL d   1     -55.145-101.493 -41.892  0.00  0.00     0.086 A 
ATOM      2  C   UNL d   1     -55.276-100.818 -43.392  0.00  0.00     0.105 A 
ATOM      3  C   UNL d   1     -55.638-100.824 -42.016  0.00  0.00     0.021 A 
ATOM      4  C   UNL d   1     -54.719-101.814 -42.542  0.00  0.00     0.021 A 
ATOM      5  C   UNL d   1     -55.702-100.491 -42.755  0.00  0.00     0.026 A 
ATOM      6  C   UNL d   1     -54.783-101.482 -43.281  0.00  0.00     0.026 A 
ENDROOT
BRANCH   1   7
ATOM      7  N   UNL d   1     -55.080-101.825 -41.154  0.00  0.00    -0.192 NA
ATOM      8  C   UNL d   1     -54.963-101.363 -40.489  0.00  0.00     0.354 C 
ATOM      9  N   UNL d   1     -54.897-101.700 -39.739  0.00  0.00    -0.252 N 
ATOM     10  O   UNL d   1     -54.910-100.529 -40.586  0.00  0.00    -0.244 OA
ATOM     11  C   UNL d   1     -54.778-101.210 -39.074  0.00  0.00     0.111 A 
ATOM     12  C   UNL d   1     -54.949-102.522 -39.637  0.00  0.00     0.111 A 
ATOM     13  C   UNL d   1     -54.711-101.552 -38.313  0.00  0.00     0.142 A 
ATOM     14  O   UNL d   1     -54.765-102.380 -38.227  0.00  0.00    -0.300 OA
ATOM     15  C   UNL d   1     -54.883-102.860 -38.887  0.00  0.00     0.142 A 
ENDBRANCH   1   7
BRANCH   2  16
ATOM     16  O   UNL d   1     -55.341-100.480 -44.142  0.00  0.00    -0.259 OA
BRANCH  16  17
ATOM     17  C   UNL d   1     -55.651 -99.723 -44.228  0.00  0.00     0.377 C 
ATOM     18  N   UNL d   1     -56.449 -99.621 -44.413  0.00  0.00    -0.252 N 
ATOM     19  C   UNL d   1     -56.758 -98.862 -44.499  0.00  0.00     0.085 A 
ATOM     20  C   UNL d   1     -56.936-100.276 -44.511  0.00  0.00     0.085 A 
ATOM     21  C   UNL d   1     -57.555 -98.756 -44.683  0.00  0.00     0.019 A 
ATOM     22  C   UNL d   1     -58.044 -99.412 -44.782  0.00  0.00     0.003 A 
ATOM     23  C   UNL d   1     -57.738-100.174 -44.696  0.00  0.00     0.019 A 
ATOM     24  O   UNL d   1     -55.168 -99.066 -44.131  0.00  0.00    -0.237 OA
ENDBRANCH  16  17
ENDBRANCH   2  16
TORSDOF 3
ENDMDL
