MODEL 1
REMARK VINA RESULT:      -1.2      0.000      0.000
REMARK  10 active torsions:
REMARK  status: ('A' for Active; 'I' for Inactive)
REMARK    1  A    between atoms: C_18  and  N_1 
REMARK    2  A    between atoms: S_7  and  C_2 
REMARK       I    between atoms: C_6  and  N_14 
REMARK    3  A    between atoms: C_9  and  C_6 
REMARK    4  A    between atoms: C_15  and  S_7 
REMARK    5  A    between atoms: C_8  and  C_15 
REMARK       I    between atoms: N_10  and  C_8 
REMARK    6  A    between atoms: C_19  and  N_10 
REMARK    7  A    between atoms: N_14  and  C_25 
REMARK    8  A    between atoms: C_25  and  C_18 
REMARK    9  A    between atoms: C_23  and  C_19 
REMARK   10  A    between atoms: O_27  and  C_20 
ROOT
ATOM      1  N   UNL d   1      33.207  21.844 -22.729  0.00  0.00    -0.302 N 
ATOM      2  C   UNL d   1      33.198  20.845 -23.632  0.00  0.00     0.049 A 
ATOM      3  C   UNL d   1      33.236  21.015 -22.820  0.00  0.00     0.087 A 
ATOM      4  C   UNL d   1      33.146  21.568 -24.043  0.00  0.00     0.024 A 
ATOM      5  C   UNL d   1      33.151  22.183 -23.485  0.00  0.00     0.065 A 
ATOM      6  C   UNL d   1      33.094  21.747 -24.850  0.00  0.00     0.002 A 
ATOM      7  C   UNL d   1      33.106  22.969 -23.730  0.00  0.00     0.018 A 
ATOM      8  C   UNL d   1      33.049  22.530 -25.094  0.00  0.00     0.000 A 
ATOM      9  C   UNL d   1      33.054  23.144 -24.535  0.00  0.00     0.002 A 
ENDROOT
BRANCH   1  10
ATOM     10  C   UNL d   1      33.229  22.253 -22.013  0.00  0.00     0.101 C 
BRANCH  10  11
ATOM     11  C   UNL d   1      33.093  21.853 -21.307  0.00  0.00     0.121 C 
BRANCH  11  12
ATOM     12  N   UNL d   1      33.056  22.271 -20.596  0.00  0.00    -0.205 NA
ATOM     13  C   UNL d   1      33.040  21.868 -19.876  0.00  0.00     0.279 C 
ATOM     14  O   UNL d   1      33.060  21.041 -19.869  0.00  0.00    -0.265 OA
BRANCH  13  15
ATOM     15  C   UNL d   1      33.004  22.285 -19.167  0.00  0.00     0.058 A 
ATOM     16  C   UNL d   1      33.227  21.914 -18.450  0.00  0.00     0.007 A 
ATOM     17  C   UNL d   1      33.190  22.333 -17.741  0.00  0.00     0.024 A 
ATOM     18  C   UNL d   1      32.931  23.119 -17.754  0.00  0.00     0.094 A 
ATOM     19  C   UNL d   1      32.712  23.485 -18.456  0.00  0.00     0.024 A 
ATOM     20  C   UNL d   1      32.750  23.065 -19.161  0.00  0.00     0.007 A 
BRANCH  18  21
ATOM     21  O   UNL d   1      32.890  23.554 -17.039  0.00  0.00    -0.328 OA
ATOM     22  C   UNL d   1      32.717  23.185 -16.320  0.00  0.00     0.181 C 
ENDBRANCH  18  21
ENDBRANCH  13  15
ENDBRANCH  11  12
ENDBRANCH  10  11
ENDBRANCH   1  10
BRANCH   2  23
ATOM     23  S   UNL d   1      33.210  20.095 -23.976  0.00  0.00    -0.080 SA
BRANCH  23  24
ATOM     24  C   UNL d   1      32.758  19.486 -23.641  0.00  0.00     0.098 C 
BRANCH  24  25
ATOM     25  C   UNL d   1      32.690  18.764 -24.032  0.00  0.00     0.286 C 
ATOM     26  N   UNL d   1      32.283  18.138 -23.682  0.00  0.00    -0.204 NA
ATOM     27  O   UNL d   1      33.031  18.665 -24.776  0.00  0.00    -0.265 OA
BRANCH  26  28
ATOM     28  C   UNL d   1      32.216  17.413 -24.077  0.00  0.00     0.127 C 
BRANCH  28  29
ATOM     29  C   UNL d   1      31.887  16.775 -23.700  0.00  0.00     0.119 A 
ATOM     30  O   UNL d   1      31.107  16.524 -23.738  0.00  0.00    -0.304 OA
ATOM     31  C   UNL d   1      31.016  15.850 -23.268  0.00  0.00     0.123 A 
ATOM     32  C   UNL d   1      31.750  15.678 -22.932  0.00  0.00     0.029 A 
ATOM     33  C   UNL d   1      32.280  16.242 -23.195  0.00  0.00     0.028 A 
ENDBRANCH  28  29
ENDBRANCH  26  28
ENDBRANCH  24  25
ENDBRANCH  23  24
ENDBRANCH   2  23
TORSDOF 10
ENDMDL
MODEL 2
REMARK VINA RESULT:       1.1      1.427      2.162
REMARK  10 active torsions:
REMARK  status: ('A' for Active; 'I' for Inactive)
REMARK    1  A    between atoms: C_18  and  N_1 
REMARK    2  A    between atoms: S_7  and  C_2 
REMARK       I    between atoms: C_6  and  N_14 
REMARK    3  A    between atoms: C_9  and  C_6 
REMARK    4  A    between atoms: C_15  and  S_7 
REMARK    5  A    between atoms: C_8  and  C_15 
REMARK       I    between atoms: N_10  and  C_8 
REMARK    6  A    between atoms: C_19  and  N_10 
REMARK    7  A    between atoms: N_14  and  C_25 
REMARK    8  A    between atoms: C_25  and  C_18 
REMARK    9  A    between atoms: C_23  and  C_19 
REMARK   10  A    between atoms: O_27  and  C_20 
ROOT
ATOM      1  N   UNL d   1      32.905  20.035 -22.666  0.00  0.00    -0.302 N 
ATOM      2  C   UNL d   1      32.622  18.783 -23.070  0.00  0.00     0.049 A 
ATOM      3  C   UNL d   1      32.679  19.276 -22.405  0.00  0.00     0.087 A 
ATOM      4  C   UNL d   1      32.813  19.235 -23.742  0.00  0.00     0.024 A 
ATOM      5  C   UNL d   1      32.988  20.008 -23.492  0.00  0.00     0.065 A 
ATOM      6  C   UNL d   1      32.852  19.047 -24.548  0.00  0.00     0.002 A 
ATOM      7  C   UNL d   1      33.199  20.587 -24.041  0.00  0.00     0.018 A 
ATOM      8  C   UNL d   1      33.062  19.623 -25.094  0.00  0.00     0.000 A 
ATOM      9  C   UNL d   1      33.236  20.396 -24.843  0.00  0.00     0.002 A 
ENDROOT
BRANCH   1  10
ATOM     10  C   UNL d   1      33.026  20.696 -22.187  0.00  0.00     0.101 C 
BRANCH  10  11
ATOM     11  C   UNL d   1      32.488  20.875 -21.590  0.00  0.00     0.121 C 
BRANCH  11  12
ATOM     12  N   UNL d   1      32.707  21.379 -20.975  0.00  0.00    -0.205 NA
ATOM     13  C   UNL d   1      32.134  21.692 -20.470  0.00  0.00     0.279 C 
ATOM     14  O   UNL d   1      31.338  21.499 -20.583  0.00  0.00    -0.265 OA
BRANCH  13  15
ATOM     15  C   UNL d   1      32.353  22.196 -19.856  0.00  0.00     0.058 A 
ATOM     16  C   UNL d   1      32.104  22.996 -19.861  0.00  0.00     0.007 A 
ATOM     17  C   UNL d   1      32.323  23.499 -19.247  0.00  0.00     0.024 A 
ATOM     18  C   UNL d   1      32.790  23.200 -18.632  0.00  0.00     0.094 A 
ATOM     19  C   UNL d   1      33.035  22.416 -18.625  0.00  0.00     0.024 A 
ATOM     20  C   UNL d   1      32.814  21.917 -19.239  0.00  0.00     0.007 A 
BRANCH  18  21
ATOM     21  O   UNL d   1      33.019  23.703 -18.001  0.00  0.00    -0.328 OA
ATOM     22  C   UNL d   1      32.772  23.559 -17.226  0.00  0.00     0.181 C 
ENDBRANCH  18  21
ENDBRANCH  13  15
ENDBRANCH  11  12
ENDBRANCH  10  11
ENDBRANCH   1  10
BRANCH   2  23
ATOM     23  S   UNL d   1      32.414  17.984 -23.070  0.00  0.00    -0.080 SA
BRANCH  23  24
ATOM     24  C   UNL d   1      31.703  17.749 -23.427  0.00  0.00     0.098 C 
BRANCH  24  25
ATOM     25  C   UNL d   1      31.401  16.996 -23.281  0.00  0.00     0.286 C 
ATOM     26  N   UNL d   1      30.613  16.824 -23.453  0.00  0.00    -0.204 NA
ATOM     27  O   UNL d   1      31.887  16.412 -22.961  0.00  0.00    -0.265 OA
BRANCH  26  28
ATOM     28  C   UNL d   1      30.311  16.067 -23.306  0.00  0.00     0.127 C 
BRANCH  28  29
ATOM     29  C   UNL d   1      29.552  15.883 -23.524  0.00  0.00     0.119 A 
ATOM     30  O   UNL d   1      29.242  15.872 -24.283  0.00  0.00    -0.304 OA
ATOM     31  C   UNL d   1      28.445  15.653 -24.247  0.00  0.00     0.123 A 
ATOM     32  C   UNL d   1      28.256  15.527 -23.454  0.00  0.00     0.029 A 
ATOM     33  C   UNL d   1      28.930  15.667 -23.014  0.00  0.00     0.028 A 
ENDBRANCH  28  29
ENDBRANCH  26  28
ENDBRANCH  24  25
ENDBRANCH  23  24
ENDBRANCH   2  23
TORSDOF 10
ENDMDL
