MODEL 1
REMARK VINA RESULT:      -6.7      0.000      0.000
REMARK  5 active torsions:
REMARK  status: ('A' for Active; 'I' for Inactive)
REMARK    1  A    between atoms: C_2  and  C_1 
REMARK       I    between atoms: N_5  and  C_1 
REMARK    2  A    between atoms: C_3  and  C_14 
REMARK    3  A    between atoms: C_12  and  N_5 
REMARK    4  A    between atoms: O_13  and  C_9 
REMARK    5  A    between atoms: C_14  and  C_12 
ROOT
ATOM      1  C   UNL d   1     -47.312  13.403  23.081  0.00  0.00     0.279 C 
ATOM      2  O   UNL d   1     -47.689  12.978  23.666  0.00  0.00    -0.265 OA
ATOM      3  N   UNL d   1     -47.672  14.042  22.712  0.00  0.00    -0.206 NA
ENDROOT
BRANCH   1   4
ATOM      4  C   UNL d   1     -46.548  13.186  22.852  0.00  0.00     0.058 A 
ATOM      5  C   UNL d   1     -46.087  13.710  22.445  0.00  0.00     0.007 A 
ATOM      6  C   UNL d   1     -45.315  13.478  22.219  0.00  0.00     0.024 A 
ATOM      7  C   UNL d   1     -45.038  12.759  22.400  0.00  0.00     0.094 A 
ATOM      8  C   UNL d   1     -45.508  12.220  22.817  0.00  0.00     0.024 A 
ATOM      9  C   UNL d   1     -46.271  12.433  23.047  0.00  0.00     0.007 A 
BRANCH   7  10
ATOM     10  O   UNL d   1     -44.293  12.544  22.178  0.00  0.00    -0.328 OA
ATOM     11  C   UNL d   1     -43.931  12.910  21.527  0.00  0.00     0.181 C 
ENDBRANCH   7  10
ENDBRANCH   1   4
BRANCH   3  12
ATOM     12  C   UNL d   1     -48.437  14.250  22.949  0.00  0.00     0.102 C 
BRANCH  12  13
ATOM     13  C   UNL d   1     -48.836  14.839  22.583  0.00  0.00     0.021 C 
BRANCH  13  14
ATOM     14  C   UNL d   1     -49.569  15.082  22.852  0.00  0.00     0.002 A 
ATOM     15  C   UNL d   1     -50.254  14.741  22.561  0.00  0.00     0.000 A 
ATOM     16  C   UNL d   1     -50.994  14.986  22.833  0.00  0.00     0.000 A 
ATOM     17  C   UNL d   1     -51.064  15.577  23.403  0.00  0.00     0.000 A 
ATOM     18  C   UNL d   1     -50.367  15.922  23.697  0.00  0.00     0.000 A 
ATOM     19  C   UNL d   1     -49.622  15.668  23.417  0.00  0.00     0.000 A 
ENDBRANCH  13  14
ENDBRANCH  12  13
ENDBRANCH   3  12
TORSDOF 5
ENDMDL
MODEL 2
REMARK VINA RESULT:      -6.2      1.791      2.108
REMARK  5 active torsions:
REMARK  status: ('A' for Active; 'I' for Inactive)
REMARK    1  A    between atoms: C_2  and  C_1 
REMARK       I    between atoms: N_5  and  C_1 
REMARK    2  A    between atoms: C_3  and  C_14 
REMARK    3  A    between atoms: C_12  and  N_5 
REMARK    4  A    between atoms: O_13  and  C_9 
REMARK    5  A    between atoms: C_14  and  C_12 
ROOT
ATOM      1  C   UNL d   1     -46.713  12.778  23.022  0.00  0.00     0.279 C 
ATOM      2  O   UNL d   1     -46.833  13.222  23.696  0.00  0.00    -0.265 OA
ATOM      3  N   UNL d   1     -47.333  12.404  22.636  0.00  0.00    -0.206 NA
ENDROOT
BRANCH   1   4
ATOM      4  C   UNL d   1     -45.948  12.702  22.719  0.00  0.00     0.058 A 
ATOM      5  C   UNL d   1     -45.494  12.068  22.931  0.00  0.00     0.007 A 
ATOM      6  C   UNL d   1     -44.721  12.002  22.618  0.00  0.00     0.024 A 
ATOM      7  C   UNL d   1     -44.435  12.550  22.122  0.00  0.00     0.094 A 
ATOM      8  C   UNL d   1     -44.898  13.201  21.903  0.00  0.00     0.024 A 
ATOM      9  C   UNL d   1     -45.662  13.280  22.203  0.00  0.00     0.007 A 
BRANCH   7  10
ATOM     10  O   UNL d   1     -43.689  12.479  21.824  0.00  0.00    -0.328 OA
ATOM     11  C   UNL d   1     -43.427  12.998  21.232  0.00  0.00     0.181 C 
ENDBRANCH   7  10
ENDBRANCH   1   4
BRANCH   3  12
ATOM     12  C   UNL d   1     -48.095  12.488  22.949  0.00  0.00     0.102 C 
BRANCH  12  13
ATOM     13  C   UNL d   1     -48.687  11.998  22.725  0.00  0.00     0.021 C 
BRANCH  13  14
ATOM     14  C   UNL d   1     -49.469  12.193  22.866  0.00  0.00     0.002 A 
ATOM     15  C   UNL d   1     -49.842  11.950  23.554  0.00  0.00     0.000 A 
ATOM     16  C   UNL d   1     -50.631  12.147  23.696  0.00  0.00     0.000 A 
ATOM     17  C   UNL d   1     -51.064  12.590  23.154  0.00  0.00     0.000 A 
ATOM     18  C   UNL d   1     -50.684  12.835  22.456  0.00  0.00     0.000 A 
ATOM     19  C   UNL d   1     -49.885  12.632  22.319  0.00  0.00     0.000 A 
ENDBRANCH  13  14
ENDBRANCH  12  13
ENDBRANCH   3  12
TORSDOF 5
ENDMDL
MODEL 3
REMARK VINA RESULT:      -5.7      1.229      5.047
REMARK  5 active torsions:
REMARK  status: ('A' for Active; 'I' for Inactive)
REMARK    1  A    between atoms: C_2  and  C_1 
REMARK       I    between atoms: N_5  and  C_1 
REMARK    2  A    between atoms: C_3  and  C_14 
REMARK    3  A    between atoms: C_12  and  N_5 
REMARK    4  A    between atoms: O_13  and  C_9 
REMARK    5  A    between atoms: C_14  and  C_12 
ROOT
ATOM      1  C   UNL d   1     -48.372  13.734  22.243  0.00  0.00     0.279 C 
ATOM      2  O   UNL d   1     -48.402  13.206  21.622  0.00  0.00    -0.265 OA
ATOM      3  N   UNL d   1     -47.693  13.830  22.695  0.00  0.00    -0.206 NA
ENDROOT
BRANCH   1   4
ATOM      4  C   UNL d   1     -49.041  14.184  22.422  0.00  0.00     0.058 A 
ATOM      5  C   UNL d   1     -48.954  14.934  22.710  0.00  0.00     0.007 A 
ATOM      6  C   UNL d   1     -49.639  15.380  22.888  0.00  0.00     0.024 A 
ATOM      7  C   UNL d   1     -50.362  15.076  22.779  0.00  0.00     0.094 A 
ATOM      8  C   UNL d   1     -50.454  14.307  22.484  0.00  0.00     0.024 A 
ATOM      9  C   UNL d   1     -49.789  13.855  22.304  0.00  0.00     0.007 A 
BRANCH   7  10
ATOM     10  O   UNL d   1     -51.017  15.513  22.954  0.00  0.00    -0.328 OA
ATOM     11  C   UNL d   1     -51.064  15.921  23.675  0.00  0.00     0.181 C 
ENDBRANCH   7  10
ENDBRANCH   1   4
BRANCH   3  12
ATOM     12  C   UNL d   1     -47.029  13.373  22.504  0.00  0.00     0.102 C 
BRANCH  12  13
ATOM     13  C   UNL d   1     -46.307  13.556  22.798  0.00  0.00     0.021 C 
BRANCH  13  14
ATOM     14  C   UNL d   1     -45.648  13.116  22.595  0.00  0.00     0.002 A 
ATOM     15  C   UNL d   1     -45.113  13.395  22.042  0.00  0.00     0.000 A 
ATOM     16  C   UNL d   1     -44.448  12.951  21.838  0.00  0.00     0.000 A 
ATOM     17  C   UNL d   1     -44.304  12.217  22.183  0.00  0.00     0.000 A 
ATOM     18  C   UNL d   1     -44.848  11.935  22.746  0.00  0.00     0.000 A 
ATOM     19  C   UNL d   1     -45.519  12.391  22.946  0.00  0.00     0.000 A 
ENDBRANCH  13  14
ENDBRANCH  12  13
ENDBRANCH   3  12
TORSDOF 5
ENDMDL
MODEL 4
REMARK VINA RESULT:      -5.7      8.626      9.423
REMARK  5 active torsions:
REMARK  status: ('A' for Active; 'I' for Inactive)
REMARK    1  A    between atoms: C_2  and  C_1 
REMARK       I    between atoms: N_5  and  C_1 
REMARK    2  A    between atoms: C_3  and  C_14 
REMARK    3  A    between atoms: C_12  and  N_5 
REMARK    4  A    between atoms: O_13  and  C_9 
REMARK    5  A    between atoms: C_14  and  C_12 
ROOT
ATOM      1  C   UNL d   1     -39.565  15.030  19.350  0.00  0.00     0.279 C 
ATOM      2  O   UNL d   1     -38.862  15.442  19.395  0.00  0.00    -0.265 OA
ATOM      3  N   UNL d   1     -39.835  14.567  19.972  0.00  0.00    -0.206 NA
ENDROOT
BRANCH   1   4
ATOM      4  C   UNL d   1     -40.019  15.080  18.661  0.00  0.00     0.058 A 
ATOM      5  C   UNL d   1     -40.023  14.463  18.139  0.00  0.00     0.007 A 
ATOM      6  C   UNL d   1     -40.487  14.526  17.444  0.00  0.00     0.024 A 
ATOM      7  C   UNL d   1     -40.915  15.176  17.299  0.00  0.00     0.094 A 
ATOM      8  C   UNL d   1     -40.912  15.809  17.833  0.00  0.00     0.024 A 
ATOM      9  C   UNL d   1     -40.461  15.763  18.521  0.00  0.00     0.007 A 
BRANCH   7  10
ATOM     10  O   UNL d   1     -41.359  15.228  16.627  0.00  0.00    -0.328 OA
ATOM     11  C   UNL d   1     -41.783  15.922  16.462  0.00  0.00     0.181 C 
ENDBRANCH   7  10
ENDBRANCH   1   4
BRANCH   3  12
ATOM     12  C   UNL d   1     -39.371  14.526  20.657  0.00  0.00     0.102 C 
BRANCH  12  13
ATOM     13  C   UNL d   1     -39.612  14.100  21.291  0.00  0.00     0.021 C 
BRANCH  13  14
ATOM     14  C   UNL d   1     -39.142  14.037  21.957  0.00  0.00     0.002 A 
ATOM     15  C   UNL d   1     -39.106  14.648  22.502  0.00  0.00     0.000 A 
ATOM     16  C   UNL d   1     -38.631  14.584  23.175  0.00  0.00     0.000 A 
ATOM     17  C   UNL d   1     -38.183  13.908  23.317  0.00  0.00     0.000 A 
ATOM     18  C   UNL d   1     -38.220  13.289  22.762  0.00  0.00     0.000 A 
ATOM     19  C   UNL d   1     -38.703  13.362  22.084  0.00  0.00     0.000 A 
ENDBRANCH  13  14
ENDBRANCH  12  13
ENDBRANCH   3  12
TORSDOF 5
ENDMDL
MODEL 5
REMARK VINA RESULT:      -5.2      7.603      9.579
REMARK  5 active torsions:
REMARK  status: ('A' for Active; 'I' for Inactive)
REMARK    1  A    between atoms: C_2  and  C_1 
REMARK       I    between atoms: N_5  and  C_1 
REMARK    2  A    between atoms: C_3  and  C_14 
REMARK    3  A    between atoms: C_12  and  N_5 
REMARK    4  A    between atoms: O_13  and  C_9 
REMARK    5  A    between atoms: C_14  and  C_12 
ROOT
ATOM      1  C   UNL d   1     -39.848  14.244  17.805  0.00  0.00     0.279 C 
ATOM      2  O   UNL d   1     -40.503  13.783  17.958  0.00  0.00    -0.265 OA
ATOM      3  N   UNL d   1     -39.655  14.889  18.275  0.00  0.00    -0.206 NA
ENDROOT
BRANCH   1   4
ATOM      4  C   UNL d   1     -39.365  14.059  17.161  0.00  0.00     0.058 A 
ATOM      5  C   UNL d   1     -38.803  13.483  17.233  0.00  0.00     0.007 A 
ATOM      6  C   UNL d   1     -38.320  13.305  16.574  0.00  0.00     0.024 A 
ATOM      7  C   UNL d   1     -38.410  13.691  15.888  0.00  0.00     0.094 A 
ATOM      8  C   UNL d   1     -38.985  14.282  15.811  0.00  0.00     0.024 A 
ATOM      9  C   UNL d   1     -39.469  14.469  16.451  0.00  0.00     0.007 A 
BRANCH   7  10
ATOM     10  O   UNL d   1     -37.940  13.513  15.257  0.00  0.00    -0.328 OA
ATOM     11  C   UNL d   1     -38.172  13.732  14.491  0.00  0.00     0.181 C 
ENDBRANCH   7  10
ENDBRANCH   1   4
BRANCH   3  12
ATOM     12  C   UNL d   1     -40.147  15.065  18.917  0.00  0.00     0.102 C 
BRANCH  12  13
ATOM     13  C   UNL d   1     -40.074  15.757  19.314  0.00  0.00     0.021 C 
BRANCH  13  14
ATOM     14  C   UNL d   1     -40.271  15.809  20.106  0.00  0.00     0.002 A 
ATOM     15  C   UNL d   1     -39.688  15.814  20.681  0.00  0.00     0.000 A 
ATOM     16  C   UNL d   1     -39.887  15.867  21.481  0.00  0.00     0.000 A 
ATOM     17  C   UNL d   1     -40.673  15.918  21.722  0.00  0.00     0.000 A 
ATOM     18  C   UNL d   1     -41.264  15.913  21.136  0.00  0.00     0.000 A 
ATOM     19  C   UNL d   1     -41.054  15.859  20.329  0.00  0.00     0.000 A 
ENDBRANCH  13  14
ENDBRANCH  12  13
ENDBRANCH   3  12
TORSDOF 5
ENDMDL
MODEL 6
REMARK VINA RESULT:      -5.2      8.341      9.007
REMARK  5 active torsions:
REMARK  status: ('A' for Active; 'I' for Inactive)
REMARK    1  A    between atoms: C_2  and  C_1 
REMARK       I    between atoms: N_5  and  C_1 
REMARK    2  A    between atoms: C_3  and  C_14 
REMARK    3  A    between atoms: C_12  and  N_5 
REMARK    4  A    between atoms: O_13  and  C_9 
REMARK    5  A    between atoms: C_14  and  C_12 
ROOT
ATOM      1  C   UNL d   1     -39.770  14.631  20.540  0.00  0.00     0.279 C 
ATOM      2  O   UNL d   1     -40.109  15.343  20.747  0.00  0.00    -0.265 OA
ATOM      3  N   UNL d   1     -39.812  14.339  19.774  0.00  0.00    -0.206 NA
ENDROOT
BRANCH   1   4
ATOM      4  C   UNL d   1     -39.373  14.190  21.115  0.00  0.00     0.058 A 
ATOM      5  C   UNL d   1     -38.612  13.950  20.983  0.00  0.00     0.007 A 
ATOM      6  C   UNL d   1     -38.221  13.504  21.573  0.00  0.00     0.024 A 
ATOM      7  C   UNL d   1     -38.587  13.318  22.251  0.00  0.00     0.094 A 
ATOM      8  C   UNL d   1     -39.366  13.563  22.389  0.00  0.00     0.024 A 
ATOM      9  C   UNL d   1     -39.765  14.003  21.818  0.00  0.00     0.007 A 
BRANCH   7  10
ATOM     10  O   UNL d   1     -38.202  12.888  22.815  0.00  0.00    -0.328 OA
ATOM     11  C   UNL d   1     -38.219  13.134  23.608  0.00  0.00     0.181 C 
ENDBRANCH   7  10
ENDBRANCH   1   4
BRANCH   3  12
ATOM     12  C   UNL d   1     -40.212  14.790  19.206  0.00  0.00     0.102 C 
BRANCH  12  13
ATOM     13  C   UNL d   1     -40.403  14.478  18.494  0.00  0.00     0.021 C 
BRANCH  13  14
ATOM     14  C   UNL d   1     -40.461  14.952  17.830  0.00  0.00     0.002 A 
ATOM     15  C   UNL d   1     -39.855  14.972  17.278  0.00  0.00     0.000 A 
ATOM     16  C   UNL d   1     -39.913  15.451  16.608  0.00  0.00     0.000 A 
ATOM     17  C   UNL d   1     -40.577  15.919  16.475  0.00  0.00     0.000 A 
ATOM     18  C   UNL d   1     -41.191  15.897  17.036  0.00  0.00     0.000 A 
ATOM     19  C   UNL d   1     -41.125  15.410  17.712  0.00  0.00     0.000 A 
ENDBRANCH  13  14
ENDBRANCH  12  13
ENDBRANCH   3  12
TORSDOF 5
ENDMDL
MODEL 7
REMARK VINA RESULT:      -5.1      8.829     10.393
REMARK  5 active torsions:
REMARK  status: ('A' for Active; 'I' for Inactive)
REMARK    1  A    between atoms: C_2  and  C_1 
REMARK       I    between atoms: N_5  and  C_1 
REMARK    2  A    between atoms: C_3  and  C_14 
REMARK    3  A    between atoms: C_12  and  N_5 
REMARK    4  A    between atoms: O_13  and  C_9 
REMARK    5  A    between atoms: C_14  and  C_12 
ROOT
ATOM      1  C   UNL d   1     -39.179  13.795  18.095  0.00  0.00     0.279 C 
ATOM      2  O   UNL d   1     -39.930  13.502  18.213  0.00  0.00    -0.265 OA
ATOM      3  N   UNL d   1     -38.697  14.011  18.724  0.00  0.00    -0.206 NA
ENDROOT
BRANCH   1   4
ATOM      4  C   UNL d   1     -38.893  13.878  17.325  0.00  0.00     0.058 A 
ATOM      5  C   UNL d   1     -38.397  13.318  17.019  0.00  0.00     0.007 A 
ATOM      6  C   UNL d   1     -38.114  13.413  16.237  0.00  0.00     0.024 A 
ATOM      7  C   UNL d   1     -38.327  14.039  15.801  0.00  0.00     0.094 A 
ATOM      8  C   UNL d   1     -38.835  14.614  16.112  0.00  0.00     0.024 A 
ATOM      9  C   UNL d   1     -39.122  14.535  16.881  0.00  0.00     0.007 A 
BRANCH   7  10
ATOM     10  O   UNL d   1     -38.050  14.123  15.048  0.00  0.00    -0.328 OA
ATOM     11  C   UNL d   1     -37.944  13.454  14.568  0.00  0.00     0.181 C 
ENDBRANCH   7  10
ENDBRANCH   1   4
BRANCH   3  12
ATOM     12  C   UNL d   1     -38.994  13.924  19.492  0.00  0.00     0.102 C 
BRANCH  12  13
ATOM     13  C   UNL d   1     -38.640  14.284  20.113  0.00  0.00     0.021 C 
BRANCH  13  14
ATOM     14  C   UNL d   1     -38.688  13.966  20.865  0.00  0.00     0.002 A 
ATOM     15  C   UNL d   1     -38.108  13.458  21.141  0.00  0.00     0.000 A 
ATOM     16  C   UNL d   1     -38.156  13.137  21.901  0.00  0.00     0.000 A 
ATOM     17  C   UNL d   1     -38.786  13.318  22.400  0.00  0.00     0.000 A 
ATOM     18  C   UNL d   1     -39.374  13.834  22.118  0.00  0.00     0.000 A 
ATOM     19  C   UNL d   1     -39.318  14.154  21.349  0.00  0.00     0.000 A 
ENDBRANCH  13  14
ENDBRANCH  12  13
ENDBRANCH   3  12
TORSDOF 5
ENDMDL
MODEL 8
REMARK VINA RESULT:      -5.0      8.068     10.490
REMARK  5 active torsions:
REMARK  status: ('A' for Active; 'I' for Inactive)
REMARK    1  A    between atoms: C_2  and  C_1 
REMARK       I    between atoms: N_5  and  C_1 
REMARK    2  A    between atoms: C_3  and  C_14 
REMARK    3  A    between atoms: C_12  and  N_5 
REMARK    4  A    between atoms: O_13  and  C_9 
REMARK    5  A    between atoms: C_14  and  C_12 
ROOT
ATOM      1  C   UNL d   1     -40.066  14.324  18.291  0.00  0.00     0.279 C 
ATOM      2  O   UNL d   1     -40.684  14.085  17.815  0.00  0.00    -0.265 OA
ATOM      3  N   UNL d   1     -39.284  14.257  18.049  0.00  0.00    -0.206 NA
ENDROOT
BRANCH   1   4
ATOM      4  C   UNL d   1     -40.229  14.642  19.036  0.00  0.00     0.058 A 
ATOM      5  C   UNL d   1     -40.550  15.382  19.094  0.00  0.00     0.007 A 
ATOM      6  C   UNL d   1     -40.711  15.693  19.854  0.00  0.00     0.024 A 
ATOM      7  C   UNL d   1     -40.552  15.274  20.507  0.00  0.00     0.094 A 
ATOM      8  C   UNL d   1     -40.222  14.516  20.450  0.00  0.00     0.024 A 
ATOM      9  C   UNL d   1     -40.058  14.195  19.709  0.00  0.00     0.007 A 
BRANCH   7  10
ATOM     10  O   UNL d   1     -40.709  15.581  21.236  0.00  0.00    -0.328 OA
ATOM     11  C   UNL d   1     -40.089  15.856  21.714  0.00  0.00     0.181 C 
ENDBRANCH   7  10
ENDBRANCH   1   4
BRANCH   3  12
ATOM     12  C   UNL d   1     -39.134  13.936  17.300  0.00  0.00     0.102 C 
BRANCH  12  13
ATOM     13  C   UNL d   1     -38.388  13.900  17.011  0.00  0.00     0.021 C 
BRANCH  13  14
ATOM     14  C   UNL d   1     -38.249  13.918  16.205  0.00  0.00     0.002 A 
ATOM     15  C   UNL d   1     -38.276  14.625  15.792  0.00  0.00     0.000 A 
ATOM     16  C   UNL d   1     -38.136  14.643  14.978  0.00  0.00     0.000 A 
ATOM     17  C   UNL d   1     -37.966  13.953  14.560  0.00  0.00     0.000 A 
ATOM     18  C   UNL d   1     -37.940  13.236  14.982  0.00  0.00     0.000 A 
ATOM     19  C   UNL d   1     -38.082  13.227  15.805  0.00  0.00     0.000 A 
ENDBRANCH  13  14
ENDBRANCH  12  13
ENDBRANCH   3  12
TORSDOF 5
ENDMDL
MODEL 9
REMARK VINA RESULT:      -5.0      1.610      5.303
REMARK  5 active torsions:
REMARK  status: ('A' for Active; 'I' for Inactive)
REMARK    1  A    between atoms: C_2  and  C_1 
REMARK       I    between atoms: N_5  and  C_1 
REMARK    2  A    between atoms: C_3  and  C_14 
REMARK    3  A    between atoms: C_12  and  N_5 
REMARK    4  A    between atoms: O_13  and  C_9 
REMARK    5  A    between atoms: C_14  and  C_12 
ROOT
ATOM      1  C   UNL d   1     -46.751  13.229  23.143  0.00  0.00     0.279 C 
ATOM      2  O   UNL d   1     -46.152  13.735  23.370  0.00  0.00    -0.265 OA
ATOM      3  N   UNL d   1     -46.621  12.425  23.041  0.00  0.00    -0.206 NA
ENDROOT
BRANCH   1   4
ATOM      4  C   UNL d   1     -47.508  13.533  23.013  0.00  0.00     0.058 A 
ATOM      5  C   UNL d   1     -48.156  13.086  23.196  0.00  0.00     0.007 A 
ATOM      6  C   UNL d   1     -48.918  13.404  23.059  0.00  0.00     0.024 A 
ATOM      7  C   UNL d   1     -49.006  14.131  22.756  0.00  0.00     0.094 A 
ATOM      8  C   UNL d   1     -48.343  14.591  22.568  0.00  0.00     0.024 A 
ATOM      9  C   UNL d   1     -47.586  14.292  22.697  0.00  0.00     0.007 A 
BRANCH   7  10
ATOM     10  O   UNL d   1     -49.744  14.431  22.628  0.00  0.00    -0.328 OA
ATOM     11  C   UNL d   1     -50.039  14.489  21.854  0.00  0.00     0.181 C 
ENDBRANCH   7  10
ENDBRANCH   1   4
BRANCH   3  12
ATOM     12  C   UNL d   1     -45.858  12.133  23.175  0.00  0.00     0.102 C 
BRANCH  12  13
ATOM     13  C   UNL d   1     -45.746  11.404  23.486  0.00  0.00     0.021 C 
BRANCH  13  14
ATOM     14  C   UNL d   1     -45.031  11.015  23.399  0.00  0.00     0.002 A 
ATOM     15  C   UNL d   1     -44.397  11.385  23.035  0.00  0.00     0.000 A 
ATOM     16  C   UNL d   1     -43.676  10.993  22.947  0.00  0.00     0.000 A 
ATOM     17  C   UNL d   1     -43.573  10.223  23.221  0.00  0.00     0.000 A 
ATOM     18  C   UNL d   1     -44.218   9.849  23.590  0.00  0.00     0.000 A 
ATOM     19  C   UNL d   1     -44.944  10.253  23.675  0.00  0.00     0.000 A 
ENDBRANCH  13  14
ENDBRANCH  12  13
ENDBRANCH   3  12
TORSDOF 5
ENDMDL
