MODEL 1
REMARK VINA RESULT:     127.8      0.000      0.000
REMARK  9 active torsions:
REMARK  status: ('A' for Active; 'I' for Inactive)
REMARK    1  A    between atoms: C_2  and  N_11 
REMARK    2  A    between atoms: S_3  and  N_22 
REMARK    3  A    between atoms: C_16  and  S_3 
REMARK    4  A    between atoms: C_21  and  C_5 
REMARK       I    between atoms: N_11  and  C_17 
REMARK    5  A    between atoms: S_23  and  C_12 
REMARK    6  A    between atoms: C_17  and  C_27 
REMARK    7  A    between atoms: C_28  and  C_21 
REMARK    8  A    between atoms: N_22  and  C_28 
REMARK    9  A    between atoms: C_27  and  S_23 
ROOT
ATOM      1  N   UNL d   1      61.540  42.430  51.929  0.00  0.00    -0.191 N 
ATOM      2  C   UNL d   1      62.265  42.292  51.552  0.00  0.00     0.187 A 
ATOM      3  C   UNL d   1      61.367  41.777  52.400  0.00  0.00     0.188 A 
ATOM      4  N   UNL d   1      61.140  43.138  51.787  0.00  0.00    -0.156 NA
ATOM      5  N   UNL d   1      62.530  41.547  51.798  0.00  0.00    -0.127 NA
ATOM      6  N   UNL d   1      61.985  41.235  52.314  0.00  0.00    -0.127 NA
ATOM      7  C   UNL d   1      61.457  43.695  51.279  0.00  0.00     0.131 A 
ATOM      8  C   UNL d   1      62.581  42.849  51.044  0.00  0.00     0.043 A 
ATOM      9  C   UNL d   1      62.177  43.555  50.905  0.00  0.00     0.031 A 
ENDROOT
BRANCH   7  10
ATOM     10  S   UNL d   1      61.048  44.400  51.144  0.00  0.00    -0.061 SA
BRANCH  10  11
ATOM     11  C   UNL d   1      61.402  45.008  50.708  0.00  0.00     0.099 C 
BRANCH  11  12
ATOM     12  C   UNL d   1      61.112  45.778  50.780  0.00  0.00     0.288 C 
ATOM     13  N   UNL d   1      61.616  46.409  50.686  0.00  0.00    -0.182 NA
ATOM     14  O   UNL d   1      60.319  45.910  50.948  0.00  0.00    -0.265 OA
BRANCH  13  15
ATOM     15  C   UNL d   1      61.344  47.177  50.755  0.00  0.00     0.197 A 
ATOM     16  N   UNL d   1      61.017  47.626  50.140  0.00  0.00    -0.221 NA
ATOM     17  C   UNL d   1      60.819  48.364  50.454  0.00  0.00     0.090 A 
ATOM     18  C   UNL d   1      60.482  49.023  50.108  0.00  0.00     0.020 A 
ATOM     19  C   UNL d   1      61.023  48.369  51.258  0.00  0.00     0.050 A 
ATOM     20  C   UNL d   1      60.340  49.704  50.557  0.00  0.00     0.002 A 
ATOM     21  C   UNL d   1      60.548  49.705  51.372  0.00  0.00     0.001 A 
ATOM     22  C   UNL d   1      60.885  49.042  51.710  0.00  0.00     0.008 A 
ATOM     23  S   UNL d   1      61.342  47.651  51.445  0.00  0.00    -0.047 SA
ENDBRANCH  13  15
ENDBRANCH  11  12
ENDBRANCH  10  11
ENDBRANCH   7  10
BRANCH   3  24
ATOM     24  C   UNL d   1      60.696  41.689  52.870  0.00  0.00     0.062 C 
BRANCH  24  25
ATOM     25  C   UNL d   1      60.610  41.027  53.356  0.00  0.00     0.115 C 
BRANCH  25  26
ATOM     26  N   UNL d   1      60.434  41.125  54.159  0.00  0.00    -0.157 NA
BRANCH  26  27
ATOM     27  S   UNL d   1      59.906  40.607  54.532  0.00  0.00     0.285 S 
ATOM     28  O   UNL d   1      59.982  41.037  55.238  0.00  0.00    -0.198 OA
ATOM     29  O   UNL d   1      59.829  40.176  53.828  0.00  0.00    -0.198 OA
BRANCH  27  30
ATOM     30  C   UNL d   1      59.384  40.091  54.893  0.00  0.00     0.105 A 
ATOM     31  C   UNL d   1      59.425  39.955  55.705  0.00  0.00     0.013 A 
ATOM     32  C   UNL d   1      58.894  39.431  56.071  0.00  0.00     0.001 A 
ATOM     33  C   UNL d   1      58.322  39.044  55.622  0.00  0.00     0.000 A 
ATOM     34  C   UNL d   1      58.280  39.183  54.801  0.00  0.00     0.001 A 
ATOM     35  C   UNL d   1      57.797  38.528  55.975  0.00  0.00     0.000 C 
ATOM     36  C   UNL d   1      58.814  39.707  54.442  0.00  0.00     0.013 A 
ENDBRANCH  27  30
ENDBRANCH  26  27
ENDBRANCH  25  26
ENDBRANCH  24  25
ENDBRANCH   3  24
TORSDOF 9
ENDMDL
MODEL 2
REMARK VINA RESULT:     130.3      1.054      7.625
REMARK  9 active torsions:
REMARK  status: ('A' for Active; 'I' for Inactive)
REMARK    1  A    between atoms: C_2  and  N_11 
REMARK    2  A    between atoms: S_3  and  N_22 
REMARK    3  A    between atoms: C_16  and  S_3 
REMARK    4  A    between atoms: C_21  and  C_5 
REMARK       I    between atoms: N_11  and  C_17 
REMARK    5  A    between atoms: S_23  and  C_12 
REMARK    6  A    between atoms: C_17  and  C_27 
REMARK    7  A    between atoms: C_28  and  C_21 
REMARK    8  A    between atoms: N_22  and  C_28 
REMARK    9  A    between atoms: C_27  and  S_23 
ROOT
ATOM      1  N   UNL d   1      61.892  43.265  51.100  0.00  0.00    -0.191 N 
ATOM      2  C   UNL d   1      62.600  42.854  50.974  0.00  0.00     0.187 A 
ATOM      3  C   UNL d   1      61.863  43.895  50.570  0.00  0.00     0.188 A 
ATOM      4  N   UNL d   1      61.373  43.004  51.686  0.00  0.00    -0.156 NA
ATOM      5  N   UNL d   1      63.001  43.240  50.361  0.00  0.00    -0.127 NA
ATOM      6  N   UNL d   1      62.552  43.872  50.116  0.00  0.00    -0.127 NA
ATOM      7  C   UNL d   1      61.557  42.346  52.135  0.00  0.00     0.131 A 
ATOM      8  C   UNL d   1      62.785  42.196  51.424  0.00  0.00     0.043 A 
ATOM      9  C   UNL d   1      62.261  41.939  52.008  0.00  0.00     0.031 A 
ENDROOT
BRANCH   7  10
ATOM     10  S   UNL d   1      61.030  42.093  52.719  0.00  0.00    -0.061 SA
BRANCH  10  11
ATOM     11  C   UNL d   1      60.877  41.285  52.819  0.00  0.00     0.099 C 
BRANCH  11  12
ATOM     12  C   UNL d   1      60.321  41.046  53.380  0.00  0.00     0.288 C 
ATOM     13  N   UNL d   1      60.323  40.278  53.648  0.00  0.00    -0.182 NA
ATOM     14  O   UNL d   1      59.767  41.579  53.670  0.00  0.00    -0.265 OA
BRANCH  13  15
ATOM     15  C   UNL d   1      59.778  40.027  54.204  0.00  0.00     0.197 A 
ATOM     16  N   UNL d   1      59.025  39.726  54.034  0.00  0.00    -0.221 NA
ATOM     17  C   UNL d   1      58.666  39.543  54.755  0.00  0.00     0.090 A 
ATOM     18  C   UNL d   1      57.930  39.232  54.926  0.00  0.00     0.020 A 
ATOM     19  C   UNL d   1      59.196  39.730  55.366  0.00  0.00     0.050 A 
ATOM     20  C   UNL d   1      57.704  39.100  55.712  0.00  0.00     0.002 A 
ATOM     21  C   UNL d   1      58.244  39.291  56.327  0.00  0.00     0.001 A 
ATOM     22  C   UNL d   1      58.978  39.601  56.148  0.00  0.00     0.008 A 
ATOM     23  S   UNL d   1      59.872  40.024  55.036  0.00  0.00    -0.047 SA
ENDBRANCH  13  15
ENDBRANCH  11  12
ENDBRANCH  10  11
ENDBRANCH   7  10
BRANCH   3  24
ATOM     24  C   UNL d   1      61.251  44.443  50.510  0.00  0.00     0.062 C 
BRANCH  24  25
ATOM     25  C   UNL d   1      61.358  45.219  50.772  0.00  0.00     0.115 C 
BRANCH  25  26
ATOM     26  N   UNL d   1      61.431  45.834  50.222  0.00  0.00    -0.157 NA
BRANCH  26  27
ATOM     27  S   UNL d   1      61.270  46.614  50.451  0.00  0.00     0.285 S 
ATOM     28  O   UNL d   1      61.485  46.880  49.695  0.00  0.00    -0.198 OA
ATOM     29  O   UNL d   1      61.055  46.349  51.206  0.00  0.00    -0.198 OA
BRANCH  27  30
ATOM     30  C   UNL d   1      61.109  47.381  50.684  0.00  0.00     0.105 A 
ATOM     31  C   UNL d   1      60.646  47.527  51.350  0.00  0.00     0.013 A 
ATOM     32  C   UNL d   1      60.483  48.306  51.587  0.00  0.00     0.001 A 
ATOM     33  C   UNL d   1      60.785  48.939  51.154  0.00  0.00     0.000 A 
ATOM     34  C   UNL d   1      61.253  48.791  50.481  0.00  0.00     0.001 A 
ATOM     35  C   UNL d   1      60.629  49.708  51.381  0.00  0.00     0.000 C 
ATOM     36  C   UNL d   1      61.412  48.010  50.251  0.00  0.00     0.013 A 
ENDBRANCH  27  30
ENDBRANCH  26  27
ENDBRANCH  25  26
ENDBRANCH  24  25
ENDBRANCH   3  24
TORSDOF 9
ENDMDL
