MODEL 1
REMARK VINA RESULT:      -7.2      0.000      0.000
REMARK  5 active torsions:
REMARK  status: ('A' for Active; 'I' for Inactive)
REMARK    1  A    between atoms: N_2  and  C_1 
REMARK    2  A    between atoms: N_3  and  C_1 
REMARK       I    between atoms: C_6  and  N_3 
REMARK    3  A    between atoms: C_12  and  C_6 
REMARK    4  A    between atoms: O_11  and  C_12 
REMARK    5  A    between atoms: C_13  and  O_11 
ROOT
ATOM      1  C   UNL d   1     -48.213  13.004  22.439  0.00  0.00     0.209 C 
ATOM      2  S   UNL d   1     -47.947  12.769  21.702  0.00  0.00    -0.038 SA
ENDROOT
BRANCH   1   3
ATOM      3  N   UNL d   1     -48.657  12.475  22.897  0.00  0.00    -0.282 N 
ATOM      4  C   UNL d   1     -49.470  12.485  23.002  0.00  0.00     0.066 A 
ATOM      5  C   UNL d   1     -49.676  11.862  23.497  0.00  0.00     0.018 A 
ATOM      6  C   UNL d   1     -50.054  12.990  22.706  0.00  0.00     0.018 A 
ATOM      7  C   UNL d   1     -50.467  11.741  23.698  0.00  0.00     0.002 A 
ATOM      8  C   UNL d   1     -48.991  11.466  23.698  0.00  0.00     0.021 A 
ATOM      9  C   UNL d   1     -51.064  12.246  23.403  0.00  0.00     0.000 A 
ATOM     10  C   UNL d   1     -50.858  12.870  22.908  0.00  0.00     0.002 A 
ATOM     11  C   UNL d   1     -48.357  11.842  23.328  0.00  0.00     0.082 A 
ENDBRANCH   1   3
BRANCH   1  12
ATOM     12  N   UNL d   1     -48.043  13.753  22.721  0.00  0.00    -0.178 NA
ATOM     13  C   UNL d   1     -47.258  14.013  22.762  0.00  0.00     0.306 C 
ATOM     14  O   UNL d   1     -47.092  14.768  23.047  0.00  0.00    -0.263 OA
BRANCH  13  15
ATOM     15  C   UNL d   1     -46.653  13.523  22.520  0.00  0.00     0.185 C 
BRANCH  15  16
ATOM     16  O   UNL d   1     -45.871  13.731  22.674  0.00  0.00    -0.300 OA
BRANCH  16  17
ATOM     17  C   UNL d   1     -45.257  13.234  22.416  0.00  0.00     0.100 A 
ATOM     18  C   UNL d   1     -44.804  13.452  21.771  0.00  0.00     0.025 A 
ATOM     19  C   UNL d   1     -44.193  12.962  21.511  0.00  0.00     0.002 A 
ATOM     20  C   UNL d   1     -44.041  12.250  21.904  0.00  0.00     0.000 A 
ATOM     21  C   UNL d   1     -44.499  12.034  22.553  0.00  0.00     0.002 A 
ATOM     22  C   UNL d   1     -45.110  12.524  22.813  0.00  0.00     0.025 A 
ENDBRANCH  16  17
ENDBRANCH  15  16
ENDBRANCH  13  15
ENDBRANCH   1  12
TORSDOF 5
ENDMDL
MODEL 2
REMARK VINA RESULT:      -7.1      8.447     10.339
REMARK  5 active torsions:
REMARK  status: ('A' for Active; 'I' for Inactive)
REMARK    1  A    between atoms: N_2  and  C_1 
REMARK    2  A    between atoms: N_3  and  C_1 
REMARK       I    between atoms: C_6  and  N_3 
REMARK    3  A    between atoms: C_12  and  C_6 
REMARK    4  A    between atoms: O_11  and  C_12 
REMARK    5  A    between atoms: C_13  and  O_11 
ROOT
ATOM      1  C   UNL d   1     -39.236  14.171  17.877  0.00  0.00     0.209 C 
ATOM      2  S   UNL d   1     -38.740  13.866  18.451  0.00  0.00    -0.038 SA
ENDROOT
BRANCH   1   3
ATOM      3  N   UNL d   1     -38.923  14.673  17.297  0.00  0.00    -0.282 N 
ATOM      4  C   UNL d   1     -38.614  14.448  16.571  0.00  0.00     0.066 A 
ATOM      5  C   UNL d   1     -38.367  15.122  16.172  0.00  0.00     0.018 A 
ATOM      6  C   UNL d   1     -38.528  13.703  16.222  0.00  0.00     0.018 A 
ATOM      7  C   UNL d   1     -38.031  15.056  15.422  0.00  0.00     0.002 A 
ATOM      8  C   UNL d   1     -38.522  15.766  16.651  0.00  0.00     0.021 A 
ATOM      9  C   UNL d   1     -37.940  14.308  15.060  0.00  0.00     0.000 A 
ATOM     10  C   UNL d   1     -38.187  13.633  15.459  0.00  0.00     0.002 A 
ATOM     11  C   UNL d   1     -38.867  15.492  17.348  0.00  0.00     0.082 A 
ENDBRANCH   1   3
BRANCH   1  12
ATOM     12  N   UNL d   1     -40.032  13.983  17.874  0.00  0.00    -0.178 NA
ATOM     13  C   UNL d   1     -40.477  14.051  18.570  0.00  0.00     0.306 C 
ATOM     14  O   UNL d   1     -41.279  13.860  18.563  0.00  0.00    -0.263 OA
BRANCH  13  15
ATOM     15  C   UNL d   1     -40.121  14.307  19.257  0.00  0.00     0.185 C 
BRANCH  15  16
ATOM     16  O   UNL d   1     -40.580  14.454  19.926  0.00  0.00    -0.300 OA
BRANCH  16  17
ATOM     17  C   UNL d   1     -40.225  14.779  20.603  0.00  0.00     0.100 A 
ATOM     18  C   UNL d   1     -40.253  15.587  20.726  0.00  0.00     0.025 A 
ATOM     19  C   UNL d   1     -39.901  15.914  21.398  0.00  0.00     0.002 A 
ATOM     20  C   UNL d   1     -39.521  15.423  21.944  0.00  0.00     0.000 A 
ATOM     21  C   UNL d   1     -39.494  14.611  21.816  0.00  0.00     0.002 A 
ATOM     22  C   UNL d   1     -39.846  14.283  21.145  0.00  0.00     0.025 A 
ENDBRANCH  16  17
ENDBRANCH  15  16
ENDBRANCH  13  15
ENDBRANCH   1  12
TORSDOF 5
ENDMDL
MODEL 3
REMARK VINA RESULT:      -6.9      0.958      1.641
REMARK  5 active torsions:
REMARK  status: ('A' for Active; 'I' for Inactive)
REMARK    1  A    between atoms: N_2  and  C_1 
REMARK    2  A    between atoms: N_3  and  C_1 
REMARK       I    between atoms: C_6  and  N_3 
REMARK    3  A    between atoms: C_12  and  C_6 
REMARK    4  A    between atoms: O_11  and  C_12 
REMARK    5  A    between atoms: C_13  and  O_11 
ROOT
ATOM      1  C   UNL d   1     -49.004  14.130  22.284  0.00  0.00     0.209 C 
ATOM      2  S   UNL d   1     -48.727  13.560  21.767  0.00  0.00    -0.038 SA
ENDROOT
BRANCH   1   3
ATOM      3  N   UNL d   1     -49.694  13.982  22.718  0.00  0.00    -0.282 N 
ATOM      4  C   UNL d   1     -49.965  13.249  22.967  0.00  0.00     0.066 A 
ATOM      5  C   UNL d   1     -50.668  13.357  23.378  0.00  0.00     0.018 A 
ATOM      6  C   UNL d   1     -49.654  12.489  22.870  0.00  0.00     0.018 A 
ATOM      7  C   UNL d   1     -51.064  12.706  23.693  0.00  0.00     0.002 A 
ATOM      8  C   UNL d   1     -50.834  14.157  23.383  0.00  0.00     0.021 A 
ATOM      9  C   UNL d   1     -50.758  11.934  23.600  0.00  0.00     0.000 A 
ATOM     10  C   UNL d   1     -50.054  11.825  23.189  0.00  0.00     0.002 A 
ATOM     11  C   UNL d   1     -50.233  14.547  22.975  0.00  0.00     0.082 A 
ENDBRANCH   1   3
BRANCH   1  12
ATOM     12  N   UNL d   1     -48.605  14.839  22.373  0.00  0.00    -0.178 NA
ATOM     13  C   UNL d   1     -47.789  14.841  22.515  0.00  0.00     0.306 C 
ATOM     14  O   UNL d   1     -47.391  15.557  22.604  0.00  0.00    -0.263 OA
BRANCH  13  15
ATOM     15  C   UNL d   1     -47.383  14.135  22.567  0.00  0.00     0.185 C 
BRANCH  15  16
ATOM     16  O   UNL d   1     -46.640  14.116  22.923  0.00  0.00    -0.300 OA
BRANCH  16  17
ATOM     17  C   UNL d   1     -46.183  13.423  22.879  0.00  0.00     0.100 A 
ATOM     18  C   UNL d   1     -46.313  12.818  23.413  0.00  0.00     0.025 A 
ATOM     19  C   UNL d   1     -45.861  12.128  23.373  0.00  0.00     0.002 A 
ATOM     20  C   UNL d   1     -45.278  12.051  22.791  0.00  0.00     0.000 A 
ATOM     21  C   UNL d   1     -45.150  12.663  22.255  0.00  0.00     0.002 A 
ATOM     22  C   UNL d   1     -45.602  13.352  22.295  0.00  0.00     0.025 A 
ENDBRANCH  16  17
ENDBRANCH  15  16
ENDBRANCH  13  15
ENDBRANCH   1  12
TORSDOF 5
ENDMDL
MODEL 4
REMARK VINA RESULT:      -6.9      8.613      9.917
REMARK  5 active torsions:
REMARK  status: ('A' for Active; 'I' for Inactive)
REMARK    1  A    between atoms: N_2  and  C_1 
REMARK    2  A    between atoms: N_3  and  C_1 
REMARK       I    between atoms: C_6  and  N_3 
REMARK    3  A    between atoms: C_12  and  C_6 
REMARK    4  A    between atoms: O_11  and  C_12 
REMARK    5  A    between atoms: C_13  and  O_11 
ROOT
ATOM      1  C   UNL d   1     -39.405  14.654  19.543  0.00  0.00     0.209 C 
ATOM      2  S   UNL d   1     -39.197  15.426  19.369  0.00  0.00    -0.038 SA
ENDROOT
BRANCH   1   3
ATOM      3  N   UNL d   1     -38.919  14.208  20.045  0.00  0.00    -0.282 N 
ATOM      4  C   UNL d   1     -39.011  14.114  20.854  0.00  0.00     0.066 A 
ATOM      5  C   UNL d   1     -38.408  13.629  21.130  0.00  0.00     0.018 A 
ATOM      6  C   UNL d   1     -39.576  14.413  21.379  0.00  0.00     0.018 A 
ATOM      7  C   UNL d   1     -38.366  13.440  21.932  0.00  0.00     0.002 A 
ATOM      8  C   UNL d   1     -37.943  13.422  20.491  0.00  0.00     0.021 A 
ATOM      9  C   UNL d   1     -38.932  13.738  22.470  0.00  0.00     0.000 A 
ATOM     10  C   UNL d   1     -39.535  14.224  22.194  0.00  0.00     0.002 A 
ATOM     11  C   UNL d   1     -38.256  13.779  19.817  0.00  0.00     0.082 A 
ENDBRANCH   1   3
BRANCH   1  12
ATOM     12  N   UNL d   1     -40.083  14.326  19.225  0.00  0.00    -0.178 NA
ATOM     13  C   UNL d   1     -40.223  14.369  18.410  0.00  0.00     0.306 C 
ATOM     14  O   UNL d   1     -40.908  14.037  18.094  0.00  0.00    -0.263 OA
BRANCH  13  15
ATOM     15  C   UNL d   1     -39.683  14.738  17.923  0.00  0.00     0.185 C 
BRANCH  15  16
ATOM     16  O   UNL d   1     -39.828  14.787  17.113  0.00  0.00    -0.300 OA
BRANCH  16  17
ATOM     17  C   UNL d   1     -39.195  14.917  16.591  0.00  0.00     0.100 A 
ATOM     18  C   UNL d   1     -39.013  15.679  16.357  0.00  0.00     0.025 A 
ATOM     19  C   UNL d   1     -38.384  15.812  15.839  0.00  0.00     0.002 A 
ATOM     20  C   UNL d   1     -37.940  15.174  15.557  0.00  0.00     0.000 A 
ATOM     21  C   UNL d   1     -38.126  14.408  15.795  0.00  0.00     0.002 A 
ATOM     22  C   UNL d   1     -38.754  14.274  16.313  0.00  0.00     0.025 A 
ENDBRANCH  16  17
ENDBRANCH  15  16
ENDBRANCH  13  15
ENDBRANCH   1  12
TORSDOF 5
ENDMDL
MODEL 5
REMARK VINA RESULT:      -6.8      1.080      1.588
REMARK  5 active torsions:
REMARK  status: ('A' for Active; 'I' for Inactive)
REMARK    1  A    between atoms: N_2  and  C_1 
REMARK    2  A    between atoms: N_3  and  C_1 
REMARK       I    between atoms: C_6  and  N_3 
REMARK    3  A    between atoms: C_12  and  C_6 
REMARK    4  A    between atoms: O_11  and  C_12 
REMARK    5  A    between atoms: C_13  and  O_11 
ROOT
ATOM      1  C   UNL d   1     -48.070  12.866  22.320  0.00  0.00     0.209 C 
ATOM      2  S   UNL d   1     -47.667  12.465  21.732  0.00  0.00    -0.038 SA
ENDROOT
BRANCH   1   3
ATOM      3  N   UNL d   1     -48.850  12.648  22.496  0.00  0.00    -0.282 N 
ATOM      4  C   UNL d   1     -49.531  13.032  22.250  0.00  0.00     0.066 A 
ATOM      5  C   UNL d   1     -50.181  12.628  22.551  0.00  0.00     0.018 A 
ATOM      6  C   UNL d   1     -49.641  13.706  21.784  0.00  0.00     0.018 A 
ATOM      7  C   UNL d   1     -50.943  12.897  22.388  0.00  0.00     0.002 A 
ATOM      8  C   UNL d   1     -49.902  11.994  22.984  0.00  0.00     0.021 A 
ATOM      9  C   UNL d   1     -51.064  13.577  21.918  0.00  0.00     0.000 A 
ATOM     10  C   UNL d   1     -50.415  13.981  21.616  0.00  0.00     0.002 A 
ATOM     11  C   UNL d   1     -49.078  12.003  22.953  0.00  0.00     0.082 A 
ENDBRANCH   1   3
BRANCH   1  12
ATOM     12  N   UNL d   1     -47.709  13.476  22.729  0.00  0.00    -0.178 NA
ATOM     13  C   UNL d   1     -46.950  13.372  23.044  0.00  0.00     0.306 C 
ATOM     14  O   UNL d   1     -46.590  13.988  23.455  0.00  0.00    -0.263 OA
BRANCH  13  15
ATOM     15  C   UNL d   1     -46.563  12.661  22.947  0.00  0.00     0.185 C 
BRANCH  15  16
ATOM     16  O   UNL d   1     -45.779  12.585  23.192  0.00  0.00    -0.300 OA
BRANCH  16  17
ATOM     17  C   UNL d   1     -45.445  11.828  23.263  0.00  0.00     0.100 A 
ATOM     18  C   UNL d   1     -45.870  11.230  23.625  0.00  0.00     0.025 A 
ATOM     19  C   UNL d   1     -45.541  10.476  23.698  0.00  0.00     0.002 A 
ATOM     20  C   UNL d   1     -44.782  10.328  23.405  0.00  0.00     0.000 A 
ATOM     21  C   UNL d   1     -44.357  10.932  23.042  0.00  0.00     0.002 A 
ATOM     22  C   UNL d   1     -44.685  11.686  22.968  0.00  0.00     0.025 A 
ENDBRANCH  16  17
ENDBRANCH  15  16
ENDBRANCH  13  15
ENDBRANCH   1  12
TORSDOF 5
ENDMDL
MODEL 6
REMARK VINA RESULT:      -6.7      7.881      8.986
REMARK  5 active torsions:
REMARK  status: ('A' for Active; 'I' for Inactive)
REMARK    1  A    between atoms: N_2  and  C_1 
REMARK    2  A    between atoms: N_3  and  C_1 
REMARK       I    between atoms: C_6  and  N_3 
REMARK    3  A    between atoms: C_12  and  C_6 
REMARK    4  A    between atoms: O_11  and  C_12 
REMARK    5  A    between atoms: C_13  and  O_11 
ROOT
ATOM      1  C   UNL d   1     -40.128  15.469  19.480  0.00  0.00     0.209 C 
ATOM      2  S   UNL d   1     -39.502  15.916  19.759  0.00  0.00    -0.038 SA
ENDROOT
BRANCH   1   3
ATOM      3  N   UNL d   1     -40.047  15.067  18.760  0.00  0.00    -0.282 N 
ATOM      4  C   UNL d   1     -40.416  15.255  18.052  0.00  0.00     0.066 A 
ATOM      5  C   UNL d   1     -40.179  14.712  17.482  0.00  0.00     0.018 A 
ATOM      6  C   UNL d   1     -40.944  15.859  17.855  0.00  0.00     0.018 A 
ATOM      7  C   UNL d   1     -40.469  14.771  16.713  0.00  0.00     0.002 A 
ATOM      8  C   UNL d   1     -39.663  14.188  17.837  0.00  0.00     0.021 A 
ATOM      9  C   UNL d   1     -41.004  15.379  16.504  0.00  0.00     0.000 A 
ATOM     10  C   UNL d   1     -41.241  15.922  17.074  0.00  0.00     0.002 A 
ATOM     11  C   UNL d   1     -39.578  14.404  18.629  0.00  0.00     0.082 A 
ENDBRANCH   1   3
BRANCH   1  12
ATOM     12  N   UNL d   1     -40.824  15.419  19.905  0.00  0.00    -0.178 NA
ATOM     13  C   UNL d   1     -40.810  15.179  20.698  0.00  0.00     0.306 C 
ATOM     14  O   UNL d   1     -41.515  15.130  21.123  0.00  0.00    -0.263 OA
BRANCH  13  15
ATOM     15  C   UNL d   1     -40.101  14.993  21.055  0.00  0.00     0.185 C 
BRANCH  15  16
ATOM     16  O   UNL d   1     -40.098  14.631  21.796  0.00  0.00    -0.300 OA
BRANCH  16  17
ATOM     17  C   UNL d   1     -39.374  14.421  22.145  0.00  0.00     0.100 A 
ATOM     18  C   UNL d   1     -39.098  13.655  22.074  0.00  0.00     0.025 A 
ATOM     19  C   UNL d   1     -38.379  13.442  22.420  0.00  0.00     0.002 A 
ATOM     20  C   UNL d   1     -37.940  14.005  22.837  0.00  0.00     0.000 A 
ATOM     21  C   UNL d   1     -38.221  14.776  22.906  0.00  0.00     0.002 A 
ATOM     22  C   UNL d   1     -38.940  14.989  22.561  0.00  0.00     0.025 A 
ENDBRANCH  16  17
ENDBRANCH  15  16
ENDBRANCH  13  15
ENDBRANCH   1  12
TORSDOF 5
ENDMDL
MODEL 7
REMARK VINA RESULT:      -6.5      8.550     10.262
REMARK  5 active torsions:
REMARK  status: ('A' for Active; 'I' for Inactive)
REMARK    1  A    between atoms: N_2  and  C_1 
REMARK    2  A    between atoms: N_3  and  C_1 
REMARK       I    between atoms: C_6  and  N_3 
REMARK    3  A    between atoms: C_12  and  C_6 
REMARK    4  A    between atoms: O_11  and  C_12 
REMARK    5  A    between atoms: C_13  and  O_11 
ROOT
ATOM      1  C   UNL d   1     -39.021  14.952  18.095  0.00  0.00     0.209 C 
ATOM      2  S   UNL d   1     -38.457  15.360  18.525  0.00  0.00    -0.038 SA
ENDROOT
BRANCH   1   3
ATOM      3  N   UNL d   1     -38.799  14.265  17.688  0.00  0.00    -0.282 N 
ATOM      4  C   UNL d   1     -38.520  14.222  16.918  0.00  0.00     0.066 A 
ATOM      5  C   UNL d   1     -38.369  13.435  16.739  0.00  0.00     0.018 A 
ATOM      6  C   UNL d   1     -38.385  14.810  16.352  0.00  0.00     0.018 A 
ATOM      7  C   UNL d   1     -38.080  13.231  15.994  0.00  0.00     0.002 A 
ATOM      8  C   UNL d   1     -38.554  12.989  17.398  0.00  0.00     0.021 A 
ATOM      9  C   UNL d   1     -37.940  13.818  15.415  0.00  0.00     0.000 A 
ATOM     10  C   UNL d   1     -38.092  14.606  15.594  0.00  0.00     0.002 A 
ATOM     11  C   UNL d   1     -38.821  13.500  17.988  0.00  0.00     0.082 A 
ENDBRANCH   1   3
BRANCH   1  12
ATOM     12  N   UNL d   1     -39.793  15.219  18.065  0.00  0.00    -0.178 NA
ATOM     13  C   UNL d   1     -40.194  15.410  18.764  0.00  0.00     0.306 C 
ATOM     14  O   UNL d   1     -40.972  15.678  18.730  0.00  0.00    -0.263 OA
BRANCH  13  15
ATOM     15  C   UNL d   1     -39.817  15.331  19.483  0.00  0.00     0.185 C 
BRANCH  15  16
ATOM     16  O   UNL d   1     -40.204  15.560  20.175  0.00  0.00    -0.300 OA
BRANCH  16  17
ATOM     17  C   UNL d   1     -39.908  15.311  20.910  0.00  0.00     0.100 A 
ATOM     18  C   UNL d   1     -40.001  14.532  21.142  0.00  0.00     0.025 A 
ATOM     19  C   UNL d   1     -39.708  14.281  21.871  0.00  0.00     0.002 A 
ATOM     20  C   UNL d   1     -39.321  14.818  22.367  0.00  0.00     0.000 A 
ATOM     21  C   UNL d   1     -39.229  15.601  22.131  0.00  0.00     0.002 A 
ATOM     22  C   UNL d   1     -39.522  15.853  21.401  0.00  0.00     0.025 A 
ENDBRANCH  16  17
ENDBRANCH  15  16
ENDBRANCH  13  15
ENDBRANCH   1  12
TORSDOF 5
ENDMDL
MODEL 8
REMARK VINA RESULT:      -6.4      1.623      4.357
REMARK  5 active torsions:
REMARK  status: ('A' for Active; 'I' for Inactive)
REMARK    1  A    between atoms: N_2  and  C_1 
REMARK    2  A    between atoms: N_3  and  C_1 
REMARK       I    between atoms: C_6  and  N_3 
REMARK    3  A    between atoms: C_12  and  C_6 
REMARK    4  A    between atoms: O_11  and  C_12 
REMARK    5  A    between atoms: C_13  and  O_11 
ROOT
ATOM      1  C   UNL d   1     -47.054  13.279  22.497  0.00  0.00     0.209 C 
ATOM      2  S   UNL d   1     -47.581  13.188  21.878  0.00  0.00    -0.038 SA
ENDROOT
BRANCH   1   3
ATOM      3  N   UNL d   1     -46.792  12.608  22.906  0.00  0.00    -0.282 N 
ATOM      4  C   UNL d   1     -46.038  12.285  22.882  0.00  0.00     0.066 A 
ATOM      5  C   UNL d   1     -46.022  11.625  23.370  0.00  0.00     0.018 A 
ATOM      6  C   UNL d   1     -45.359  12.514  22.470  0.00  0.00     0.018 A 
ATOM      7  C   UNL d   1     -45.326  11.190  23.450  0.00  0.00     0.002 A 
ATOM      8  C   UNL d   1     -46.765  11.539  23.698  0.00  0.00     0.021 A 
ATOM      9  C   UNL d   1     -44.634  11.413  23.038  0.00  0.00     0.000 A 
ATOM     10  C   UNL d   1     -44.650  12.074  22.549  0.00  0.00     0.002 A 
ATOM     11  C   UNL d   1     -47.245  12.146  23.413  0.00  0.00     0.082 A 
ENDBRANCH   1   3
BRANCH   1  12
ATOM     12  N   UNL d   1     -46.789  14.023  22.709  0.00  0.00    -0.178 NA
ATOM     13  C   UNL d   1     -47.329  14.644  22.806  0.00  0.00     0.306 C 
ATOM     14  O   UNL d   1     -47.057  15.392  23.020  0.00  0.00    -0.263 OA
BRANCH  13  15
ATOM     15  C   UNL d   1     -48.125  14.514  22.689  0.00  0.00     0.185 C 
BRANCH  15  16
ATOM     16  O   UNL d   1     -48.638  15.155  22.609  0.00  0.00    -0.300 OA
BRANCH  16  17
ATOM     17  C   UNL d   1     -49.446  15.054  22.772  0.00  0.00     0.100 A 
ATOM     18  C   UNL d   1     -49.686  14.867  23.532  0.00  0.00     0.025 A 
ATOM     19  C   UNL d   1     -50.488  14.766  23.698  0.00  0.00     0.002 A 
ATOM     20  C   UNL d   1     -51.048  14.856  23.095  0.00  0.00     0.000 A 
ATOM     21  C   UNL d   1     -50.803  15.045  22.333  0.00  0.00     0.002 A 
ATOM     22  C   UNL d   1     -50.001  15.145  22.166  0.00  0.00     0.025 A 
ENDBRANCH  16  17
ENDBRANCH  15  16
ENDBRANCH  13  15
ENDBRANCH   1  12
TORSDOF 5
ENDMDL
MODEL 9
REMARK VINA RESULT:      -5.6      8.851      9.434
REMARK  5 active torsions:
REMARK  status: ('A' for Active; 'I' for Inactive)
REMARK    1  A    between atoms: N_2  and  C_1 
REMARK    2  A    between atoms: N_3  and  C_1 
REMARK       I    between atoms: C_6  and  N_3 
REMARK    3  A    between atoms: C_12  and  C_6 
REMARK    4  A    between atoms: O_11  and  C_12 
REMARK    5  A    between atoms: C_13  and  O_11 
ROOT
ATOM      1  C   UNL d   1     -39.494  14.473  20.724  0.00  0.00     0.209 C 
ATOM      2  S   UNL d   1     -40.282  14.400  20.516  0.00  0.00    -0.038 SA
ENDROOT
BRANCH   1   3
ATOM      3  N   UNL d   1     -39.293  14.904  21.403  0.00  0.00    -0.282 N 
ATOM      4  C   UNL d   1     -39.080  14.594  22.132  0.00  0.00     0.066 A 
ATOM      5  C   UNL d   1     -38.928  15.218  22.645  0.00  0.00     0.018 A 
ATOM      6  C   UNL d   1     -39.006  13.813  22.393  0.00  0.00     0.018 A 
ATOM      7  C   UNL d   1     -38.700  15.063  23.423  0.00  0.00     0.002 A 
ATOM      8  C   UNL d   1     -39.046  15.914  22.234  0.00  0.00     0.021 A 
ATOM      9  C   UNL d   1     -38.622  14.277  23.696  0.00  0.00     0.000 A 
ATOM     10  C   UNL d   1     -38.775  13.654  23.183  0.00  0.00     0.002 A 
ATOM     11  C   UNL d   1     -39.272  15.724  21.464  0.00  0.00     0.082 A 
ENDBRANCH   1   3
BRANCH   1  12
ATOM     12  N   UNL d   1     -38.911  14.126  20.268  0.00  0.00    -0.178 NA
ATOM     13  C   UNL d   1     -38.908  14.232  19.446  0.00  0.00     0.306 C 
ATOM     14  O   UNL d   1     -38.319  13.879  18.990  0.00  0.00    -0.263 OA
BRANCH  13  15
ATOM     15  C   UNL d   1     -39.488  14.683  19.092  0.00  0.00     0.185 C 
BRANCH  15  16
ATOM     16  O   UNL d   1     -39.358  15.000  18.342  0.00  0.00    -0.300 OA
BRANCH  16  17
ATOM     17  C   UNL d   1     -40.008  15.196  17.863  0.00  0.00     0.100 A 
ATOM     18  C   UNL d   1     -40.568  15.725  18.137  0.00  0.00     0.025 A 
ATOM     19  C   UNL d   1     -41.216  15.922  17.665  0.00  0.00     0.002 A 
ATOM     20  C   UNL d   1     -41.296  15.583  16.914  0.00  0.00     0.000 A 
ATOM     21  C   UNL d   1     -40.730  15.052  16.641  0.00  0.00     0.002 A 
ATOM     22  C   UNL d   1     -40.082  14.854  17.114  0.00  0.00     0.025 A 
ENDBRANCH  16  17
ENDBRANCH  15  16
ENDBRANCH  13  15
ENDBRANCH   1  12
TORSDOF 5
ENDMDL
