MODEL 1
REMARK VINA RESULT:      62.6      0.000      0.000
REMARK  3 active torsions:
REMARK  status: ('A' for Active; 'I' for Inactive)
REMARK    1  A    between atoms: S_15  and  C_4 
REMARK    2  A    between atoms: C_9  and  C_16 
REMARK    3  A    between atoms: C_16  and  S_15 
ROOT
ATOM      1  C   UNL d   1      58.665  49.691  50.654  0.00  0.00     0.141 A 
ATOM      2  C   UNL d   1      57.939  49.699  51.047  0.00  0.00     0.110 A 
ATOM      3  O   UNL d   1      58.516  49.688  49.843  0.00  0.00    -0.303 OA
ATOM      4  C   UNL d   1      59.369  49.688  51.085  0.00  0.00     0.137 A 
ATOM      5  N   UNL d   1      59.347  49.693  51.910  0.00  0.00    -0.218 NA
ATOM      6  C   UNL d   1      57.341  49.700  50.478  0.00  0.00     0.043 A 
ATOM      7  N   UNL d   1      57.918  49.703  51.871  0.00  0.00    -0.225 NA
ATOM      8  C   UNL d   1      57.698  49.693  49.734  0.00  0.00     0.102 A 
ATOM      9  C   UNL d   1      58.620  49.700  52.303  0.00  0.00     0.163 A 
ATOM     10  C   UNL d   1      56.520  49.706  50.542  0.00  0.00     0.004 A 
ATOM     11  C   UNL d   1      57.230  49.693  49.054  0.00  0.00     0.025 A 
ATOM     12  C   UNL d   1      58.599  49.705  53.127  0.00  0.00     0.042 C 
ATOM     13  C   UNL d   1      56.053  49.706  49.862  0.00  0.00     0.000 A 
ATOM     14  C   UNL d   1      56.409  49.700  49.118  0.00  0.00     0.002 A 
ENDROOT
BRANCH   4  15
ATOM     15  S   UNL d   1      60.094  49.681  50.693  0.00  0.00    -0.062 SA
BRANCH  15  16
ATOM     16  C   UNL d   1      60.744  49.305  51.036  0.00  0.00     0.076 C 
BRANCH  16  17
ATOM     17  C   UNL d   1      60.981  48.563  50.764  0.00  0.00     0.169 A 
ATOM     18  N   UNL d   1      60.833  47.841  51.137  0.00  0.00    -0.225 NA
ATOM     19  C   UNL d   1      61.167  47.244  50.676  0.00  0.00     0.101 A 
ATOM     20  C   UNL d   1      61.196  46.425  50.769  0.00  0.00     0.021 A 
ATOM     21  C   UNL d   1      61.523  47.596  50.019  0.00  0.00     0.101 A 
ATOM     22  C   UNL d   1      61.578  45.958  50.207  0.00  0.00     0.002 A 
ATOM     23  C   UNL d   1      61.932  46.310  49.551  0.00  0.00     0.002 A 
ATOM     24  C   UNL d   1      61.905  47.129  49.456  0.00  0.00     0.021 A 
ATOM     25  N   UNL d   1      61.408  48.411  50.074  0.00  0.00    -0.225 NA
ENDBRANCH  16  17
ENDBRANCH  15  16
ENDBRANCH   4  15
TORSDOF 3
ENDMDL
