MODEL 1
REMARK VINA RESULT:      10.5      0.000      0.000
REMARK  4 active torsions:
REMARK  status: ('A' for Active; 'I' for Inactive)
REMARK    1  A    between atoms: S_7  and  C_3 
REMARK    2  A    between atoms: C_12  and  S_7 
REMARK    3  A    between atoms: C_9  and  C_12 
REMARK    4  A    between atoms: C_11  and  C_9 
ROOT
ATOM      1  S   UNL d   1      46.030 -17.396  44.520  0.00  0.00    -0.043 SA
ENDROOT
BRANCH   1   2
ATOM      2  C   UNL d   1      46.184 -17.938  43.920  0.00  0.00     0.220 A 
ATOM      3  N   UNL d   1      46.338 -18.727  44.107  0.00  0.00    -0.149 N 
ATOM      4  C   UNL d   1      46.494 -19.282  43.511  0.00  0.00     0.303 A 
ATOM      5  N   UNL d   1      46.338 -18.973  44.893  0.00  0.00    -0.037 N 
ATOM      6  C   UNL d   1      46.493 -19.024  42.722  0.00  0.00     0.161 A 
ATOM      7  O   UNL d   1      46.647 -20.063  43.696  0.00  0.00    -0.263 OA
ATOM      8  C   UNL d   1      46.647 -19.568  42.123  0.00  0.00     0.028 C 
ATOM      9  N   UNL d   1      46.339 -18.236  42.535  0.00  0.00    -0.141 NA
ATOM     10  N   UNL d   1      46.186 -17.697  43.136  0.00  0.00    -0.121 NA
ENDBRANCH   1   2
BRANCH   1  11
ATOM     11  C   UNL d   1      46.046 -16.591  44.360  0.00  0.00     0.080 C 
BRANCH  11  12
ATOM     12  C   UNL d   1      45.450 -16.109  44.650  0.00  0.00     0.202 C 
ATOM     13  O   UNL d   1      44.756 -16.425  44.953  0.00  0.00    -0.286 OA
BRANCH  12  14
ATOM     14  C   UNL d   1      45.555 -15.282  44.634  0.00  0.00     0.040 A 
ATOM     15  C   UNL d   1      44.888 -14.789  44.627  0.00  0.00     0.004 A 
ATOM     16  C   UNL d   1      44.984 -13.969  44.612  0.00  0.00     0.011 A 
ATOM     17  C   UNL d   1      45.752 -13.644  44.604  0.00  0.00     0.058 A 
ATOM     18  C   UNL d   1      46.408 -14.136  44.611  0.00  0.00     0.011 A 
ATOM     19 CL   UNL d   1      45.848 -12.833  44.589  0.00  0.00    -0.082 Cl
ATOM     20  C   UNL d   1      46.315 -14.956  44.626  0.00  0.00     0.004 A 
ENDBRANCH  12  14
ENDBRANCH  11  12
ENDBRANCH   1  11
TORSDOF 4
ENDMDL
MODEL 2
REMARK VINA RESULT:      10.7      2.455      4.552
REMARK  4 active torsions:
REMARK  status: ('A' for Active; 'I' for Inactive)
REMARK    1  A    between atoms: S_7  and  C_3 
REMARK    2  A    between atoms: C_12  and  S_7 
REMARK    3  A    between atoms: C_9  and  C_12 
REMARK    4  A    between atoms: C_11  and  C_9 
ROOT
ATOM      1  S   UNL d   1      45.801 -16.380  44.628  0.00  0.00    -0.043 SA
ENDROOT
BRANCH   1   2
ATOM      2  C   UNL d   1      45.755 -15.570  44.483  0.00  0.00     0.220 A 
ATOM      3  N   UNL d   1      45.058 -15.161  44.646  0.00  0.00    -0.149 N 
ATOM      4  C   UNL d   1      45.001 -14.346  44.504  0.00  0.00     0.303 A 
ATOM      5  N   UNL d   1      44.407 -15.560  44.955  0.00  0.00    -0.037 N 
ATOM      6  C   UNL d   1      45.663 -13.952  44.193  0.00  0.00     0.161 A 
ATOM      7  O   UNL d   1      44.311 -13.940  44.666  0.00  0.00    -0.263 OA
ATOM      8  C   UNL d   1      45.616 -13.143  44.048  0.00  0.00     0.028 C 
ATOM      9  N   UNL d   1      46.360 -14.362  44.030  0.00  0.00    -0.141 NA
ATOM     10  N   UNL d   1      46.402 -15.169  44.176  0.00  0.00    -0.121 NA
ENDBRANCH   1   2
BRANCH   1  11
ATOM     11  C   UNL d   1      45.962 -16.899  44.013  0.00  0.00     0.080 C 
BRANCH  11  12
ATOM     12  C   UNL d   1      46.202 -17.664  44.182  0.00  0.00     0.202 C 
ATOM     13  O   UNL d   1      46.339 -17.907  44.954  0.00  0.00    -0.286 OA
BRANCH  12  14
ATOM     14  C   UNL d   1      46.308 -18.203  43.554  0.00  0.00     0.040 A 
ATOM     15  C   UNL d   1      46.220 -19.015  43.698  0.00  0.00     0.004 A 
ATOM     16  C   UNL d   1      46.323 -19.554  43.082  0.00  0.00     0.011 A 
ATOM     17  C   UNL d   1      46.516 -19.276  42.319  0.00  0.00     0.058 A 
ATOM     18  C   UNL d   1      46.602 -18.473  42.183  0.00  0.00     0.011 A 
ATOM     19 CL   UNL d   1      46.619 -19.809  41.709  0.00  0.00    -0.082 Cl
ATOM     20  C   UNL d   1      46.500 -17.931  42.797  0.00  0.00     0.004 A 
ENDBRANCH  12  14
ENDBRANCH  11  12
ENDBRANCH   1  11
TORSDOF 4
ENDMDL
MODEL 3
REMARK VINA RESULT:      13.1      0.553      1.295
REMARK  4 active torsions:
REMARK  status: ('A' for Active; 'I' for Inactive)
REMARK    1  A    between atoms: S_7  and  C_3 
REMARK    2  A    between atoms: C_12  and  S_7 
REMARK    3  A    between atoms: C_9  and  C_12 
REMARK    4  A    between atoms: C_11  and  C_9 
ROOT
ATOM      1  S   UNL d   1      46.100 -17.047  43.797  0.00  0.00    -0.043 SA
ENDROOT
BRANCH   1   2
ATOM      2  C   UNL d   1      46.236 -17.851  43.909  0.00  0.00     0.220 A 
ATOM      3  N   UNL d   1      46.332 -18.348  43.257  0.00  0.00    -0.149 N 
ATOM      4  C   UNL d   1      46.470 -19.159  43.358  0.00  0.00     0.303 A 
ATOM      5  N   UNL d   1      46.291 -18.041  42.494  0.00  0.00    -0.037 N 
ATOM      6  C   UNL d   1      46.510 -19.459  44.131  0.00  0.00     0.161 A 
ATOM      7  O   UNL d   1      46.565 -19.651  42.713  0.00  0.00    -0.263 OA
ATOM      8  C   UNL d   1      46.647 -20.264  44.241  0.00  0.00     0.028 C 
ATOM      9  N   UNL d   1      46.414 -18.963  44.782  0.00  0.00    -0.141 NA
ATOM     10  N   UNL d   1      46.278 -18.161  44.667  0.00  0.00    -0.121 NA
ENDBRANCH   1   2
BRANCH   1  11
ATOM     11  C   UNL d   1      45.941 -16.564  44.441  0.00  0.00     0.080 C 
BRANCH  11  12
ATOM     12  C   UNL d   1      45.325 -16.025  44.401  0.00  0.00     0.202 C 
ATOM     13  O   UNL d   1      44.557 -16.266  44.239  0.00  0.00    -0.286 OA
BRANCH  12  14
ATOM     14  C   UNL d   1      45.486 -15.216  44.527  0.00  0.00     0.040 A 
ATOM     15  C   UNL d   1      46.244 -14.923  44.360  0.00  0.00     0.004 A 
ATOM     16  C   UNL d   1      46.411 -14.125  44.482  0.00  0.00     0.011 A 
ATOM     17  C   UNL d   1      45.815 -13.618  44.773  0.00  0.00     0.058 A 
ATOM     18  C   UNL d   1      45.068 -13.914  44.936  0.00  0.00     0.011 A 
ATOM     19 CL   UNL d   1      45.979 -12.828  44.894  0.00  0.00    -0.082 Cl
ATOM     20  C   UNL d   1      44.897 -14.712  44.815  0.00  0.00     0.004 A 
ENDBRANCH  12  14
ENDBRANCH  11  12
ENDBRANCH   1  11
TORSDOF 4
ENDMDL
