MODEL 1
REMARK VINA RESULT:      -3.3      0.000      0.000
REMARK  3 active torsions:
REMARK  status: ('A' for Active; 'I' for Inactive)
REMARK    1  A    between atoms: C_7  and  C_3 
REMARK       I    between atoms: N_10  and  C_7 
REMARK    2  A    between atoms: C_16  and  N_10 
REMARK    3  A    between atoms: C_15  and  C_16 
ROOT
ATOM      1  C   UNL d   1      32.987  19.837 -23.092  0.00  0.00     0.063 A 
ATOM      2  C   UNL d   1      32.896  19.233 -23.653  0.00  0.00     0.033 A 
ATOM      3  C   UNL d   1      32.746  18.528 -23.243  0.00  0.00     0.158 A 
ATOM      4  C   UNL d   1      32.895  19.508 -22.341  0.00  0.00     0.099 A 
ATOM      5  O   UNL d   1      32.746  18.699 -22.435  0.00  0.00    -0.302 OA
ATOM      6  C   UNL d   1      33.144  20.646 -23.184  0.00  0.00     0.194 A 
ATOM      7  C   UNL d   1      32.958  19.986 -21.679  0.00  0.00     0.002 A 
ATOM      8  C   UNL d   1      33.112  20.786 -21.749  0.00  0.00     0.042 A 
ATOM      9  C   UNL d   1      33.205  21.117 -22.503  0.00  0.00     0.019 A 
ATOM     10  O   UNL d   1      33.238  20.979 -23.943  0.00  0.00    -0.287 OA
ATOM     11  C   UNL d   1      32.914  19.149 -24.475  0.00  0.00     0.002 C 
ATOM     12  C   UNL d   1      33.239  21.530 -21.407  0.00  0.00     0.009 C 
ATOM     13  C   UNL d   1      33.055  20.662 -20.936  0.00  0.00     0.009 C 
ENDROOT
BRANCH   3  14
ATOM     14  C   UNL d   1      32.620  17.786 -23.580  0.00  0.00     0.302 C 
ATOM     15  N   UNL d   1      31.875  17.423 -23.523  0.00  0.00    -0.205 NA
ATOM     16  O   UNL d   1      33.238  17.398 -23.978  0.00  0.00    -0.263 OA
BRANCH  15  17
ATOM     17  C   UNL d   1      31.744  16.680 -23.859  0.00  0.00     0.104 C 
BRANCH  17  18
ATOM     18  C   UNL d   1      31.000  16.332 -23.813  0.00  0.00     0.038 A 
ATOM     19  C   UNL d   1      30.433  16.499 -24.390  0.00  0.00     0.101 A 
ATOM     20  N   UNL d   1      29.694  16.150 -24.339  0.00  0.00    -0.242 NA
ATOM     21  C   UNL d   1      29.509  15.640 -23.727  0.00  0.00     0.099 A 
ATOM     22  C   UNL d   1      30.081  15.476 -23.148  0.00  0.00     0.021 A 
ATOM     23  C   UNL d   1      30.826  15.824 -23.194  0.00  0.00     0.005 A 
ENDBRANCH  17  18
ENDBRANCH  15  17
ENDBRANCH   3  14
TORSDOF 3
ENDMDL
MODEL 2
REMARK VINA RESULT:      -2.0      1.550      2.587
REMARK  3 active torsions:
REMARK  status: ('A' for Active; 'I' for Inactive)
REMARK    1  A    between atoms: C_7  and  C_3 
REMARK       I    between atoms: N_10  and  C_7 
REMARK    2  A    between atoms: C_16  and  N_10 
REMARK    3  A    between atoms: C_15  and  C_16 
ROOT
ATOM      1  C   UNL d   1      33.058  21.929 -21.831  0.00  0.00     0.063 A 
ATOM      2  C   UNL d   1      33.053  21.624 -22.603  0.00  0.00     0.033 A 
ATOM      3  C   UNL d   1      33.085  20.798 -22.548  0.00  0.00     0.158 A 
ATOM      4  C   UNL d   1      33.093  21.296 -21.304  0.00  0.00     0.099 A 
ATOM      5  O   UNL d   1      33.110  20.597 -21.748  0.00  0.00    -0.302 OA
ATOM      6  C   UNL d   1      33.034  22.711 -21.555  0.00  0.00     0.194 A 
ATOM      7  C   UNL d   1      33.105  21.441 -20.498  0.00  0.00     0.002 A 
ATOM      8  C   UNL d   1      33.083  22.204 -20.206  0.00  0.00     0.042 A 
ATOM      9  C   UNL d   1      33.047  22.840 -20.736  0.00  0.00     0.019 A 
ATOM     10  O   UNL d   1      32.998  23.351 -22.088  0.00  0.00    -0.287 OA
ATOM     11  C   UNL d   1      33.025  21.912 -23.378  0.00  0.00     0.002 C 
ATOM     12  C   UNL d   1      33.077  22.734 -19.569  0.00  0.00     0.009 C 
ATOM     13  C   UNL d   1      33.115  21.731 -19.532  0.00  0.00     0.009 C 
ENDROOT
BRANCH   3  14
ATOM     14  C   UNL d   1      33.092  20.267 -23.180  0.00  0.00     0.302 C 
ATOM     15  N   UNL d   1      32.949  19.460 -23.048  0.00  0.00    -0.205 NA
ATOM     16  O   UNL d   1      33.241  20.539 -23.951  0.00  0.00    -0.263 OA
BRANCH  15  17
ATOM     17  C   UNL d   1      32.955  18.926 -23.678  0.00  0.00     0.104 C 
BRANCH  17  18
ATOM     18  C   UNL d   1      32.738  18.141 -23.554  0.00  0.00     0.038 A 
ATOM     19  C   UNL d   1      33.200  17.660 -23.067  0.00  0.00     0.101 A 
ATOM     20  N   UNL d   1      32.979  16.881 -22.948  0.00  0.00    -0.242 NA
ATOM     21  C   UNL d   1      32.311  16.572 -23.303  0.00  0.00     0.099 A 
ATOM     22  C   UNL d   1      31.849  17.058 -23.792  0.00  0.00     0.021 A 
ATOM     23  C   UNL d   1      32.066  17.843 -23.916  0.00  0.00     0.005 A 
ENDBRANCH  17  18
ENDBRANCH  15  17
ENDBRANCH   3  14
TORSDOF 3
ENDMDL
MODEL 3
REMARK VINA RESULT:      -0.8      1.794      5.196
REMARK  3 active torsions:
REMARK  status: ('A' for Active; 'I' for Inactive)
REMARK    1  A    between atoms: C_7  and  C_3 
REMARK       I    between atoms: N_10  and  C_7 
REMARK    2  A    between atoms: C_16  and  N_10 
REMARK    3  A    between atoms: C_15  and  C_16 
ROOT
ATOM      1  C   UNL d   1      29.621  16.030 -23.420  0.00  0.00     0.063 A 
ATOM      2  C   UNL d   1      30.431  16.168 -23.306  0.00  0.00     0.033 A 
ATOM      3  C   UNL d   1      30.730  16.505 -24.002  0.00  0.00     0.158 A 
ATOM      4  C   UNL d   1      29.421  16.279 -24.180  0.00  0.00     0.099 A 
ATOM      5  O   UNL d   1      30.107  16.573 -24.540  0.00  0.00    -0.302 OA
ATOM      6  C   UNL d   1      29.049  15.705 -22.915  0.00  0.00     0.194 A 
ATOM      7  C   UNL d   1      28.648  16.205 -24.440  0.00  0.00     0.002 A 
ATOM      8  C   UNL d   1      28.069  15.888 -23.958  0.00  0.00     0.042 A 
ATOM      9  C   UNL d   1      28.270  15.637 -23.194  0.00  0.00     0.019 A 
ATOM     10  O   UNL d   1      29.250  15.453 -22.146  0.00  0.00    -0.287 OA
ATOM     11  C   UNL d   1      30.995  16.065 -22.711  0.00  0.00     0.002 C 
ATOM     12  C   UNL d   1      27.283  15.660 -23.827  0.00  0.00     0.009 C 
ATOM     13  C   UNL d   1      27.672  16.069 -24.657  0.00  0.00     0.009 C 
ENDROOT
BRANCH   3  14
ATOM     14  C   UNL d   1      31.511  16.734 -24.137  0.00  0.00     0.302 C 
ATOM     15  N   UNL d   1      31.725  17.535 -24.092  0.00  0.00    -0.205 NA
ATOM     16  O   UNL d   1      32.087  16.162 -24.317  0.00  0.00    -0.263 OA
BRANCH  15  17
ATOM     17  C   UNL d   1      32.506  17.767 -24.226  0.00  0.00     0.104 C 
BRANCH  17  18
ATOM     18  C   UNL d   1      32.751  18.525 -24.019  0.00  0.00     0.038 A 
ATOM     19  C   UNL d   1      32.777  18.745 -23.223  0.00  0.00     0.101 A 
ATOM     20  N   UNL d   1      33.021  19.500 -23.023  0.00  0.00    -0.242 NA
ATOM     21  C   UNL d   1      33.241  20.039 -23.597  0.00  0.00     0.099 A 
ATOM     22  C   UNL d   1      33.214  19.815 -24.396  0.00  0.00     0.021 A 
ATOM     23  C   UNL d   1      32.969  19.057 -24.603  0.00  0.00     0.005 A 
ENDBRANCH  17  18
ENDBRANCH  15  17
ENDBRANCH   3  14
TORSDOF 3
ENDMDL
