MODEL 1
REMARK VINA RESULT:      25.9      0.000      0.000
REMARK  4 active torsions:
REMARK  status: ('A' for Active; 'I' for Inactive)
REMARK    1  A    between atoms: N_6  and  S_1 
REMARK    2  A    between atoms: C_7  and  S_1 
REMARK    3  A    between atoms: C_13  and  N_6 
REMARK    4  A    between atoms: O_18  and  C_15 
ROOT
ATOM      1  S   UNL d   1      14.721  12.589  -0.504  0.00  0.00     0.285 S 
ATOM      2  O   UNL d   1      15.197  12.136  -0.019  0.00  0.00    -0.198 OA
ATOM      3  O   UNL d   1      14.241  11.932  -0.646  0.00  0.00    -0.198 OA
ENDROOT
BRANCH   1   4
ATOM      4  N   UNL d   1      14.237  13.043  -0.995  0.00  0.00    -0.158 NA
BRANCH   4   5
ATOM      5  C   UNL d   1      13.880  12.698  -1.660  0.00  0.00     0.095 A 
ATOM      6  C   UNL d   1      14.110  12.933  -2.416  0.00  0.00     0.040 A 
ATOM      7  C   UNL d   1      13.752  12.587  -3.069  0.00  0.00     0.089 A 
ATOM      8  N   UNL d   1      13.867  12.709  -3.883  0.00  0.00    -0.238 NA
ATOM      9  C   UNL d   1      13.172  12.015  -2.983  0.00  0.00     0.049 A 
ATOM     10  C   UNL d   1      13.356  12.210  -4.288  0.00  0.00     0.111 A 
ATOM     11  C   UNL d   1      13.281  12.146  -5.117  0.00  0.00     0.028 C 
ATOM     12  S   UNL d   1      12.924  11.779  -3.732  0.00  0.00    -0.066 SA
ATOM     13  C   UNL d   1      12.942  11.781  -2.217  0.00  0.00     0.010 A 
ATOM     14  C   UNL d   1      13.302  12.128  -1.558  0.00  0.00     0.021 A 
ENDBRANCH   4   5
ENDBRANCH   1   4
BRANCH   1  15
ATOM     15  C   UNL d   1      15.196  13.249  -0.367  0.00  0.00     0.107 A 
ATOM     16  C   UNL d   1      14.855  13.995  -0.259  0.00  0.00     0.037 A 
ATOM     17  C   UNL d   1      15.336  14.651  -0.122  0.00  0.00     0.095 A 
ATOM     18  C   UNL d   1      16.158  14.562  -0.094  0.00  0.00     0.024 A 
ATOM     19  C   UNL d   1      16.495  13.818  -0.203  0.00  0.00     0.003 A 
ATOM     20  C   UNL d   1      16.014  13.162  -0.339  0.00  0.00     0.013 A 
BRANCH  17  21
ATOM     21  O   UNL d   1      14.999  15.395  -0.014  0.00  0.00    -0.328 OA
ATOM     22  C   UNL d   1      15.332  16.056  -0.378  0.00  0.00     0.181 C 
ENDBRANCH  17  21
ENDBRANCH   1  15
TORSDOF 4
ENDMDL
MODEL 2
REMARK VINA RESULT:      26.8      1.115      1.612
REMARK  4 active torsions:
REMARK  status: ('A' for Active; 'I' for Inactive)
REMARK    1  A    between atoms: N_6  and  S_1 
REMARK    2  A    between atoms: C_7  and  S_1 
REMARK    3  A    between atoms: C_13  and  N_6 
REMARK    4  A    between atoms: O_18  and  C_15 
ROOT
ATOM      1  S   UNL d   1      13.627  12.058  -1.565  0.00  0.00     0.285 S 
ATOM      2  O   UNL d   1      13.169  11.834  -0.926  0.00  0.00    -0.198 OA
ATOM      3  O   UNL d   1      13.042  11.785  -2.079  0.00  0.00    -0.198 OA
ENDROOT
BRANCH   1   4
ATOM      4  N   UNL d   1      14.086  12.284  -2.212  0.00  0.00    -0.158 NA
BRANCH   4   5
ATOM      5  C   UNL d   1      13.751  12.306  -2.971  0.00  0.00     0.095 A 
ATOM      6  C   UNL d   1      14.023  12.855  -3.523  0.00  0.00     0.040 A 
ATOM      7  C   UNL d   1      13.687  12.871  -4.272  0.00  0.00     0.089 A 
ATOM      8  N   UNL d   1      13.844  13.352  -4.931  0.00  0.00    -0.238 NA
ATOM      9  C   UNL d   1      13.089  12.352  -4.480  0.00  0.00     0.049 A 
ATOM     10  C   UNL d   1      13.340  13.125  -5.537  0.00  0.00     0.111 A 
ATOM     11  C   UNL d   1      13.303  13.457  -6.301  0.00  0.00     0.028 C 
ATOM     12  S   UNL d   1      12.870  12.504  -5.259  0.00  0.00    -0.066 SA
ATOM     13  C   UNL d   1      12.816  11.799  -3.920  0.00  0.00     0.010 A 
ATOM     14  C   UNL d   1      13.153  11.781  -3.165  0.00  0.00     0.021 A 
ENDBRANCH   4   5
ENDBRANCH   1   4
BRANCH   1  15
ATOM     15  C   UNL d   1      14.215  12.334  -1.056  0.00  0.00     0.107 A 
ATOM     16  C   UNL d   1      14.321  13.145  -0.938  0.00  0.00     0.037 A 
ATOM     17  C   UNL d   1      14.911  13.413  -0.428  0.00  0.00     0.095 A 
ATOM     18  C   UNL d   1      15.396  12.869  -0.036  0.00  0.00     0.024 A 
ATOM     19  C   UNL d   1      15.289  12.061  -0.156  0.00  0.00     0.003 A 
ATOM     20  C   UNL d   1      14.698  11.793  -0.666  0.00  0.00     0.013 A 
BRANCH  17  21
ATOM     21  O   UNL d   1      15.019  14.220  -0.309  0.00  0.00    -0.328 OA
ATOM     22  C   UNL d   1      15.752  14.509  -0.063  0.00  0.00     0.181 C 
ENDBRANCH  17  21
ENDBRANCH   1  15
TORSDOF 4
ENDMDL
