MODEL 1
REMARK VINA RESULT:      50.9      0.000      0.000
REMARK  4 active torsions:
REMARK  status: ('A' for Active; 'I' for Inactive)
REMARK    1  A    between atoms: C_3  and  S_1 
REMARK       I    between atoms: C_2  and  N_6 
REMARK    2  A    between atoms: C_11  and  C_2 
REMARK    3  A    between atoms: N_6  and  C_12 
REMARK    4  A    between atoms: C_15  and  C_11 
ROOT
ATOM      1  C   UNL d   1     -51.133  26.259  33.441  0.00  0.00     0.107 A 
ATOM      2  C   UNL d   1     -51.081  27.072  33.335  0.00  0.00     0.015 A 
ATOM      3  C   UNL d   1     -50.455  25.821  33.614  0.00  0.00     0.015 A 
ATOM      4  C   UNL d   1     -49.676  27.017  33.575  0.00  0.00     0.085 A 
ATOM      5  C   UNL d   1     -49.727  26.200  33.681  0.00  0.00     0.020 A 
ATOM      6  C   UNL d   1     -50.352  27.451  33.403  0.00  0.00     0.020 A 
ENDROOT
BRANCH   4   7
ATOM      7  N   UNL d   1     -48.947  27.397  33.643  0.00  0.00    -0.208 NA
ATOM      8  C   UNL d   1     -48.749  27.787  34.342  0.00  0.00     0.279 C 
ATOM      9  O   UNL d   1     -49.279  27.798  34.972  0.00  0.00    -0.265 OA
BRANCH   8  10
ATOM     10  C   UNL d   1     -48.014  28.170  34.410  0.00  0.00     0.062 C 
BRANCH  10  11
ATOM     11  C   UNL d   1     -47.928  28.825  34.904  0.00  0.00     0.005 A 
ATOM     12  C   UNL d   1     -47.708  28.709  35.690  0.00  0.00     0.000 A 
ATOM     13  C   UNL d   1     -47.621  29.366  36.187  0.00  0.00     0.000 A 
ATOM     14  C   UNL d   1     -47.754  30.131  35.897  0.00  0.00     0.000 A 
ATOM     15  C   UNL d   1     -47.974  30.238  35.110  0.00  0.00     0.000 A 
ATOM     16  C   UNL d   1     -48.061  29.590  34.613  0.00  0.00     0.000 A 
ENDBRANCH  10  11
ENDBRANCH   8  10
ENDBRANCH   4   7
BRANCH   1  17
ATOM     17  S   UNL d   1     -51.863  25.879  33.373  0.00  0.00     0.302 S 
ATOM     18  O   UNL d   1     -52.242  26.613  33.346  0.00  0.00    -0.197 OA
ATOM     19  O   UNL d   1     -51.484  25.147  33.400  0.00  0.00    -0.197 OA
ATOM     20  N   UNL d   1     -52.593  25.499  33.306  0.00  0.00    -0.043 N 
ENDBRANCH   1  17
TORSDOF 4
ENDMDL
MODEL 2
REMARK VINA RESULT:      52.8      2.195      5.063
REMARK  4 active torsions:
REMARK  status: ('A' for Active; 'I' for Inactive)
REMARK    1  A    between atoms: C_3  and  S_1 
REMARK       I    between atoms: C_2  and  N_6 
REMARK    2  A    between atoms: C_11  and  C_2 
REMARK    3  A    between atoms: N_6  and  C_12 
REMARK    4  A    between atoms: C_15  and  C_11 
ROOT
ATOM      1  C   UNL d   1     -49.576  27.299  34.468  0.00  0.00     0.107 A 
ATOM      2  C   UNL d   1     -50.224  26.961  34.843  0.00  0.00     0.015 A 
ATOM      3  C   UNL d   1     -49.325  27.008  33.737  0.00  0.00     0.015 A 
ATOM      4  C   UNL d   1     -50.376  26.041  33.764  0.00  0.00     0.085 A 
ATOM      5  C   UNL d   1     -49.725  26.379  33.385  0.00  0.00     0.020 A 
ATOM      6  C   UNL d   1     -50.624  26.332  34.491  0.00  0.00     0.020 A 
ENDROOT
BRANCH   4   7
ATOM      7  N   UNL d   1     -50.776  25.411  33.412  0.00  0.00    -0.208 NA
ATOM      8  C   UNL d   1     -50.829  24.687  33.803  0.00  0.00     0.279 C 
ATOM      9  O   UNL d   1     -50.483  24.592  34.544  0.00  0.00    -0.265 OA
BRANCH   8  10
ATOM     10  C   UNL d   1     -51.232  24.052  33.448  0.00  0.00     0.062 C 
BRANCH  10  11
ATOM     11  C   UNL d   1     -52.054  24.002  33.494  0.00  0.00     0.005 A 
ATOM     12  C   UNL d   1     -52.507  24.668  33.319  0.00  0.00     0.000 A 
ATOM     13  C   UNL d   1     -53.333  24.619  33.364  0.00  0.00     0.000 A 
ATOM     14  C   UNL d   1     -53.698  23.908  33.582  0.00  0.00     0.000 A 
ATOM     15  C   UNL d   1     -53.238  23.247  33.755  0.00  0.00     0.000 A 
ATOM     16  C   UNL d   1     -52.420  23.290  33.712  0.00  0.00     0.000 A 
ENDBRANCH  10  11
ENDBRANCH   8  10
ENDBRANCH   4   7
BRANCH   1  17
ATOM     17  S   UNL d   1     -49.176  27.929  34.820  0.00  0.00     0.302 S 
ATOM     18  O   UNL d   1     -49.358  28.407  34.171  0.00  0.00    -0.197 OA
ATOM     19  O   UNL d   1     -48.994  27.451  35.467  0.00  0.00    -0.197 OA
ATOM     20  N   UNL d   1     -48.775  28.559  35.172  0.00  0.00    -0.043 N 
ENDBRANCH   1  17
TORSDOF 4
ENDMDL
