MODEL 1
REMARK VINA RESULT:      76.8      0.000      0.000
REMARK  6 active torsions:
REMARK  status: ('A' for Active; 'I' for Inactive)
REMARK    1  A    between atoms: C_7  and  C_1 
REMARK    2  A    between atoms: C_9  and  N_2 
REMARK    3  A    between atoms: C_18  and  C_7 
REMARK    4  A    between atoms: C_8  and  C_9 
REMARK       I    between atoms: N_14  and  C_8 
REMARK    5  A    between atoms: C_16  and  N_14 
REMARK    6  A    between atoms: C_29  and  C_23 
ROOT
ATOM      1  C   UNL d   1      13.822  13.161  -1.830  0.00  0.00     0.095 A 
ATOM      2  N   UNL d   1      13.498  14.157  -2.830  0.00  0.00    -0.300 N 
ATOM      3  C   UNL d   1      13.767  12.569  -2.403  0.00  0.00     0.202 A 
ATOM      4  C   UNL d   1      13.688  13.962  -2.039  0.00  0.00     0.087 A 
ATOM      5  C   UNL d   1      13.578  12.764  -3.194  0.00  0.00     0.055 A 
ATOM      6  C   UNL d   1      13.443  13.566  -3.403  0.00  0.00     0.067 A 
ATOM      7  C   UNL d   1      13.256  13.763  -4.181  0.00  0.00     0.018 A 
ATOM      8  C   UNL d   1      13.523  12.172  -3.766  0.00  0.00     0.005 A 
ATOM      9  O   UNL d   1      13.900  11.779  -2.197  0.00  0.00    -0.286 OA
ATOM     10  C   UNL d   1      13.336  12.371  -4.544  0.00  0.00     0.000 A 
ATOM     11  C   UNL d   1      13.201  13.173  -4.753  0.00  0.00     0.002 A 
ENDROOT
BRANCH   2  12
ATOM     12  C   UNL d   1      13.365  14.946  -3.036  0.00  0.00     0.144 C 
BRANCH  12  13
ATOM     13  C   UNL d   1      13.996  15.423  -3.272  0.00  0.00     0.297 C 
ATOM     14  N   UNL d   1      13.995  15.770  -4.023  0.00  0.00    -0.207 NA
ATOM     15  O   UNL d   1      14.627  15.554  -2.758  0.00  0.00    -0.264 OA
BRANCH  14  16
ATOM     16  C   UNL d   1      14.625  16.246  -4.259  0.00  0.00     0.086 A 
ATOM     17  C   UNL d   1      14.480  16.997  -4.568  0.00  0.00     0.031 A 
ATOM     18  C   UNL d   1      15.099  17.478  -4.805  0.00  0.00     0.059 A 
ATOM     19 CL   UNL d   1      14.949  18.230  -5.114  0.00  0.00    -0.082 Cl
ATOM     20  C   UNL d   1      15.887  17.200  -4.730  0.00  0.00     0.011 A 
ATOM     21  C   UNL d   1      16.032  16.449  -4.421  0.00  0.00     0.002 A 
ATOM     22  C   UNL d   1      16.513  17.678  -4.966  0.00  0.00     0.001 C 
ATOM     23  C   UNL d   1      15.402  15.972  -4.185  0.00  0.00     0.019 A 
ENDBRANCH  14  16
ENDBRANCH  12  13
ENDBRANCH   2  12
BRANCH   1  24
ATOM     24  C   UNL d   1      14.010  12.978  -1.043  0.00  0.00     0.200 C 
ATOM     25  O   UNL d   1      13.437  12.585  -0.570  0.00  0.00    -0.286 OA
BRANCH  24  26
ATOM     26  C   UNL d   1      14.744  13.175  -0.724  0.00  0.00     0.039 A 
ATOM     27  C   UNL d   1      14.898  13.963  -0.522  0.00  0.00     0.003 A 
ATOM     28  C   UNL d   1      15.632  14.160  -0.202  0.00  0.00     0.000 A 
ATOM     29  C   UNL d   1      16.202  13.575  -0.089  0.00  0.00     0.000 A 
ATOM     30  C   UNL d   1      16.038  12.791  -0.295  0.00  0.00     0.000 A 
ATOM     31  C   UNL d   1      15.303  12.593  -0.615  0.00  0.00     0.003 A 
ENDBRANCH  24  26
ENDBRANCH   1  24
BRANCH  10  32
ATOM     32  C   UNL d   1      13.281  11.779  -5.118  0.00  0.00     0.000 C 
ATOM     33  C   UNL d   1      13.595  11.905  -5.874  0.00  0.00     0.000 C 
ENDBRANCH  10  32
TORSDOF 6
ENDMDL
