MODEL 1
REMARK VINA RESULT:      22.8      0.000      0.000
REMARK  1 active torsions:
REMARK  status: ('A' for Active; 'I' for Inactive)
REMARK    1  A    between atoms: C_7  and  C_4 
ROOT
ATOM      1  N   UNL d   1      59.312  49.681  50.185  0.00  0.00    -0.211 NA
ATOM      2  C   UNL d   1      60.123  49.681  50.381  0.00  0.00     0.140 A 
ATOM      3  C   UNL d   1      60.350  49.678  51.173  0.00  0.00     0.051 A 
ATOM      4  C   UNL d   1      58.743  49.678  50.793  0.00  0.00     0.183 A 
ATOM      5  C   UNL d   1      59.781  49.675  51.776  0.00  0.00     0.104 A 
ATOM      6  O   UNL d   1      58.979  49.675  51.582  0.00  0.00    -0.289 OA
ATOM      7  S   UNL d   1      60.693  49.684  49.785  0.00  0.00    -0.057 SA
ATOM      8  C   UNL d   1      61.161  49.678  51.376  0.00  0.00     0.004 A 
ATOM      9  C   UNL d   1      60.010  49.672  52.559  0.00  0.00     0.025 A 
ATOM     10  C   UNL d   1      61.386  49.675  52.171  0.00  0.00     0.000 A 
ATOM     11  C   UNL d   1      60.812  49.672  52.759  0.00  0.00     0.002 A 
ENDROOT
BRANCH   4  12
ATOM     12  C   UNL d   1      57.946  49.679  50.596  0.00  0.00     0.041 A 
ATOM     13  C   UNL d   1      57.713  49.680  49.810  0.00  0.00     0.004 A 
ATOM     14  C   UNL d   1      56.912  49.680  49.622  0.00  0.00     0.000 A 
ATOM     15  C   UNL d   1      56.678  49.681  48.829  0.00  0.00     0.000 C 
ATOM     16  C   UNL d   1      56.341  49.679  50.218  0.00  0.00     0.000 A 
ATOM     17  C   UNL d   1      56.581  49.678  51.009  0.00  0.00     0.000 A 
ATOM     18  C   UNL d   1      57.384  49.677  51.200  0.00  0.00     0.004 A 
ENDBRANCH   4  12
TORSDOF 1
ENDMDL
MODEL 2
REMARK VINA RESULT:      22.8      1.230      3.927
REMARK  1 active torsions:
REMARK  status: ('A' for Active; 'I' for Inactive)
REMARK    1  A    between atoms: C_7  and  C_4 
ROOT
ATOM      1  N   UNL d   1      58.351  49.575  51.216  0.00  0.00    -0.211 NA
ATOM      2  C   UNL d   1      57.522  49.566  51.126  0.00  0.00     0.140 A 
ATOM      3  C   UNL d   1      57.194  49.610  50.370  0.00  0.00     0.051 A 
ATOM      4  C   UNL d   1      58.837  49.630  50.541  0.00  0.00     0.183 A 
ATOM      5  C   UNL d   1      57.681  49.664  49.701  0.00  0.00     0.104 A 
ATOM      6  O   UNL d   1      58.501  49.673  49.791  0.00  0.00    -0.289 OA
ATOM      7  S   UNL d   1      57.033  49.512  51.788  0.00  0.00    -0.057 SA
ATOM      8  C   UNL d   1      56.364  49.601  50.273  0.00  0.00     0.004 A 
ATOM      9  C   UNL d   1      57.353  49.708  48.956  0.00  0.00     0.025 A 
ATOM     10  C   UNL d   1      56.038  49.645  49.515  0.00  0.00     0.000 A 
ATOM     11  C   UNL d   1      56.532  49.699  48.860  0.00  0.00     0.002 A 
ENDROOT
BRANCH   4  12
ATOM     12  C   UNL d   1      59.653  49.639  50.635  0.00  0.00     0.041 A 
ATOM     13  C   UNL d   1      59.984  49.669  51.384  0.00  0.00     0.004 A 
ATOM     14  C   UNL d   1      60.803  49.677  51.467  0.00  0.00     0.000 A 
ATOM     15  C   UNL d   1      61.136  49.707  52.224  0.00  0.00     0.000 C 
ATOM     16  C   UNL d   1      61.292  49.656  50.804  0.00  0.00     0.000 A 
ATOM     17  C   UNL d   1      60.954  49.626  50.051  0.00  0.00     0.000 A 
ATOM     18  C   UNL d   1      60.133  49.617  49.965  0.00  0.00     0.004 A 
ENDBRANCH   4  12
TORSDOF 1
ENDMDL
