MODEL 1
REMARK VINA RESULT:      33.1      0.000      0.000
REMARK  4 active torsions:
REMARK  status: ('A' for Active; 'I' for Inactive)
REMARK    1  A    between atoms: N_5  and  C_1 
REMARK    2  A    between atoms: C_9  and  C_4 
REMARK    3  A    between atoms: C_8  and  N_5 
REMARK    4  A    between atoms: O_12  and  C_9 
ROOT
ATOM      1  N   UNL d   1     -57.633 -98.989 -44.008  0.00  0.00    -0.222 NA
ENDROOT
BRANCH   1   2
ATOM      2  C   UNL d   1     -56.881 -99.110 -44.349  0.00  0.00     0.186 A 
ATOM      3  O   UNL d   1     -56.602 -98.781 -45.046  0.00  0.00    -0.255 OA
ATOM      4  C   UNL d   1     -55.848 -99.027 -45.197  0.00  0.00     0.301 A 
ATOM      5  O   UNL d   1     -55.377 -98.809 -45.860  0.00  0.00    -0.259 OA
ATOM      6  C   UNL d   1     -55.627 -99.531 -44.581  0.00  0.00     0.067 A 
ATOM      7  C   UNL d   1     -56.267 -99.581 -44.056  0.00  0.00     0.046 A 
ATOM      8  C   UNL d   1     -54.936 -99.950 -44.423  0.00  0.00     0.005 A 
ATOM      9  C   UNL d   1     -56.208-100.051 -43.379  0.00  0.00     0.004 A 
ATOM     10  C   UNL d   1     -55.514-100.469 -43.225  0.00  0.00     0.000 A 
ATOM     11  C   UNL d   1     -54.875-100.418 -43.750  0.00  0.00     0.000 A 
ENDBRANCH   1   2
BRANCH   1  12
ATOM     12  C   UNL d   1     -58.338 -98.912 -44.480  0.00  0.00     0.089 A 
ATOM     13  C   UNL d   1     -59.044 -98.865 -44.149  0.00  0.00     0.081 A 
ATOM     14  C   UNL d   1     -59.718 -98.791 -44.615  0.00  0.00     0.007 A 
ATOM     15  C   UNL d   1     -59.635 -98.768 -45.446  0.00  0.00     0.000 A 
ATOM     16  C   UNL d   1     -58.885 -98.819 -45.777  0.00  0.00     0.002 A 
ATOM     17  C   UNL d   1     -58.226 -98.892 -45.302  0.00  0.00     0.019 A 
BRANCH  13  18
ATOM     18  C   UNL d   1     -59.080 -98.892 -43.324  0.00  0.00     0.297 C 
ATOM     19  O   UNL d   1     -58.402 -98.781 -42.879  0.00  0.00    -0.259 OA
BRANCH  18  20
ATOM     20  O   UNL d   1     -59.806 -99.032 -42.956  0.00  0.00    -0.296 OA
ATOM     21  C   UNL d   1     -59.845 -99.000 -42.123  0.00  0.00     0.185 C 
ENDBRANCH  18  20
ENDBRANCH  13  18
ENDBRANCH   1  12
TORSDOF 4
ENDMDL
MODEL 2
REMARK VINA RESULT:      33.9      1.224      3.583
REMARK  4 active torsions:
REMARK  status: ('A' for Active; 'I' for Inactive)
REMARK    1  A    between atoms: N_5  and  C_1 
REMARK    2  A    between atoms: C_9  and  C_4 
REMARK    3  A    between atoms: C_8  and  N_5 
REMARK    4  A    between atoms: O_12  and  C_9 
ROOT
ATOM      1  N   UNL d   1     -56.705 -98.963 -44.119  0.00  0.00    -0.222 NA
ENDROOT
BRANCH   1   2
ATOM      2  C   UNL d   1     -57.498 -98.902 -44.371  0.00  0.00     0.186 A 
ATOM      3  O   UNL d   1     -57.764 -98.867 -45.146  0.00  0.00    -0.255 OA
ATOM      4  C   UNL d   1     -58.568 -98.810 -45.171  0.00  0.00     0.301 A 
ATOM      5  O   UNL d   1     -59.042 -98.762 -45.866  0.00  0.00    -0.259 OA
ATOM      6  C   UNL d   1     -58.837 -98.809 -44.391  0.00  0.00     0.067 A 
ATOM      7  C   UNL d   1     -58.175 -98.865 -43.896  0.00  0.00     0.046 A 
ATOM      8  C   UNL d   1     -59.591 -98.763 -44.061  0.00  0.00     0.005 A 
ATOM      9  C   UNL d   1     -58.273 -98.876 -43.076  0.00  0.00     0.004 A 
ATOM     10  C   UNL d   1     -59.029 -98.831 -42.749  0.00  0.00     0.000 A 
ATOM     11  C   UNL d   1     -59.691 -98.774 -43.245  0.00  0.00     0.000 A 
ENDBRANCH   1   2
BRANCH   1  12
ATOM     12  C   UNL d   1     -56.056 -99.013 -44.669  0.00  0.00     0.089 A 
ATOM     13  C   UNL d   1     -55.359 -99.287 -44.449  0.00  0.00     0.081 A 
ATOM     14  C   UNL d   1     -54.740 -99.331 -44.989  0.00  0.00     0.007 A 
ATOM     15  C   UNL d   1     -54.870 -99.079 -45.775  0.00  0.00     0.000 A 
ATOM     16  C   UNL d   1     -55.610 -98.793 -45.989  0.00  0.00     0.002 A 
ATOM     17  C   UNL d   1     -56.214 -98.756 -45.443  0.00  0.00     0.019 A 
BRANCH  13  18
ATOM     18  C   UNL d   1     -55.275 -99.526 -43.663  0.00  0.00     0.297 C 
ATOM     19  O   UNL d   1     -55.082 -98.978 -43.086  0.00  0.00    -0.259 OA
BRANCH  18  20
ATOM     20  O   UNL d   1     -55.386-100.320 -43.467  0.00  0.00    -0.296 OA
ATOM     21  C   UNL d   1     -54.716-100.794 -43.318  0.00  0.00     0.185 C 
ENDBRANCH  18  20
ENDBRANCH  13  18
ENDBRANCH   1  12
TORSDOF 4
ENDMDL
