MODEL 1
REMARK VINA RESULT:      64.7      0.000      0.000
REMARK  4 active torsions:
REMARK  status: ('A' for Active; 'I' for Inactive)
REMARK    1  A    between atoms: C_7  and  C_1 
REMARK    2  A    between atoms: C_8  and  C_2 
REMARK    3  A    between atoms: C_10  and  C_4 
REMARK    4  A    between atoms: O_13  and  C_7 
ROOT
ATOM      1  C   UNL d   1      59.359  49.309  51.693  0.00  0.00     0.086 A 
ATOM      2  C   UNL d   1      60.632  49.318  52.323  0.00  0.00     0.064 A 
ATOM      3  C   UNL d   1      60.274  49.565  53.042  0.00  0.00     0.205 A 
ATOM      4  C   UNL d   1      60.163  49.195  51.660  0.00  0.00     0.012 A 
ATOM      5  C   UNL d   1      59.002  49.556  52.413  0.00  0.00     0.107 A 
ATOM      6  O   UNL d   1      59.459  49.681  53.077  0.00  0.00    -0.288 OA
ATOM      7  N   UNL d   1      60.737  49.700  53.743  0.00  0.00    -0.121 N 
ATOM      8  C   UNL d   1      58.148  49.681  52.463  0.00  0.00     0.027 C 
ENDROOT
BRANCH   4   9
ATOM      9  C   UNL d   1      60.507  48.958  50.967  0.00  0.00     0.000 A 
ATOM     10  C   UNL d   1      60.744  48.183  50.870  0.00  0.00     0.000 A 
ATOM     11  C   UNL d   1      61.091  47.943  50.172  0.00  0.00     0.000 A 
ATOM     12  C   UNL d   1      61.207  48.475  49.559  0.00  0.00     0.000 A 
ATOM     13  C   UNL d   1      60.966  49.261  49.659  0.00  0.00     0.000 A 
ATOM     14  C   UNL d   1      60.620  49.501  50.356  0.00  0.00     0.000 A 
ENDBRANCH   4   9
BRANCH   2  15
ATOM     15  C   UNL d   1      61.454  49.204  52.299  0.00  0.00     0.126 C 
ATOM     16  N   UNL d   1      61.896  49.221  53.002  0.00  0.00    -0.146 N 
ENDBRANCH   2  15
BRANCH   1  17
ATOM     17  C   UNL d   1      58.866  49.186  51.019  0.00  0.00     0.298 C 
ATOM     18  O   UNL d   1      59.004  49.605  50.328  0.00  0.00    -0.259 OA
BRANCH  17  19
ATOM     19  O   UNL d   1      58.248  48.640  51.070  0.00  0.00    -0.296 OA
ATOM     20  C   UNL d   1      57.742  48.507  50.421  0.00  0.00     0.185 C 
ENDBRANCH  17  19
ENDBRANCH   1  17
TORSDOF 4
ENDMDL
MODEL 2
REMARK VINA RESULT:      64.9      1.699      2.501
REMARK  4 active torsions:
REMARK  status: ('A' for Active; 'I' for Inactive)
REMARK    1  A    between atoms: C_7  and  C_1 
REMARK    2  A    between atoms: C_8  and  C_2 
REMARK    3  A    between atoms: C_10  and  C_4 
REMARK    4  A    between atoms: O_13  and  C_7 
ROOT
ATOM      1  C   UNL d   1      60.223  49.294  51.692  0.00  0.00     0.086 A 
ATOM      2  C   UNL d   1      59.275  49.286  50.635  0.00  0.00     0.064 A 
ATOM      3  C   UNL d   1      58.681  49.554  51.165  0.00  0.00     0.205 A 
ATOM      4  C   UNL d   1      60.038  49.161  50.912  0.00  0.00     0.012 A 
ATOM      5  C   UNL d   1      59.629  49.562  52.222  0.00  0.00     0.107 A 
ATOM      6  O   UNL d   1      58.868  49.689  51.957  0.00  0.00    -0.288 OA
ATOM      7  N   UNL d   1      57.883  49.691  50.904  0.00  0.00    -0.121 N 
ATOM      8  C   UNL d   1      59.811  49.707  53.054  0.00  0.00     0.027 C 
ENDROOT
BRANCH   4   9
ATOM      9  C   UNL d   1      60.610  48.903  50.400  0.00  0.00     0.000 A 
ATOM     10  C   UNL d   1      60.949  49.420  49.867  0.00  0.00     0.000 A 
ATOM     11  C   UNL d   1      61.525  49.160  49.353  0.00  0.00     0.000 A 
ATOM     12  C   UNL d   1      61.772  48.379  49.362  0.00  0.00     0.000 A 
ATOM     13  C   UNL d   1      61.428  47.855  49.904  0.00  0.00     0.000 A 
ATOM     14  C   UNL d   1      60.852  48.115  50.418  0.00  0.00     0.000 A 
ENDBRANCH   4   9
BRANCH   2  15
ATOM     15  C   UNL d   1      59.076  49.153  49.839  0.00  0.00     0.126 C 
ATOM     16  N   UNL d   1      58.608  49.705  49.431  0.00  0.00    -0.146 N 
ENDBRANCH   2  15
BRANCH   1  17
ATOM     17  C   UNL d   1      61.004  49.169  51.989  0.00  0.00     0.298 C 
ATOM     18  O   UNL d   1      61.598  49.705  51.816  0.00  0.00    -0.259 OA
BRANCH  17  19
ATOM     19  O   UNL d   1      61.152  48.502  52.453  0.00  0.00    -0.296 OA
ATOM     20  C   UNL d   1      61.427  48.580  53.236  0.00  0.00     0.185 C 
ENDBRANCH  17  19
ENDBRANCH   1  17
TORSDOF 4
ENDMDL
MODEL 3
REMARK VINA RESULT:      65.4      1.015      2.519
REMARK  4 active torsions:
REMARK  status: ('A' for Active; 'I' for Inactive)
REMARK    1  A    between atoms: C_7  and  C_1 
REMARK    2  A    between atoms: C_8  and  C_2 
REMARK    3  A    between atoms: C_10  and  C_4 
REMARK    4  A    between atoms: O_13  and  C_7 
ROOT
ATOM      1  C   UNL d   1      60.200  49.346  51.018  0.00  0.00     0.086 A 
ATOM      2  C   UNL d   1      59.443  49.409  52.218  0.00  0.00     0.064 A 
ATOM      3  C   UNL d   1      60.142  49.582  52.650  0.00  0.00     0.205 A 
ATOM      4  C   UNL d   1      59.488  49.294  51.406  0.00  0.00     0.012 A 
ATOM      5  C   UNL d   1      60.899  49.518  51.451  0.00  0.00     0.107 A 
ATOM      6  O   UNL d   1      60.866  49.634  52.258  0.00  0.00    -0.288 OA
ATOM      7  N   UNL d   1      60.124  49.705  53.492  0.00  0.00    -0.121 N 
ATOM      8  C   UNL d   1      61.664  49.576  51.052  0.00  0.00     0.027 C 
ENDROOT
BRANCH   4   9
ATOM      9  C   UNL d   1      58.813  49.128  50.990  0.00  0.00     0.000 A 
ATOM     10  C   UNL d   1      58.250  49.706  50.872  0.00  0.00     0.000 A 
ATOM     11  C   UNL d   1      57.571  49.539  50.453  0.00  0.00     0.000 A 
ATOM     12  C   UNL d   1      57.445  48.791  50.144  0.00  0.00     0.000 A 
ATOM     13  C   UNL d   1      58.017  48.204  50.264  0.00  0.00     0.000 A 
ATOM     14  C   UNL d   1      58.696  48.372  50.683  0.00  0.00     0.000 A 
ENDBRANCH   4   9
BRANCH   2  15
ATOM     15  C   UNL d   1      58.720  49.359  52.624  0.00  0.00     0.126 C 
ATOM     16  N   UNL d   1      58.712  49.303  53.452  0.00  0.00    -0.146 N 
ENDBRANCH   2  15
BRANCH   1  17
ATOM     17  C   UNL d   1      60.259  49.230  50.184  0.00  0.00     0.298 C 
ATOM     18  O   UNL d   1      59.630  49.426  49.697  0.00  0.00    -0.259 OA
BRANCH  17  19
ATOM     19  O   UNL d   1      60.958  48.918  49.872  0.00  0.00    -0.296 OA
ATOM     20  C   UNL d   1      61.351  49.298  49.243  0.00  0.00     0.185 C 
ENDBRANCH  17  19
ENDBRANCH   1  17
TORSDOF 4
ENDMDL
