MODEL 1
REMARK VINA RESULT:     100.9      0.000      0.000
REMARK  5 active torsions:
REMARK  status: ('A' for Active; 'I' for Inactive)
REMARK    1  A    between atoms: N_6  and  S_1 
REMARK    2  A    between atoms: C_11  and  S_1 
REMARK    3  A    between atoms: C_2  and  N_8 
REMARK    4  A    between atoms: C_10  and  C_3 
REMARK       I    between atoms: N_8  and  C_9 
REMARK    5  A    between atoms: C_9  and  C_17 
REMARK       I    between atoms: N_26  and  C_10 
ROOT
ATOM      1  N   UNL d   1      43.142 -15.923  37.020  0.00  0.00    -0.201 NA
ATOM      2  C   UNL d   1      42.479 -15.469  36.793  0.00  0.00     0.280 C 
ATOM      3  O   UNL d   1      42.575 -14.661  36.624  0.00  0.00    -0.265 OA
ENDROOT
BRANCH   2   4
ATOM      4  C   UNL d   1      41.736 -15.831  36.739  0.00  0.00     0.058 A 
ATOM      5  C   UNL d   1      41.077 -15.408  37.000  0.00  0.00     0.005 A 
ATOM      6  C   UNL d   1      40.327 -15.760  36.951  0.00  0.00     0.013 A 
ATOM      7  C   UNL d   1      40.248 -16.525  36.644  0.00  0.00     0.104 A 
ATOM      8  C   UNL d   1      40.923 -16.935  36.386  0.00  0.00     0.013 A 
ATOM      9  C   UNL d   1      41.668 -16.577  36.438  0.00  0.00     0.005 A 
BRANCH   7  10
ATOM     10  S   UNL d   1      39.506 -16.875  36.595  0.00  0.00     0.271 S 
ATOM     11  O   UNL d   1      39.168 -16.179  36.331  0.00  0.00    -0.200 OA
ATOM     12  O   UNL d   1      39.859 -17.581  36.864  0.00  0.00    -0.200 OA
BRANCH  10  13
ATOM     13  N   UNL d   1      38.774 -17.223  36.547  0.00  0.00    -0.231 N 
ATOM     14  C   UNL d   1      38.697 -18.038  36.506  0.00  0.00     0.075 A 
ATOM     15  C   UNL d   1      39.372 -18.515  36.514  0.00  0.00     0.020 C 
ATOM     16  C   UNL d   1      37.955 -18.382  36.458  0.00  0.00     0.018 A 
ATOM     17  C   UNL d   1      37.279 -17.904  36.451  0.00  0.00     0.003 A 
ATOM     18  C   UNL d   1      37.354 -17.092  36.491  0.00  0.00     0.020 A 
ATOM     19  C   UNL d   1      38.097 -16.763  36.538  0.00  0.00     0.092 A 
ENDBRANCH  10  13
ENDBRANCH   7  10
ENDBRANCH   2   4
BRANCH   1  20
ATOM     20  C   UNL d   1      43.884 -15.557  37.073  0.00  0.00     0.119 A 
ATOM     21  C   UNL d   1      44.595 -15.953  37.215  0.00  0.00     0.082 A 
ATOM     22  C   UNL d   1      45.203 -15.400  37.227  0.00  0.00     0.016 A 
ATOM     23  C   UNL d   1      46.011 -15.476  37.343  0.00  0.00     0.020 A 
ATOM     24  C   UNL d   1      44.872 -14.658  37.092  0.00  0.00     0.049 A 
ATOM     25  C   UNL d   1      46.494 -14.805  37.324  0.00  0.00     0.080 A 
ATOM     26  N   UNL d   1      46.169 -14.057  37.189  0.00  0.00    -0.301 N 
ATOM     27  C   UNL d   1      45.355 -13.992  37.073  0.00  0.00     0.087 A 
ATOM     28  C   UNL d   1      46.646 -13.397  37.170  0.00  0.00     0.100 C 
ATOM     29  S   UNL d   1      44.052 -14.759  36.996  0.00  0.00    -0.066 SA
BRANCH  21  30
ATOM     30  C   UNL d   1      44.689 -16.762  37.328  0.00  0.00     0.281 C 
ATOM     31  O   UNL d   1      44.706 -17.248  36.686  0.00  0.00    -0.265 OA
ATOM     32  N   UNL d   1      44.764 -17.066  38.090  0.00  0.00    -0.205 NA
ATOM     33  C   UNL d   1      44.858 -17.872  38.217  0.00  0.00     0.123 C 
ENDBRANCH  21  30
ENDBRANCH   1  20
TORSDOF 5
ENDMDL
