MODEL 1
REMARK VINA RESULT:      52.5      0.000      0.000
REMARK  6 active torsions:
REMARK  status: ('A' for Active; 'I' for Inactive)
REMARK    1  A    between atoms: C_6  and  N_1 
REMARK    2  A    between atoms: C_13  and  C_6 
REMARK    3  A    between atoms: N_12  and  C_22 
REMARK    4  A    between atoms: C_23  and  N_12 
REMARK    5  A    between atoms: C_22  and  C_13 
REMARK    6  A    between atoms: C_20  and  C_23 
ROOT
ATOM      1  N   UNL d   1     -50.487  26.443  33.340  0.00  0.00    -0.303 N 
ATOM      2  C   UNL d   1     -51.545  25.634  33.325  0.00  0.00     0.018 A 
ATOM      3  C   UNL d   1     -50.864  25.160  33.327  0.00  0.00     0.018 A 
ATOM      4  C   UNL d   1     -51.312  26.425  33.333  0.00  0.00     0.064 A 
ATOM      5  C   UNL d   1     -50.210  25.671  33.337  0.00  0.00     0.064 A 
ATOM      6  C   UNL d   1     -49.450  25.364  33.342  0.00  0.00     0.018 A 
ATOM      7  C   UNL d   1     -51.881  27.018  33.332  0.00  0.00     0.018 A 
ATOM      8  C   UNL d   1     -50.753  24.345  33.323  0.00  0.00     0.008 A 
ATOM      9  C   UNL d   1     -52.347  25.436  33.316  0.00  0.00     0.008 A 
ATOM     10  C   UNL d   1     -52.912  26.036  33.315  0.00  0.00     0.035 A 
ATOM     11  C   UNL d   1     -49.986  24.029  33.327  0.00  0.00     0.035 A 
ATOM     12  C   UNL d   1     -49.329  24.538  33.337  0.00  0.00     0.008 A 
ATOM     13  C   UNL d   1     -52.679  26.828  33.323  0.00  0.00     0.008 A 
ATOM     14 BR   UNL d   1     -53.711  25.842  33.306  0.00  0.00    -0.049 Br
ATOM     15 BR   UNL d   1     -49.875  23.214  33.322  0.00  0.00    -0.049 Br
ENDROOT
BRANCH   1  16
ATOM     16  C   UNL d   1     -50.026  27.127  33.350  0.00  0.00     0.124 C 
BRANCH  16  17
ATOM     17  C   UNL d   1     -49.695  27.399  34.052  0.00  0.00     0.232 C 
ATOM     18  O   UNL d   1     -50.140  27.375  34.753  0.00  0.00    -0.283 OA
BRANCH  17  19
ATOM     19  C   UNL d   1     -48.925  27.695  34.065  0.00  0.00     0.142 C 
BRANCH  19  20
ATOM     20  N   UNL d   1     -48.745  28.342  34.547  0.00  0.00    -0.237 NA
BRANCH  20  21
ATOM     21  C   UNL d   1     -47.965  28.484  34.777  0.00  0.00     0.124 C 
BRANCH  21  22
ATOM     22  C   UNL d   1     -47.789  29.099  35.283  0.00  0.00     0.119 A 
ATOM     23  O   UNL d   1     -47.683  29.036  36.105  0.00  0.00    -0.304 OA
ATOM     24  C   UNL d   1     -47.514  29.795  36.397  0.00  0.00     0.123 A 
ATOM     25  C   UNL d   1     -47.516  30.317  35.757  0.00  0.00     0.029 A 
ATOM     26  C   UNL d   1     -47.685  29.892  35.076  0.00  0.00     0.028 A 
ENDBRANCH  21  22
ENDBRANCH  20  21
ENDBRANCH  19  20
ENDBRANCH  17  19
ENDBRANCH  16  17
ENDBRANCH   1  16
TORSDOF 6
ENDMDL
