MODEL 1
REMARK VINA RESULT:       4.5      0.000      0.000
REMARK  1 active torsions:
REMARK  status: ('A' for Active; 'I' for Inactive)
REMARK    1  A    between atoms: N_2  and  C_1 
ROOT
ATOM      1  C   UNL d   1     -51.471  25.560  33.328  0.00  0.00     0.148 A 
ATOM      2  C   UNL d   1     -52.284  25.322  33.336  0.00  0.00     0.051 A 
ATOM      3  C   UNL d   1     -50.883  24.982  33.314  0.00  0.00     0.127 A 
ATOM      4  C   UNL d   1     -52.485  24.527  33.330  0.00  0.00     0.121 A 
ATOM      5  C   UNL d   1     -51.106  24.165  33.308  0.00  0.00     0.049 A 
ATOM      6  C   UNL d   1     -51.897  23.950  33.316  0.00  0.00     0.121 A 
ATOM      7  O   UNL d   1     -53.240  24.137  33.336  0.00  0.00    -0.299 OA
ATOM      8  O   UNL d   1     -52.273  23.188  33.312  0.00  0.00    -0.299 OA
ATOM      9  C   UNL d   1     -53.089  23.333  33.325  0.00  0.00     0.304 A 
ATOM     10  N   UNL d   1     -50.067  25.259  33.307  0.00  0.00    -0.146 N 
ENDROOT
BRANCH   1  11
ATOM     11  N   UNL d   1     -51.209  26.380  33.334  0.00  0.00    -0.112 N 
ATOM     12  O   UNL d   1     -50.398  26.575  33.366  0.00  0.00    -0.532 OA
ATOM     13  O   UNL d   1     -51.780  27.020  33.307  0.00  0.00    -0.532 OA
ENDBRANCH   1  11
TORSDOF 1
ENDMDL
MODEL 2
REMARK VINA RESULT:       5.7      0.603      1.400
REMARK  1 active torsions:
REMARK  status: ('A' for Active; 'I' for Inactive)
REMARK    1  A    between atoms: N_2  and  C_1 
ROOT
ATOM      1  C   UNL d   1     -51.171  25.621  33.317  0.00  0.00     0.148 A 
ATOM      2  C   UNL d   1     -51.028  24.787  33.321  0.00  0.00     0.051 A 
ATOM      3  C   UNL d   1     -51.949  25.896  33.311  0.00  0.00     0.127 A 
ATOM      4  C   UNL d   1     -51.653  24.257  33.319  0.00  0.00     0.121 A 
ATOM      5  C   UNL d   1     -52.585  25.336  33.309  0.00  0.00     0.049 A 
ATOM      6  C   UNL d   1     -52.431  24.531  33.313  0.00  0.00     0.121 A 
ATOM      7  O   UNL d   1     -51.671  23.407  33.322  0.00  0.00    -0.299 OA
ATOM      8  O   UNL d   1     -52.949  23.858  33.312  0.00  0.00    -0.299 OA
ATOM      9  C   UNL d   1     -52.460  23.189  33.318  0.00  0.00     0.304 A 
ATOM     10  N   UNL d   1     -52.060  26.750  33.307  0.00  0.00    -0.146 N 
ENDROOT
BRANCH   1  11
ATOM     11  N   UNL d   1     -50.550  26.217  33.318  0.00  0.00    -0.112 N 
ATOM     12  O   UNL d   1     -50.732  27.032  33.326  0.00  0.00    -0.532 OA
ATOM     13  O   UNL d   1     -49.724  25.985  33.312  0.00  0.00    -0.532 OA
ENDBRANCH   1  11
TORSDOF 1
ENDMDL
