MODEL 1
REMARK VINA RESULT:      -1.6      0.000      0.000
REMARK  3 active torsions:
REMARK  status: ('A' for Active; 'I' for Inactive)
REMARK    1  A    between atoms: S_5  and  C_3 
REMARK    2  A    between atoms: C_12  and  S_5 
REMARK    3  A    between atoms: C_23  and  N_6 
ROOT
ATOM      1  C   UNL d   1     -41.590-121.775 -52.351  0.00  0.00     0.155 A 
ATOM      2  C   UNL d   1     -41.833-122.547 -52.247  0.00  0.00     0.092 A 
ATOM      3  C   UNL d   1     -41.784-122.370 -50.845  0.00  0.00     0.124 A 
ATOM      4  N   UNL d   1     -41.493-121.476 -53.109  0.00  0.00    -0.210 NA
ATOM      5  N   UNL d   1     -41.444-121.300 -51.716  0.00  0.00    -0.273 N 
ATOM      6  C   UNL d   1     -41.538-121.588 -50.950  0.00  0.00     0.181 A 
ATOM      7  C   UNL d   1     -41.982-123.028 -52.896  0.00  0.00     0.269 A 
ATOM      8  N   UNL d   1     -41.884-122.729 -53.650  0.00  0.00    -0.258 N 
ATOM      9  C   UNL d   1     -41.931-122.846 -51.494  0.00  0.00     0.022 A 
ATOM     10  C   UNL d   1     -41.639-121.948 -53.754  0.00  0.00     0.152 A 
ATOM     11  N   UNL d   1     -41.387-121.098 -50.294  0.00  0.00    -0.128 N 
ATOM     12  C   UNL d   1     -42.030-123.202 -54.303  0.00  0.00     0.084 A 
ATOM     13  O   UNL d   1     -42.230-123.817 -52.790  0.00  0.00    -0.266 OA
ATOM     14  C   UNL d   1     -41.541-121.649 -54.511  0.00  0.00     0.038 A 
ATOM     15  C   UNL d   1     -41.932-122.902 -55.052  0.00  0.00     0.019 A 
ATOM     16  C   UNL d   1     -41.687-122.122 -55.157  0.00  0.00     0.005 A 
ENDROOT
BRANCH   3  17
ATOM     17  S   UNL d   1     -41.880-122.666 -50.069  0.00  0.00     0.213 S 
ATOM     18  O   UNL d   1     -41.123-123.014 -50.090  0.00  0.00    -0.217 OA
ATOM     19  O   UNL d   1     -42.637-122.319 -50.045  0.00  0.00    -0.217 OA
BRANCH  17  20
ATOM     20  C   UNL d   1     -41.993-122.954 -49.293  0.00  0.00     0.088 A 
ATOM     21  C   UNL d   1     -42.753-122.990 -48.970  0.00  0.00     0.014 A 
ATOM     22  C   UNL d   1     -42.860-123.277 -48.201  0.00  0.00     0.030 A 
ATOM     23  C   UNL d   1     -42.212-123.528 -47.749  0.00  0.00     0.140 A 
ATOM     24  C   UNL d   1     -41.442-123.488 -48.083  0.00  0.00     0.030 A 
ATOM     25  F   UNL d   1     -42.318-123.816 -46.975  0.00  0.00    -0.204 F 
ATOM     26  C   UNL d   1     -41.335-123.202 -48.852  0.00  0.00     0.014 A 
ENDBRANCH  17  20
ENDBRANCH   3  17
BRANCH   5  27
ATOM     27  C   UNL d   1     -41.194-120.506 -51.823  0.00  0.00     0.083 C 
ATOM     28  C   UNL d   1     -41.123-120.007 -51.151  0.00  0.00     0.021 C 
ENDBRANCH   5  27
TORSDOF 3
ENDMDL
MODEL 2
REMARK VINA RESULT:      -0.8      2.147      4.644
REMARK  3 active torsions:
REMARK  status: ('A' for Active; 'I' for Inactive)
REMARK    1  A    between atoms: S_5  and  C_3 
REMARK    2  A    between atoms: C_12  and  S_5 
REMARK    3  A    between atoms: C_23  and  N_6 
ROOT
ATOM      1  C   UNL d   1     -41.875-121.966 -50.634  0.00  0.00     0.155 A 
ATOM      2  C   UNL d   1     -42.250-122.599 -50.986  0.00  0.00     0.092 A 
ATOM      3  C   UNL d   1     -41.886-122.102 -52.259  0.00  0.00     0.124 A 
ATOM      4  N   UNL d   1     -41.870-121.897 -49.817  0.00  0.00    -0.210 NA
ATOM      5  N   UNL d   1     -41.508-121.404 -51.081  0.00  0.00    -0.273 N 
ATOM      6  C   UNL d   1     -41.506-121.461 -51.903  0.00  0.00     0.181 A 
ATOM      7  C   UNL d   1     -42.623-123.170 -50.528  0.00  0.00     0.269 A 
ATOM      8  N   UNL d   1     -42.617-123.100 -49.715  0.00  0.00    -0.258 N 
ATOM      9  C   UNL d   1     -42.257-122.669 -51.800  0.00  0.00     0.022 A 
ATOM     10  C   UNL d   1     -42.238-122.460 -49.359  0.00  0.00     0.152 A 
ATOM     11  N   UNL d   1     -41.127-120.880 -52.365  0.00  0.00    -0.128 N 
ATOM     12  C   UNL d   1     -42.986-123.665 -49.250  0.00  0.00     0.084 A 
ATOM     13  O   UNL d   1     -43.006-123.817 -50.888  0.00  0.00    -0.266 OA
ATOM     14  C   UNL d   1     -42.232-122.391 -48.542  0.00  0.00     0.038 A 
ATOM     15  C   UNL d   1     -42.979-123.594 -48.440  0.00  0.00     0.019 A 
ATOM     16  C   UNL d   1     -42.600-122.953 -48.084  0.00  0.00     0.005 A 
ENDROOT
BRANCH   3  17
ATOM     17  S   UNL d   1     -41.886-122.163 -53.093  0.00  0.00     0.213 S 
ATOM     18  O   UNL d   1     -42.614-121.758 -53.140  0.00  0.00    -0.217 OA
ATOM     19  O   UNL d   1     -41.160-122.568 -53.050  0.00  0.00    -0.217 OA
BRANCH  17  20
ATOM     20  C   UNL d   1     -41.871-122.233 -53.925  0.00  0.00     0.088 A 
ATOM     21  C   UNL d   1     -42.300-121.703 -54.394  0.00  0.00     0.014 A 
ATOM     22  C   UNL d   1     -42.282-121.776 -55.218  0.00  0.00     0.030 A 
ATOM     23  C   UNL d   1     -41.838-122.375 -55.581  0.00  0.00     0.140 A 
ATOM     24  C   UNL d   1     -41.405-122.909 -55.099  0.00  0.00     0.030 A 
ATOM     25  F   UNL d   1     -41.820-122.449 -56.410  0.00  0.00    -0.204 F 
ATOM     26  C   UNL d   1     -41.422-122.838 -54.275  0.00  0.00     0.014 A 
ENDBRANCH  17  20
ENDBRANCH   3  17
BRANCH   5  27
ATOM     27  C   UNL d   1     -41.123-120.752 -50.720  0.00  0.00     0.083 C 
ATOM     28  C   UNL d   1     -41.177-119.995 -51.078  0.00  0.00     0.021 C 
ENDBRANCH   5  27
TORSDOF 3
ENDMDL
