MODEL 1
REMARK VINA RESULT:      -9.7      0.000      0.000
REMARK  5 active torsions:
REMARK  status: ('A' for Active; 'I' for Inactive)
REMARK    1  A    between atoms: N_8  and  C_1 
REMARK    2  A    between atoms: S_2  and  C_7 
REMARK    3  A    between atoms: N_9  and  S_2 
REMARK    4  A    between atoms: C_17  and  N_5 
REMARK       I    between atoms: C_10  and  N_8 
REMARK    5  A    between atoms: C_12  and  C_10 
ROOT
ATOM      1  N   UNL d   1      50.392  34.778  52.383  0.00  0.00    -0.202 NA
ATOM      2  C   UNL d   1      50.605  34.170  52.912  0.00  0.00     0.279 C 
ATOM      3  O   UNL d   1      50.016  33.735  53.297  0.00  0.00    -0.265 OA
ENDROOT
BRANCH   2   4
ATOM      4  C   UNL d   1      51.394  34.007  53.047  0.00  0.00     0.059 A 
ATOM      5  C   UNL d   1      51.661  33.224  53.079  0.00  0.00     0.019 A 
ATOM      6  C   UNL d   1      52.459  33.064  53.215  0.00  0.00     0.115 A 
ATOM      7  C   UNL d   1      52.990  33.687  53.319  0.00  0.00     0.070 A 
ATOM      8  C   UNL d   1      52.726  34.460  53.287  0.00  0.00     0.012 A 
ATOM      9 CL   UNL d   1      53.787  33.526  53.455  0.00  0.00    -0.082 Cl
ATOM     10  C   UNL d   1      51.925  34.630  53.150  0.00  0.00     0.006 A 
BRANCH   6  11
ATOM     11  S   UNL d   1      52.721  32.279  53.247  0.00  0.00     0.272 S 
ATOM     12  O   UNL d   1      52.728  32.253  52.419  0.00  0.00    -0.200 OA
ATOM     13  O   UNL d   1      52.714  32.304  54.069  0.00  0.00    -0.200 OA
BRANCH  11  14
ATOM     14  N   UNL d   1      52.982  31.499  53.273  0.00  0.00    -0.229 N 
ATOM     15  C   UNL d   1      53.679  31.323  53.662  0.00  0.00     0.092 A 
ATOM     16  C   UNL d   1      53.941  30.539  53.688  0.00  0.00     0.020 A 
ATOM     17  C   UNL d   1      53.502  29.943  53.326  0.00  0.00     0.003 A 
ATOM     18  C   UNL d   1      52.799  30.132  52.936  0.00  0.00     0.020 A 
ATOM     19  C   UNL d   1      52.539  30.911  52.910  0.00  0.00     0.092 A 
ENDBRANCH  11  14
ENDBRANCH   6  11
ENDBRANCH   2   4
BRANCH   1  20
ATOM     20  C   UNL d   1      49.600  34.938  52.251  0.00  0.00     0.160 A 
ATOM     21  C   UNL d   1      49.097  35.379  52.738  0.00  0.00     0.298 A 
ATOM     22  N   UNL d   1      48.357  35.396  52.390  0.00  0.00    -0.209 N 
ATOM     23  O   UNL d   1      49.310  35.734  53.445  0.00  0.00    -0.263 OA
ATOM     24  N   UNL d   1      48.397  34.966  51.687  0.00  0.00    -0.238 N 
ATOM     25  C   UNL d   1      49.160  34.683  51.598  0.00  0.00     0.104 A 
ATOM     26  C   UNL d   1      47.779  34.843  51.166  0.00  0.00     0.120 C 
ATOM     27  C   UNL d   1      49.442  34.231  50.979  0.00  0.00     0.022 C 
BRANCH  22  28
ATOM     28  C   UNL d   1      47.698  35.772  52.689  0.00  0.00     0.085 A 
ATOM     29  C   UNL d   1      47.311  36.332  52.235  0.00  0.00     0.019 A 
ATOM     30  C   UNL d   1      46.648  36.709  52.537  0.00  0.00     0.002 A 
ATOM     31  C   UNL d   1      46.371  36.531  53.282  0.00  0.00     0.000 A 
ATOM     32  C   UNL d   1      46.765  35.964  53.738  0.00  0.00     0.002 A 
ATOM     33  C   UNL d   1      47.428  35.587  53.436  0.00  0.00     0.019 A 
ENDBRANCH  22  28
ENDBRANCH   1  20
TORSDOF 5
ENDMDL
MODEL 2
REMARK VINA RESULT:      -9.5      1.928      5.966
REMARK  5 active torsions:
REMARK  status: ('A' for Active; 'I' for Inactive)
REMARK    1  A    between atoms: N_8  and  C_1 
REMARK    2  A    between atoms: S_2  and  C_7 
REMARK    3  A    between atoms: N_9  and  S_2 
REMARK    4  A    between atoms: C_17  and  N_5 
REMARK       I    between atoms: C_10  and  N_8 
REMARK    5  A    between atoms: C_12  and  C_10 
ROOT
ATOM      1  N   UNL d   1      51.668  33.747  52.550  0.00  0.00    -0.202 NA
ATOM      2  C   UNL d   1      50.924  33.839  52.913  0.00  0.00     0.279 C 
ATOM      3  O   UNL d   1      50.812  33.583  53.692  0.00  0.00    -0.265 OA
ENDROOT
BRANCH   2   4
ATOM      4  C   UNL d   1      50.309  34.182  52.498  0.00  0.00     0.059 A 
ATOM      5  C   UNL d   1      49.731  34.624  52.893  0.00  0.00     0.019 A 
ATOM      6  C   UNL d   1      49.112  34.968  52.471  0.00  0.00     0.115 A 
ATOM      7  C   UNL d   1      49.071  34.871  51.652  0.00  0.00     0.070 A 
ATOM      8  C   UNL d   1      49.643  34.435  51.262  0.00  0.00     0.012 A 
ATOM      9 CL   UNL d   1      48.453  35.215  51.230  0.00  0.00    -0.082 Cl
ATOM     10  C   UNL d   1      50.269  34.085  51.680  0.00  0.00     0.006 A 
BRANCH   6  11
ATOM     11  S   UNL d   1      48.536  35.409  52.871  0.00  0.00     0.272 S 
ATOM     12  O   UNL d   1      47.977  34.822  52.701  0.00  0.00    -0.200 OA
ATOM     13  O   UNL d   1      49.092  35.992  53.039  0.00  0.00    -0.200 OA
BRANCH  11  14
ATOM     14  N   UNL d   1      47.961  35.843  53.267  0.00  0.00    -0.229 N 
ATOM     15  C   UNL d   1      48.147  36.196  53.980  0.00  0.00     0.092 A 
ATOM     16  C   UNL d   1      47.568  36.633  54.379  0.00  0.00     0.020 A 
ATOM     17  C   UNL d   1      46.813  36.709  54.057  0.00  0.00     0.003 A 
ATOM     18  C   UNL d   1      46.636  36.349  53.336  0.00  0.00     0.020 A 
ATOM     19  C   UNL d   1      47.211  35.915  52.940  0.00  0.00     0.092 A 
ENDBRANCH  11  14
ENDBRANCH   6  11
ENDBRANCH   2   4
BRANCH   1  20
ATOM     20  C   UNL d   1      52.282  33.403  52.969  0.00  0.00     0.160 A 
ATOM     21  C   UNL d   1      52.821  33.790  53.464  0.00  0.00     0.298 A 
ATOM     22  N   UNL d   1      53.335  33.232  53.766  0.00  0.00    -0.209 N 
ATOM     23  O   UNL d   1      52.831  34.595  53.619  0.00  0.00    -0.263 OA
ATOM     24  N   UNL d   1      53.119  32.496  53.461  0.00  0.00    -0.238 N 
ATOM     25  C   UNL d   1      52.471  32.598  52.971  0.00  0.00     0.104 A 
ATOM     26  C   UNL d   1      53.489  31.785  53.622  0.00  0.00     0.120 C 
ATOM     27  C   UNL d   1      52.079  32.014  52.556  0.00  0.00     0.022 C 
BRANCH  22  28
ATOM     28  C   UNL d   1      53.953  33.379  54.278  0.00  0.00     0.085 A 
ATOM     29  C   UNL d   1      54.692  33.564  53.979  0.00  0.00     0.019 A 
ATOM     30  C   UNL d   1      55.312  33.712  54.495  0.00  0.00     0.002 A 
ATOM     31  C   UNL d   1      55.199  33.675  55.301  0.00  0.00     0.000 A 
ATOM     32  C   UNL d   1      54.450  33.487  55.600  0.00  0.00     0.002 A 
ATOM     33  C   UNL d   1      53.830  33.340  55.083  0.00  0.00     0.019 A 
ENDBRANCH  22  28
ENDBRANCH   1  20
TORSDOF 5
ENDMDL
MODEL 3
REMARK VINA RESULT:      -8.3      1.680      2.544
REMARK  5 active torsions:
REMARK  status: ('A' for Active; 'I' for Inactive)
REMARK    1  A    between atoms: N_8  and  C_1 
REMARK    2  A    between atoms: S_2  and  C_7 
REMARK    3  A    between atoms: N_9  and  S_2 
REMARK    4  A    between atoms: C_17  and  N_5 
REMARK       I    between atoms: C_10  and  N_8 
REMARK    5  A    between atoms: C_12  and  C_10 
ROOT
ATOM      1  N   UNL d   1      49.003  35.629  52.715  0.00  0.00    -0.202 NA
ATOM      2  C   UNL d   1      49.279  34.863  52.891  0.00  0.00     0.279 C 
ATOM      3  O   UNL d   1      48.799  34.341  53.317  0.00  0.00    -0.265 OA
ENDROOT
BRANCH   2   4
ATOM      4  C   UNL d   1      50.022  34.632  52.641  0.00  0.00     0.059 A 
ATOM      5  C   UNL d   1      50.638  34.538  53.186  0.00  0.00     0.019 A 
ATOM      6  C   UNL d   1      51.386  34.304  52.930  0.00  0.00     0.115 A 
ATOM      7  C   UNL d   1      51.519  34.164  52.128  0.00  0.00     0.070 A 
ATOM      8  C   UNL d   1      50.911  34.257  51.589  0.00  0.00     0.012 A 
ATOM      9 CL   UNL d   1      52.267  33.931  51.872  0.00  0.00    -0.082 Cl
ATOM     10  C   UNL d   1      50.155  34.492  51.839  0.00  0.00     0.006 A 
BRANCH   6  11
ATOM     11  S   UNL d   1      51.998  34.212  53.480  0.00  0.00     0.272 S 
ATOM     12  O   UNL d   1      51.746  33.436  53.623  0.00  0.00    -0.200 OA
ATOM     13  O   UNL d   1      52.250  34.982  53.337  0.00  0.00    -0.200 OA
BRANCH  11  14
ATOM     14  N   UNL d   1      52.606  34.115  54.027  0.00  0.00    -0.229 N 
ATOM     15  C   UNL d   1      52.916  33.369  54.152  0.00  0.00     0.092 A 
ATOM     16  C   UNL d   1      53.527  33.272  54.702  0.00  0.00     0.020 A 
ATOM     17  C   UNL d   1      53.817  33.922  55.117  0.00  0.00     0.003 A 
ATOM     18  C   UNL d   1      53.496  34.670  54.983  0.00  0.00     0.020 A 
ATOM     19  C   UNL d   1      52.889  34.767  54.437  0.00  0.00     0.092 A 
ENDBRANCH  11  14
ENDBRANCH   6  11
ENDBRANCH   2   4
BRANCH   1  20
ATOM     20  C   UNL d   1      48.258  35.857  52.967  0.00  0.00     0.160 A 
ATOM     21  C   UNL d   1      47.547  35.762  52.555  0.00  0.00     0.298 A 
ATOM     22  N   UNL d   1      46.944  36.069  53.015  0.00  0.00    -0.209 N 
ATOM     23  O   UNL d   1      47.467  35.419  51.815  0.00  0.00    -0.263 OA
ATOM     24  N   UNL d   1      47.278  36.356  53.713  0.00  0.00    -0.238 N 
ATOM     25  C   UNL d   1      48.086  36.227  53.686  0.00  0.00     0.104 A 
ATOM     26  C   UNL d   1      46.871  36.709  54.327  0.00  0.00     0.120 C 
ATOM     27  C   UNL d   1      48.629  36.425  54.264  0.00  0.00     0.022 C 
BRANCH  22  28
ATOM     28  C   UNL d   1      46.153  36.088  52.815  0.00  0.00     0.085 A 
ATOM     29  C   UNL d   1      45.869  36.693  52.343  0.00  0.00     0.019 A 
ATOM     30  C   UNL d   1      45.073  36.709  52.144  0.00  0.00     0.002 A 
ATOM     31  C   UNL d   1      44.565  36.131  52.411  0.00  0.00     0.000 A 
ATOM     32  C   UNL d   1      44.857  35.521  52.889  0.00  0.00     0.002 A 
ATOM     33  C   UNL d   1      45.653  35.504  53.088  0.00  0.00     0.019 A 
ENDBRANCH  22  28
ENDBRANCH   1  20
TORSDOF 5
ENDMDL
MODEL 4
REMARK VINA RESULT:      -7.4      1.438      2.050
REMARK  5 active torsions:
REMARK  status: ('A' for Active; 'I' for Inactive)
REMARK    1  A    between atoms: N_8  and  C_1 
REMARK    2  A    between atoms: S_2  and  C_7 
REMARK    3  A    between atoms: N_9  and  S_2 
REMARK    4  A    between atoms: C_17  and  N_5 
REMARK       I    between atoms: C_10  and  N_8 
REMARK    5  A    between atoms: C_12  and  C_10 
ROOT
ATOM      1  N   UNL d   1      50.881  33.993  52.574  0.00  0.00    -0.202 NA
ATOM      2  C   UNL d   1      50.884  33.261  52.973  0.00  0.00     0.279 C 
ATOM      3  O   UNL d   1      50.182  32.965  53.293  0.00  0.00    -0.265 OA
ENDROOT
BRANCH   2   4
ATOM      4  C   UNL d   1      51.582  32.842  53.046  0.00  0.00     0.059 A 
ATOM      5  C   UNL d   1      52.208  33.144  53.496  0.00  0.00     0.019 A 
ATOM      6  C   UNL d   1      52.910  32.718  53.567  0.00  0.00     0.115 A 
ATOM      7  C   UNL d   1      52.987  31.988  53.189  0.00  0.00     0.070 A 
ATOM      8  C   UNL d   1      52.368  31.689  52.746  0.00  0.00     0.012 A 
ATOM      9 CL   UNL d   1      53.689  31.562  53.261  0.00  0.00    -0.082 Cl
ATOM     10  C   UNL d   1      51.658  32.113  52.669  0.00  0.00     0.006 A 
BRANCH   6  11
ATOM     11  S   UNL d   1      53.534  33.025  54.017  0.00  0.00     0.272 S 
ATOM     12  O   UNL d   1      53.853  33.365  53.334  0.00  0.00    -0.200 OA
ATOM     13  O   UNL d   1      53.216  32.687  54.697  0.00  0.00    -0.200 OA
BRANCH  11  14
ATOM     14  N   UNL d   1      54.155  33.332  54.461  0.00  0.00    -0.229 N 
ATOM     15  C   UNL d   1      54.131  33.276  55.276  0.00  0.00     0.092 A 
ATOM     16  C   UNL d   1      54.756  33.585  55.722  0.00  0.00     0.020 A 
ATOM     17  C   UNL d   1      55.395  33.944  55.345  0.00  0.00     0.003 A 
ATOM     18  C   UNL d   1      55.409  33.995  54.521  0.00  0.00     0.020 A 
ATOM     19  C   UNL d   1      54.788  33.688  54.078  0.00  0.00     0.092 A 
ENDBRANCH  11  14
ENDBRANCH   6  11
ENDBRANCH   2   4
BRANCH   1  20
ATOM     20  C   UNL d   1      50.180  34.410  52.502  0.00  0.00     0.160 A 
ATOM     21  C   UNL d   1      49.797  34.838  53.098  0.00  0.00     0.298 A 
ATOM     22  N   UNL d   1      49.119  35.164  52.780  0.00  0.00    -0.209 N 
ATOM     23  O   UNL d   1      50.058  34.917  53.871  0.00  0.00    -0.263 OA
ATOM     24  N   UNL d   1      49.077  34.941  51.987  0.00  0.00    -0.238 N 
ATOM     25  C   UNL d   1      49.729  34.477  51.813  0.00  0.00     0.104 A 
ATOM     26  C   UNL d   1      48.485  35.148  51.463  0.00  0.00     0.120 C 
ATOM     27  C   UNL d   1      49.906  34.139  51.090  0.00  0.00     0.022 C 
BRANCH  22  28
ATOM     28  C   UNL d   1      48.579  35.628  53.179  0.00  0.00     0.085 A 
ATOM     29  C   UNL d   1      47.779  35.474  53.105  0.00  0.00     0.019 A 
ATOM     30  C   UNL d   1      47.238  35.942  53.507  0.00  0.00     0.002 A 
ATOM     31  C   UNL d   1      47.490  36.556  53.979  0.00  0.00     0.000 A 
ATOM     32  C   UNL d   1      48.300  36.709  54.051  0.00  0.00     0.002 A 
ATOM     33  C   UNL d   1      48.841  36.242  53.649  0.00  0.00     0.019 A 
ENDBRANCH  22  28
ENDBRANCH   1  20
TORSDOF 5
ENDMDL
