MODEL 1
REMARK VINA RESULT:     -12.0      0.000      0.000
REMARK  3 active torsions:
REMARK  status: ('A' for Active; 'I' for Inactive)
REMARK    1  A    between atoms: C_10  and  C_4 
REMARK    2  A    between atoms: C_11  and  C_6 
REMARK    3  A    between atoms: C_12  and  C_9 
ROOT
ATOM      1  N   UNL d   1      53.220  31.697  53.683  0.00  0.00    -0.212 N 
ATOM      2  C   UNL d   1      52.548  31.477  53.242  0.00  0.00     0.166 A 
ATOM      3  N   UNL d   1      53.636  31.012  53.879  0.00  0.00    -0.158 NA
ATOM      4  C   UNL d   1      53.218  30.365  53.557  0.00  0.00     0.169 A 
ATOM      5  C   UNL d   1      52.560  30.661  53.173  0.00  0.00     0.066 A 
ATOM      6  C   UNL d   1      53.359  32.496  53.845  0.00  0.00     0.086 A 
ATOM      7  N   UNL d   1      52.020  32.058  52.966  0.00  0.00    -0.227 NA
ATOM      8  C   UNL d   1      52.838  33.084  53.574  0.00  0.00     0.038 A 
ATOM      9  C   UNL d   1      52.166  32.865  53.133  0.00  0.00     0.085 A 
ENDROOT
BRANCH   6  10
ATOM     10  C   UNL d   1      53.966  32.880  54.261  0.00  0.00     0.018 A 
ATOM     11  C   UNL d   1      53.884  33.002  55.070  0.00  0.00     0.002 A 
ATOM     12  C   UNL d   1      54.442  33.359  55.466  0.00  0.00     0.000 A 
ATOM     13  C   UNL d   1      55.153  33.633  55.077  0.00  0.00     0.000 A 
ATOM     14  C   UNL d   1      55.255  33.526  54.290  0.00  0.00     0.000 A 
ATOM     15  C   UNL d   1      54.651  33.143  53.877  0.00  0.00     0.002 A 
ENDBRANCH   6  10
BRANCH   9  16
ATOM     16  C   UNL d   1      51.644  33.424  52.858  0.00  0.00     0.018 A 
ATOM     17  C   UNL d   1      51.809  33.862  52.185  0.00  0.00     0.002 A 
ATOM     18  C   UNL d   1      51.280  34.414  51.926  0.00  0.00     0.000 A 
ATOM     19  C   UNL d   1      50.550  34.560  52.329  0.00  0.00     0.000 A 
ATOM     20  C   UNL d   1      50.384  34.122  53.002  0.00  0.00     0.000 A 
ATOM     21  C   UNL d   1      50.929  33.549  53.274  0.00  0.00     0.002 A 
ENDBRANCH   9  16
BRANCH   4  22
ATOM     22  C   UNL d   1      53.434  29.578  53.619  0.00  0.00     0.231 C 
ATOM     23  O   UNL d   1      54.233  29.379  53.603  0.00  0.00    -0.643 OA
ATOM     24  O   UNL d   1      52.843  29.004  53.696  0.00  0.00    -0.643 OA
ENDBRANCH   4  22
TORSDOF 3
ENDMDL
MODEL 2
REMARK VINA RESULT:     -10.9      0.755      3.192
REMARK  3 active torsions:
REMARK  status: ('A' for Active; 'I' for Inactive)
REMARK    1  A    between atoms: C_10  and  C_4 
REMARK    2  A    between atoms: C_11  and  C_6 
REMARK    3  A    between atoms: C_12  and  C_9 
ROOT
ATOM      1  N   UNL d   1      52.886  31.822  53.284  0.00  0.00    -0.212 N 
ATOM      2  C   UNL d   1      53.548  31.477  53.654  0.00  0.00     0.166 A 
ATOM      3  N   UNL d   1      52.469  31.227  52.893  0.00  0.00    -0.158 NA
ATOM      4  C   UNL d   1      52.877  30.510  53.022  0.00  0.00     0.169 A 
ATOM      5  C   UNL d   1      53.530  30.675  53.485  0.00  0.00     0.066 A 
ATOM      6  C   UNL d   1      52.755  32.635  53.356  0.00  0.00     0.086 A 
ATOM      7  N   UNL d   1      54.075  31.948  54.094  0.00  0.00    -0.227 NA
ATOM      8  C   UNL d   1      53.275  33.115  53.793  0.00  0.00     0.038 A 
ATOM      9  C   UNL d   1      53.937  32.770  54.163  0.00  0.00     0.085 A 
ENDROOT
BRANCH   6  10
ATOM     10  C   UNL d   1      52.159  33.130  53.059  0.00  0.00     0.018 A 
ATOM     11  C   UNL d   1      51.433  33.161  53.445  0.00  0.00     0.002 A 
ATOM     12  C   UNL d   1      50.872  33.618  53.176  0.00  0.00     0.000 A 
ATOM     13  C   UNL d   1      50.990  34.099  52.479  0.00  0.00     0.000 A 
ATOM     14  C   UNL d   1      51.688  34.084  52.086  0.00  0.00     0.000 A 
ATOM     15  C   UNL d   1      52.281  33.592  52.383  0.00  0.00     0.002 A 
ENDBRANCH   6  10
BRANCH   9  16
ATOM     16  C   UNL d   1      54.458  33.221  54.595  0.00  0.00     0.018 A 
ATOM     17  C   UNL d   1      54.319  33.387  55.386  0.00  0.00     0.002 A 
ATOM     18  C   UNL d   1      54.846  33.836  55.799  0.00  0.00     0.000 A 
ATOM     19  C   UNL d   1      55.548  34.148  55.443  0.00  0.00     0.000 A 
ATOM     20  C   UNL d   1      55.688  33.982  54.652  0.00  0.00     0.000 A 
ATOM     21  C   UNL d   1      55.145  33.517  54.220  0.00  0.00     0.002 A 
ENDBRANCH   9  16
BRANCH   4  22
ATOM     22  C   UNL d   1      52.656  29.776  52.734  0.00  0.00     0.231 C 
ATOM     23  O   UNL d   1      52.843  29.578  51.957  0.00  0.00    -0.643 OA
ATOM     24  O   UNL d   1      52.251  29.254  53.232  0.00  0.00    -0.643 OA
ENDBRANCH   4  22
TORSDOF 3
ENDMDL
MODEL 3
REMARK VINA RESULT:     -10.8      1.878      3.501
REMARK  3 active torsions:
REMARK  status: ('A' for Active; 'I' for Inactive)
REMARK    1  A    between atoms: C_10  and  C_4 
REMARK    2  A    between atoms: C_11  and  C_6 
REMARK    3  A    between atoms: C_12  and  C_9 
ROOT
ATOM      1  N   UNL d   1      52.867  33.000  53.499  0.00  0.00    -0.212 N 
ATOM      2  C   UNL d   1      52.320  32.480  53.146  0.00  0.00     0.166 A 
ATOM      3  N   UNL d   1      52.627  33.773  53.343  0.00  0.00    -0.158 NA
ATOM      4  C   UNL d   1      51.926  33.731  52.891  0.00  0.00     0.169 A 
ATOM      5  C   UNL d   1      51.750  32.941  52.779  0.00  0.00     0.066 A 
ATOM      6  C   UNL d   1      53.512  32.693  53.915  0.00  0.00     0.086 A 
ATOM      7  N   UNL d   1      52.421  31.657  53.213  0.00  0.00    -0.227 NA
ATOM      8  C   UNL d   1      53.623  31.872  53.988  0.00  0.00     0.038 A 
ATOM      9  C   UNL d   1      53.075  31.352  53.636  0.00  0.00     0.085 A 
ENDROOT
BRANCH   6  10
ATOM     10  C   UNL d   1      54.139  33.060  54.319  0.00  0.00     0.018 A 
ATOM     11  C   UNL d   1      54.055  33.231  55.119  0.00  0.00     0.002 A 
ATOM     12  C   UNL d   1      54.631  33.572  55.503  0.00  0.00     0.000 A 
ATOM     13  C   UNL d   1      55.363  33.778  55.110  0.00  0.00     0.000 A 
ATOM     14  C   UNL d   1      55.466  33.620  54.331  0.00  0.00     0.000 A 
ATOM     15  C   UNL d   1      54.843  33.255  53.931  0.00  0.00     0.002 A 
ENDBRANCH   6  10
BRANCH   9  16
ATOM     16  C   UNL d   1      53.165  30.546  53.695  0.00  0.00     0.018 A 
ATOM     17  C   UNL d   1      53.267  30.082  53.026  0.00  0.00     0.002 A 
ATOM     18  C   UNL d   1      53.354  29.284  53.103  0.00  0.00     0.000 A 
ATOM     19  C   UNL d   1      53.345  28.901  53.858  0.00  0.00     0.000 A 
ATOM     20  C   UNL d   1      53.243  29.365  54.526  0.00  0.00     0.000 A 
ATOM     21  C   UNL d   1      53.152  30.192  54.452  0.00  0.00     0.002 A 
ENDBRANCH   9  16
BRANCH   4  22
ATOM     22  C   UNL d   1      51.497  34.371  52.613  0.00  0.00     0.231 C 
ATOM     23  O   UNL d   1      51.242  34.944  53.146  0.00  0.00    -0.643 OA
ATOM     24  O   UNL d   1      51.333  34.423  51.804  0.00  0.00    -0.643 OA
ENDBRANCH   4  22
TORSDOF 3
ENDMDL
MODEL 4
REMARK VINA RESULT:     -10.5      1.771      2.962
REMARK  3 active torsions:
REMARK  status: ('A' for Active; 'I' for Inactive)
REMARK    1  A    between atoms: C_10  and  C_4 
REMARK    2  A    between atoms: C_11  and  C_6 
REMARK    3  A    between atoms: C_12  and  C_9 
ROOT
ATOM      1  N   UNL d   1      53.596  32.928  54.059  0.00  0.00    -0.212 N 
ATOM      2  C   UNL d   1      53.390  33.735  54.084  0.00  0.00     0.166 A 
ATOM      3  N   UNL d   1      54.298  32.826  54.479  0.00  0.00    -0.158 NA
ATOM      4  C   UNL d   1      54.528  33.576  54.765  0.00  0.00     0.169 A 
ATOM      5  C   UNL d   1      53.969  34.118  54.519  0.00  0.00     0.066 A 
ATOM      6  C   UNL d   1      53.110  32.395  53.654  0.00  0.00     0.086 A 
ATOM      7  N   UNL d   1      52.700  34.003  53.704  0.00  0.00    -0.227 NA
ATOM      8  C   UNL d   1      52.419  32.653  53.271  0.00  0.00     0.038 A 
ATOM      9  C   UNL d   1      52.213  33.459  53.296  0.00  0.00     0.085 A 
ENDROOT
BRANCH   6  10
ATOM     10  C   UNL d   1      53.165  31.575  53.532  0.00  0.00     0.018 A 
ATOM     11  C   UNL d   1      53.367  31.293  52.786  0.00  0.00     0.002 A 
ATOM     12  C   UNL d   1      53.421  30.533  52.662  0.00  0.00     0.000 A 
ATOM     13  C   UNL d   1      53.274  29.972  53.290  0.00  0.00     0.000 A 
ATOM     14  C   UNL d   1      53.076  30.224  54.025  0.00  0.00     0.000 A 
ATOM     15  C   UNL d   1      53.021  31.039  54.145  0.00  0.00     0.002 A 
ENDBRANCH   6  10
BRANCH   9  16
ATOM     16  C   UNL d   1      51.541  33.732  52.928  0.00  0.00     0.018 A 
ATOM     17  C   UNL d   1      50.815  33.720  53.311  0.00  0.00     0.002 A 
ATOM     18  C   UNL d   1      50.158  33.995  52.931  0.00  0.00     0.000 A 
ATOM     19  C   UNL d   1      50.190  34.300  52.142  0.00  0.00     0.000 A 
ATOM     20  C   UNL d   1      50.915  34.312  51.759  0.00  0.00     0.000 A 
ATOM     21  C   UNL d   1      51.598  34.029  52.148  0.00  0.00     0.002 A 
ENDBRANCH   9  16
BRANCH   4  22
ATOM     22  C   UNL d   1      55.196  33.732  55.212  0.00  0.00     0.231 C 
ATOM     23  O   UNL d   1      55.138  33.733  56.034  0.00  0.00    -0.643 OA
ATOM     24  O   UNL d   1      55.911  33.885  54.825  0.00  0.00    -0.643 OA
ENDBRANCH   4  22
TORSDOF 3
ENDMDL
MODEL 5
REMARK VINA RESULT:     -10.3      1.842      3.908
REMARK  3 active torsions:
REMARK  status: ('A' for Active; 'I' for Inactive)
REMARK    1  A    between atoms: C_10  and  C_4 
REMARK    2  A    between atoms: C_11  and  C_6 
REMARK    3  A    between atoms: C_12  and  C_9 
ROOT
ATOM      1  N   UNL d   1      53.286  33.210  53.994  0.00  0.00    -0.212 N 
ATOM      2  C   UNL d   1      53.843  32.657  54.273  0.00  0.00     0.166 A 
ATOM      3  N   UNL d   1      53.498  33.955  54.275  0.00  0.00    -0.158 NA
ATOM      4  C   UNL d   1      54.191  33.862  54.731  0.00  0.00     0.169 A 
ATOM      5  C   UNL d   1      54.390  33.070  54.722  0.00  0.00     0.066 A 
ATOM      6  C   UNL d   1      52.659  32.954  53.519  0.00  0.00     0.086 A 
ATOM      7  N   UNL d   1      53.770  31.852  54.075  0.00  0.00    -0.227 NA
ATOM      8  C   UNL d   1      52.576  32.152  53.316  0.00  0.00     0.038 A 
ATOM      9  C   UNL d   1      53.134  31.599  53.595  0.00  0.00     0.085 A 
ENDROOT
BRANCH   6  10
ATOM     10  C   UNL d   1      52.029  33.362  53.164  0.00  0.00     0.018 A 
ATOM     11  C   UNL d   1      51.290  33.351  53.524  0.00  0.00     0.002 A 
ATOM     12  C   UNL d   1      50.698  33.727  53.202  0.00  0.00     0.000 A 
ATOM     13  C   UNL d   1      50.794  34.159  52.470  0.00  0.00     0.000 A 
ATOM     14  C   UNL d   1      51.506  34.183  52.102  0.00  0.00     0.000 A 
ATOM     15  C   UNL d   1      52.131  33.778  52.456  0.00  0.00     0.002 A 
ENDBRANCH   6  10
BRANCH   9  16
ATOM     16  C   UNL d   1      53.071  30.810  53.408  0.00  0.00     0.018 A 
ATOM     17  C   UNL d   1      52.984  30.566  52.630  0.00  0.00     0.002 A 
ATOM     18  C   UNL d   1      52.924  29.779  52.462  0.00  0.00     0.000 A 
ATOM     19  C   UNL d   1      52.946  29.187  53.066  0.00  0.00     0.000 A 
ATOM     20  C   UNL d   1      53.033  29.431  53.844  0.00  0.00     0.000 A 
ATOM     21  C   UNL d   1      53.096  30.245  54.024  0.00  0.00     0.002 A 
ENDBRANCH   9  16
BRANCH   4  22
ATOM     22  C   UNL d   1      54.594  34.463  55.116  0.00  0.00     0.231 C 
ATOM     23  O   UNL d   1      54.237  35.200  55.193  0.00  0.00    -0.643 OA
ATOM     24  O   UNL d   1      55.350  34.310  55.417  0.00  0.00    -0.643 OA
ENDBRANCH   4  22
TORSDOF 3
ENDMDL
MODEL 6
REMARK VINA RESULT:      -9.6      2.018      3.997
REMARK  3 active torsions:
REMARK  status: ('A' for Active; 'I' for Inactive)
REMARK    1  A    between atoms: C_10  and  C_4 
REMARK    2  A    between atoms: C_11  and  C_6 
REMARK    3  A    between atoms: C_12  and  C_9 
ROOT
ATOM      1  N   UNL d   1      52.268  33.038  53.060  0.00  0.00    -0.212 N 
ATOM      2  C   UNL d   1      52.453  33.817  53.289  0.00  0.00     0.166 A 
ATOM      3  N   UNL d   1      51.590  33.060  52.591  0.00  0.00    -0.158 NA
ATOM      4  C   UNL d   1      51.355  33.859  52.530  0.00  0.00     0.169 A 
ATOM      5  C   UNL d   1      51.887  34.308  52.958  0.00  0.00     0.066 A 
ATOM      6  C   UNL d   1      52.747  32.413  53.313  0.00  0.00     0.086 A 
ATOM      7  N   UNL d   1      53.116  33.966  53.770  0.00  0.00    -0.227 NA
ATOM      8  C   UNL d   1      53.411  32.551  53.794  0.00  0.00     0.038 A 
ATOM      9  C   UNL d   1      53.596  33.330  54.023  0.00  0.00     0.085 A 
ENDROOT
BRANCH   6  10
ATOM     10  C   UNL d   1      52.707  31.594  53.180  0.00  0.00     0.018 A 
ATOM     11  C   UNL d   1      53.196  31.255  52.612  0.00  0.00     0.002 A 
ATOM     12  C   UNL d   1      53.167  30.495  52.481  0.00  0.00     0.000 A 
ATOM     13  C   UNL d   1      52.632  29.991  52.919  0.00  0.00     0.000 A 
ATOM     14  C   UNL d   1      52.147  30.300  53.478  0.00  0.00     0.000 A 
ATOM     15  C   UNL d   1      52.187  31.114  53.609  0.00  0.00     0.002 A 
ENDBRANCH   6  10
BRANCH   9  16
ATOM     16  C   UNL d   1      54.242  33.486  54.492  0.00  0.00     0.018 A 
ATOM     17  C   UNL d   1      54.970  33.670  54.163  0.00  0.00     0.002 A 
ATOM     18  C   UNL d   1      55.600  33.822  54.643  0.00  0.00     0.000 A 
ATOM     19  C   UNL d   1      55.537  33.800  55.487  0.00  0.00     0.000 A 
ATOM     20  C   UNL d   1      54.809  33.616  55.817  0.00  0.00     0.000 A 
ATOM     21  C   UNL d   1      54.154  33.457  55.324  0.00  0.00     0.002 A 
ENDBRANCH   9  16
BRANCH   4  22
ATOM     22  C   UNL d   1      50.707  34.136  52.113  0.00  0.00     0.231 C 
ATOM     23  O   UNL d   1      50.765  34.231  51.298  0.00  0.00    -0.643 OA
ATOM     24  O   UNL d   1      50.011  34.311  52.525  0.00  0.00    -0.643 OA
ENDBRANCH   4  22
TORSDOF 3
ENDMDL
