MODEL 1
REMARK VINA RESULT:      -7.1      0.000      0.000
REMARK  6 active torsions:
REMARK  status: ('A' for Active; 'I' for Inactive)
REMARK    1  A    between atoms: N_5  and  C_1 
REMARK    2  A    between atoms: N_14  and  C_3 
REMARK    3  A    between atoms: N_9  and  C_20 
REMARK    4  A    between atoms: C_22  and  N_14 
REMARK    5  A    between atoms: C_20  and  C_21 
REMARK    6  A    between atoms: C_21  and  C_22 
ROOT
ATOM      1  C   UNL d   1     -49.260  12.428  22.857  0.00  0.00     0.200 A 
ATOM      2  C   UNL d   1     -50.005  12.506  23.212  0.00  0.00     0.288 A 
ATOM      3  C   UNL d   1     -48.830  13.097  22.630  0.00  0.00     0.109 A 
ATOM      4  N   UNL d   1     -50.323  13.254  23.341  0.00  0.00    -0.270 N 
ATOM      5  C   UNL d   1     -49.156  13.845  22.762  0.00  0.00     0.036 A 
ATOM      6  C   UNL d   1     -49.897  13.928  23.115  0.00  0.00     0.069 A 
ATOM      7  O   UNL d   1     -50.427  11.836  23.437  0.00  0.00    -0.265 OA
ATOM      8  C   UNL d   1     -51.064  13.335  23.694  0.00  0.00     0.102 C 
ATOM      9  C   UNL d   1     -48.734  14.520  22.538  0.00  0.00     0.003 A 
ATOM     10  C   UNL d   1     -50.220  14.676  23.246  0.00  0.00     0.018 A 
ATOM     11  C   UNL d   1     -49.053  15.267  22.667  0.00  0.00     0.000 A 
ATOM     12  C   UNL d   1     -49.798  15.345  23.022  0.00  0.00     0.002 A 
ENDROOT
BRANCH   3  13
ATOM     13  N   UNL d   1     -48.089  13.019  22.277  0.00  0.00    -0.242 NA
BRANCH  13  14
ATOM     14  C   UNL d   1     -47.406  13.140  22.719  0.00  0.00     0.101 C 
BRANCH  14  15
ATOM     15  C   UNL d   1     -46.666  13.126  22.349  0.00  0.00     0.040 C 
BRANCH  15  16
ATOM     16  C   UNL d   1     -45.980  13.100  22.803  0.00  0.00     0.083 C 
BRANCH  16  17
ATOM     17  N   UNL d   1     -45.256  12.897  22.451  0.00  0.00    -0.285 N 
ATOM     18  C   UNL d   1     -44.792  12.245  22.642  0.00  0.00     0.183 A 
ATOM     19  N   UNL d   1     -44.127  12.262  22.157  0.00  0.00    -0.222 NA
ATOM     20  C   UNL d   1     -44.184  12.923  21.670  0.00  0.00     0.120 A 
ATOM     21  C   UNL d   1     -44.877  13.314  21.849  0.00  0.00     0.102 A 
ENDBRANCH  16  17
ENDBRANCH  15  16
ENDBRANCH  14  15
ENDBRANCH  13  14
ENDBRANCH   3  13
BRANCH   1  22
ATOM     22  N   UNL d   1     -48.945  11.673  22.731  0.00  0.00    -0.107 N 
ATOM     23  O   UNL d   1     -48.958  11.336  21.979  0.00  0.00    -0.531 OA
ATOM     24  O   UNL d   1     -48.616  11.255  23.367  0.00  0.00    -0.531 OA
ENDBRANCH   1  22
TORSDOF 6
ENDMDL
MODEL 2
REMARK VINA RESULT:      -6.7      1.912      2.695
REMARK  6 active torsions:
REMARK  status: ('A' for Active; 'I' for Inactive)
REMARK    1  A    between atoms: N_5  and  C_1 
REMARK    2  A    between atoms: N_14  and  C_3 
REMARK    3  A    between atoms: N_9  and  C_20 
REMARK    4  A    between atoms: C_22  and  N_14 
REMARK    5  A    between atoms: C_20  and  C_21 
REMARK    6  A    between atoms: C_21  and  C_22 
ROOT
ATOM      1  C   UNL d   1     -47.532  13.620  22.760  0.00  0.00     0.200 A 
ATOM      2  C   UNL d   1     -48.157  13.981  22.353  0.00  0.00     0.288 A 
ATOM      3  C   UNL d   1     -47.657  12.927  23.194  0.00  0.00     0.109 A 
ATOM      4  N   UNL d   1     -48.910  13.652  22.378  0.00  0.00    -0.270 N 
ATOM      5  C   UNL d   1     -48.417  12.601  23.215  0.00  0.00     0.036 A 
ATOM      6  C   UNL d   1     -49.042  12.958  22.811  0.00  0.00     0.069 A 
ATOM      7  O   UNL d   1     -48.025  14.670  21.923  0.00  0.00    -0.265 OA
ATOM      8  C   UNL d   1     -49.535  14.009  21.974  0.00  0.00     0.102 C 
ATOM      9  C   UNL d   1     -48.552  11.909  23.646  0.00  0.00     0.003 A 
ATOM     10  C   UNL d   1     -49.799  12.630  22.834  0.00  0.00     0.018 A 
ATOM     11  C   UNL d   1     -49.305  11.579  23.671  0.00  0.00     0.000 A 
ATOM     12  C   UNL d   1     -49.931  11.941  23.264  0.00  0.00     0.002 A 
ENDROOT
BRANCH   3  13
ATOM     13  N   UNL d   1     -47.036  12.568  23.599  0.00  0.00    -0.242 NA
BRANCH  13  14
ATOM     14  C   UNL d   1     -46.662  11.907  23.280  0.00  0.00     0.101 C 
BRANCH  14  15
ATOM     15  C   UNL d   1     -46.050  11.538  23.697  0.00  0.00     0.040 C 
BRANCH  15  16
ATOM     16  C   UNL d   1     -45.759  10.812  23.441  0.00  0.00     0.083 C 
BRANCH  16  17
ATOM     17  N   UNL d   1     -44.941  10.676  23.419  0.00  0.00    -0.285 N 
ATOM     18  C   UNL d   1     -44.370  11.209  23.159  0.00  0.00     0.183 A 
ATOM     19  N   UNL d   1     -43.636  10.844  23.234  0.00  0.00    -0.222 NA
ATOM     20  C   UNL d   1     -43.756  10.090  23.539  0.00  0.00     0.120 A 
ATOM     21  C   UNL d   1     -44.558   9.984  23.653  0.00  0.00     0.102 A 
ENDBRANCH  16  17
ENDBRANCH  15  16
ENDBRANCH  14  15
ENDBRANCH  13  14
ENDBRANCH   3  13
BRANCH   1  22
ATOM     22  N   UNL d   1     -46.777  13.957  22.731  0.00  0.00    -0.107 N 
ATOM     23  O   UNL d   1     -46.498  14.412  23.358  0.00  0.00    -0.531 OA
ATOM     24  O   UNL d   1     -46.300  13.834  22.063  0.00  0.00    -0.531 OA
ENDBRANCH   1  22
TORSDOF 6
ENDMDL
MODEL 3
REMARK VINA RESULT:      -6.5      1.578      2.124
REMARK  6 active torsions:
REMARK  status: ('A' for Active; 'I' for Inactive)
REMARK    1  A    between atoms: N_5  and  C_1 
REMARK    2  A    between atoms: N_14  and  C_3 
REMARK    3  A    between atoms: N_9  and  C_20 
REMARK    4  A    between atoms: C_22  and  N_14 
REMARK    5  A    between atoms: C_20  and  C_21 
REMARK    6  A    between atoms: C_21  and  C_22 
ROOT
ATOM      1  C   UNL d   1     -49.138  14.562  22.654  0.00  0.00     0.200 A 
ATOM      2  C   UNL d   1     -49.860  14.778  22.997  0.00  0.00     0.288 A 
ATOM      3  C   UNL d   1     -48.891  13.772  22.654  0.00  0.00     0.109 A 
ATOM      4  N   UNL d   1     -50.340  14.206  23.343  0.00  0.00    -0.270 N 
ATOM      5  C   UNL d   1     -49.379  13.202  23.003  0.00  0.00     0.036 A 
ATOM      6  C   UNL d   1     -50.099  13.413  23.347  0.00  0.00     0.069 A 
ATOM      7  O   UNL d   1     -50.099  15.565  22.994  0.00  0.00    -0.265 OA
ATOM      8  C   UNL d   1     -51.060  14.418  23.686  0.00  0.00     0.102 C 
ATOM      9  C   UNL d   1     -49.141  12.410  23.008  0.00  0.00     0.003 A 
ATOM     10  C   UNL d   1     -50.582  12.842  23.694  0.00  0.00     0.018 A 
ATOM     11  C   UNL d   1     -49.621  11.838  23.354  0.00  0.00     0.000 A 
ATOM     12  C   UNL d   1     -50.343  12.055  23.698  0.00  0.00     0.002 A 
ENDROOT
BRANCH   3  13
ATOM     13  N   UNL d   1     -48.173  13.557  22.312  0.00  0.00    -0.242 NA
BRANCH  13  14
ATOM     14  C   UNL d   1     -47.514  13.421  22.787  0.00  0.00     0.101 C 
BRANCH  14  15
ATOM     15  C   UNL d   1     -46.830  13.091  22.459  0.00  0.00     0.040 C 
BRANCH  15  16
ATOM     16  C   UNL d   1     -46.128  13.090  22.888  0.00  0.00     0.083 C 
BRANCH  16  17
ATOM     17  N   UNL d   1     -45.411  12.910  22.511  0.00  0.00    -0.285 N 
ATOM     18  C   UNL d   1     -45.027  12.182  22.526  0.00  0.00     0.183 A 
ATOM     19  N   UNL d   1     -44.339  12.253  22.080  0.00  0.00    -0.222 NA
ATOM     20  C   UNL d   1     -44.301  13.024  21.792  0.00  0.00     0.120 A 
ATOM     21  C   UNL d   1     -44.959  13.428  22.056  0.00  0.00     0.102 A 
ENDBRANCH  16  17
ENDBRANCH  15  16
ENDBRANCH  14  15
ENDBRANCH  13  14
ENDBRANCH   3  13
BRANCH   1  22
ATOM     22  N   UNL d   1     -48.660  15.142  22.308  0.00  0.00    -0.107 N 
ATOM     23  O   UNL d   1     -48.704  15.291  21.499  0.00  0.00    -0.531 OA
ATOM     24  O   UNL d   1     -48.135  15.575  22.781  0.00  0.00    -0.531 OA
ENDBRANCH   1  22
TORSDOF 6
ENDMDL
MODEL 4
REMARK VINA RESULT:      -6.0      1.626      2.367
REMARK  6 active torsions:
REMARK  status: ('A' for Active; 'I' for Inactive)
REMARK    1  A    between atoms: N_5  and  C_1 
REMARK    2  A    between atoms: N_14  and  C_3 
REMARK    3  A    between atoms: N_9  and  C_20 
REMARK    4  A    between atoms: C_22  and  N_14 
REMARK    5  A    between atoms: C_20  and  C_21 
REMARK    6  A    between atoms: C_21  and  C_22 
ROOT
ATOM      1  C   UNL d   1     -48.202  14.156  22.734  0.00  0.00     0.200 A 
ATOM      2  C   UNL d   1     -49.030  14.106  22.749  0.00  0.00     0.288 A 
ATOM      3  C   UNL d   1     -47.737  13.512  22.963  0.00  0.00     0.109 A 
ATOM      4  N   UNL d   1     -49.396  13.411  22.993  0.00  0.00    -0.270 N 
ATOM      5  C   UNL d   1     -48.112  12.816  23.207  0.00  0.00     0.036 A 
ATOM      6  C   UNL d   1     -48.935  12.762  23.224  0.00  0.00     0.069 A 
ATOM      7  O   UNL d   1     -49.486  14.751  22.520  0.00  0.00    -0.265 OA
ATOM      8  C   UNL d   1     -50.219  13.358  23.010  0.00  0.00     0.102 C 
ATOM      9  C   UNL d   1     -47.656  12.167  23.438  0.00  0.00     0.003 A 
ATOM     10  C   UNL d   1     -49.306  12.067  23.469  0.00  0.00     0.018 A 
ATOM     11  C   UNL d   1     -48.022  11.472  23.683  0.00  0.00     0.000 A 
ATOM     12  C   UNL d   1     -48.850  11.422  23.698  0.00  0.00     0.002 A 
ENDROOT
BRANCH   3  13
ATOM     13  N   UNL d   1     -46.915  13.562  22.948  0.00  0.00    -0.242 NA
BRANCH  13  14
ATOM     14  C   UNL d   1     -46.492  13.226  22.326  0.00  0.00     0.101 C 
BRANCH  14  15
ATOM     15  C   UNL d   1     -45.670  13.152  22.379  0.00  0.00     0.040 C 
BRANCH  15  16
ATOM     16  C   UNL d   1     -45.229  12.982  21.705  0.00  0.00     0.083 C 
BRANCH  16  17
ATOM     17  N   UNL d   1     -44.443  12.725  21.777  0.00  0.00    -0.285 N 
ATOM     18  C   UNL d   1     -44.185  12.077  22.214  0.00  0.00     0.183 A 
ATOM     19  N   UNL d   1     -43.367  12.028  22.128  0.00  0.00    -0.222 NA
ATOM     20  C   UNL d   1     -43.125  12.644  21.639  0.00  0.00     0.120 A 
ATOM     21  C   UNL d   1     -43.785  13.073  21.422  0.00  0.00     0.102 A 
ENDBRANCH  16  17
ENDBRANCH  15  16
ENDBRANCH  14  15
ENDBRANCH  13  14
ENDBRANCH   3  13
BRANCH   1  22
ATOM     22  N   UNL d   1     -47.841  14.859  22.487  0.00  0.00    -0.107 N 
ATOM     23  O   UNL d   1     -47.497  15.367  23.037  0.00  0.00    -0.531 OA
ATOM     24  O   UNL d   1     -47.825  15.049  21.680  0.00  0.00    -0.531 OA
ENDBRANCH   1  22
TORSDOF 6
ENDMDL
MODEL 5
REMARK VINA RESULT:      -5.1      8.979      9.999
REMARK  6 active torsions:
REMARK  status: ('A' for Active; 'I' for Inactive)
REMARK    1  A    between atoms: N_5  and  C_1 
REMARK    2  A    between atoms: N_14  and  C_3 
REMARK    3  A    between atoms: N_9  and  C_20 
REMARK    4  A    between atoms: C_22  and  N_14 
REMARK    5  A    between atoms: C_20  and  C_21 
REMARK    6  A    between atoms: C_21  and  C_22 
ROOT
ATOM      1  C   UNL d   1     -40.279  14.930  18.854  0.00  0.00     0.200 A 
ATOM      2  C   UNL d   1     -40.416  15.290  18.120  0.00  0.00     0.288 A 
ATOM      3  C   UNL d   1     -39.753  14.294  18.918  0.00  0.00     0.109 A 
ATOM      4  N   UNL d   1     -40.029  15.017  17.448  0.00  0.00    -0.270 N 
ATOM      5  C   UNL d   1     -39.367  14.025  18.238  0.00  0.00     0.036 A 
ATOM      6  C   UNL d   1     -39.501  14.381  17.506  0.00  0.00     0.069 A 
ATOM      7  O   UNL d   1     -40.941  15.921  18.063  0.00  0.00    -0.265 OA
ATOM      8  C   UNL d   1     -40.163  15.374  16.716  0.00  0.00     0.102 C 
ATOM      9  C   UNL d   1     -38.839  13.391  18.293  0.00  0.00     0.003 A 
ATOM     10  C   UNL d   1     -39.114  14.110  16.830  0.00  0.00     0.018 A 
ATOM     11  C   UNL d   1     -38.452  13.118  17.620  0.00  0.00     0.000 A 
ATOM     12  C   UNL d   1     -38.590  13.479  16.887  0.00  0.00     0.002 A 
ENDROOT
BRANCH   3  13
ATOM     13  N   UNL d   1     -39.616  13.936  19.648  0.00  0.00    -0.242 NA
BRANCH  13  14
ATOM     14  C   UNL d   1     -38.931  14.108  20.070  0.00  0.00     0.101 C 
BRANCH  14  15
ATOM     15  C   UNL d   1     -38.756  13.689  20.762  0.00  0.00     0.040 C 
BRANCH  15  16
ATOM     16  C   UNL d   1     -38.197  13.982  21.290  0.00  0.00     0.083 C 
BRANCH  16  17
ATOM     17  N   UNL d   1     -38.178  13.705  22.072  0.00  0.00    -0.285 N 
ATOM     18  C   UNL d   1     -37.943  12.954  22.312  0.00  0.00     0.183 A 
ATOM     19  N   UNL d   1     -38.012  12.921  23.132  0.00  0.00    -0.222 NA
ATOM     20  C   UNL d   1     -38.289  13.650  23.393  0.00  0.00     0.120 A 
ATOM     21  C   UNL d   1     -38.392  14.134  22.744  0.00  0.00     0.102 A 
ENDBRANCH  16  17
ENDBRANCH  15  16
ENDBRANCH  14  15
ENDBRANCH  13  14
ENDBRANCH   3  13
BRANCH   1  22
ATOM     22  N   UNL d   1     -40.672  15.209  19.526  0.00  0.00    -0.107 N 
ATOM     23  O   UNL d   1     -40.448  15.921  19.874  0.00  0.00    -0.531 OA
ATOM     24  O   UNL d   1     -41.295  14.768  19.848  0.00  0.00    -0.531 OA
ENDBRANCH   1  22
TORSDOF 6
ENDMDL
MODEL 6
REMARK VINA RESULT:      -4.7      9.266     10.137
REMARK  6 active torsions:
REMARK  status: ('A' for Active; 'I' for Inactive)
REMARK    1  A    between atoms: N_5  and  C_1 
REMARK    2  A    between atoms: N_14  and  C_3 
REMARK    3  A    between atoms: N_9  and  C_20 
REMARK    4  A    between atoms: C_22  and  N_14 
REMARK    5  A    between atoms: C_20  and  C_21 
REMARK    6  A    between atoms: C_21  and  C_22 
ROOT
ATOM      1  C   UNL d   1     -39.124  13.621  17.560  0.00  0.00     0.200 A 
ATOM      2  C   UNL d   1     -39.016  13.902  16.787  0.00  0.00     0.288 A 
ATOM      3  C   UNL d   1     -39.669  13.981  18.067  0.00  0.00     0.109 A 
ATOM      4  N   UNL d   1     -39.453  14.545  16.518  0.00  0.00    -0.270 N 
ATOM      5  C   UNL d   1     -40.105  14.627  17.789  0.00  0.00     0.036 A 
ATOM      6  C   UNL d   1     -40.002  14.910  17.022  0.00  0.00     0.069 A 
ATOM      7  O   UNL d   1     -38.472  13.539  16.289  0.00  0.00    -0.265 OA
ATOM      8  C   UNL d   1     -39.349  14.828  15.751  0.00  0.00     0.102 C 
ATOM      9  C   UNL d   1     -40.653  14.993  18.289  0.00  0.00     0.003 A 
ATOM     10  C   UNL d   1     -40.438  15.554  16.749  0.00  0.00     0.018 A 
ATOM     11  C   UNL d   1     -41.090  15.636  18.020  0.00  0.00     0.000 A 
ATOM     12  C   UNL d   1     -40.983  15.917  17.248  0.00  0.00     0.002 A 
ENDROOT
BRANCH   3  13
ATOM     13  N   UNL d   1     -39.776  13.701  18.834  0.00  0.00    -0.242 NA
BRANCH  13  14
ATOM     14  C   UNL d   1     -39.473  14.122  19.473  0.00  0.00     0.101 C 
BRANCH  14  15
ATOM     15  C   UNL d   1     -39.426  13.765  20.218  0.00  0.00     0.040 C 
BRANCH  15  16
ATOM     16  C   UNL d   1     -39.251  14.220  20.882  0.00  0.00     0.083 C 
BRANCH  16  17
ATOM     17  N   UNL d   1     -39.014  13.852  21.587  0.00  0.00    -0.285 N 
ATOM     18  C   UNL d   1     -38.385  13.329  21.671  0.00  0.00     0.183 A 
ATOM     19  N   UNL d   1     -38.353  13.102  22.462  0.00  0.00    -0.222 NA
ATOM     20  C   UNL d   1     -38.962  13.486  22.862  0.00  0.00     0.120 A 
ATOM     21  C   UNL d   1     -39.370  13.947  22.325  0.00  0.00     0.102 A 
ENDBRANCH  16  17
ENDBRANCH  15  16
ENDBRANCH  14  15
ENDBRANCH  13  14
ENDBRANCH   3  13
BRANCH   1  22
ATOM     22  N   UNL d   1     -38.680  12.974  17.824  0.00  0.00    -0.107 N 
ATOM     23  O   UNL d   1     -37.941  13.087  18.168  0.00  0.00    -0.531 OA
ATOM     24  O   UNL d   1     -38.986  12.208  17.739  0.00  0.00    -0.531 OA
ENDBRANCH   1  22
TORSDOF 6
ENDMDL
