MODEL 1
REMARK VINA RESULT:       1.6      0.000      0.000
REMARK  7 active torsions:
REMARK  status: ('A' for Active; 'I' for Inactive)
REMARK    1  A    between atoms: P_4  and  C_1 
REMARK    2  A    between atoms: N_7  and  C_3 
REMARK    3  A    between atoms: C_9  and  P_4 
REMARK    4  A    between atoms: C_10  and  P_4 
REMARK    5  A    between atoms: C_11  and  C_5 
REMARK    6  A    between atoms: C_12  and  N_7 
REMARK    7  A    between atoms: C_13  and  C_12 
ROOT
ATOM      1  C   UNL d   1      57.940  -0.492  31.174  0.00  0.00     0.161 A 
ATOM      2  N   UNL d   1      57.356  -0.318  31.738  0.00  0.00    -0.215 NA
ATOM      3  C   UNL d   1      57.897  -1.337  30.980  0.00  0.00     0.205 A 
ATOM      4  C   UNL d   1      56.947  -0.994  31.915  0.00  0.00     0.184 A 
ATOM      5  O   UNL d   1      57.253  -1.657  31.463  0.00  0.00    -0.270 OA
ENDROOT
BRANCH   1   6
ATOM      6  P   UNL d   1      58.466  -0.159  30.799  0.00  0.00     0.195 P 
ATOM      7  O   UNL d   1      57.732  -0.340  30.543  0.00  0.00    -0.305 OA
BRANCH   6   8
ATOM      8  C   UNL d   1      58.462   0.125  30.015  0.00  0.00     0.038 A 
ATOM      9  C   UNL d   1      57.766   0.400  29.688  0.00  0.00     0.004 A 
ATOM     10  C   UNL d   1      57.762   0.681  28.912  0.00  0.00     0.000 A 
ATOM     11  C   UNL d   1      58.454   0.681  28.478  0.00  0.00     0.000 A 
ATOM     12  C   UNL d   1      59.150   0.406  28.805  0.00  0.00     0.000 A 
ATOM     13  C   UNL d   1      59.154   0.125  29.580  0.00  0.00     0.004 A 
ENDBRANCH   6   8
BRANCH   6  14
ATOM     14  C   UNL d   1      59.358   0.136  30.901  0.00  0.00     0.038 A 
ATOM     15  C   UNL d   1      60.090   0.305  30.581  0.00  0.00     0.004 A 
ATOM     16  C   UNL d   1      60.683   0.574  31.053  0.00  0.00     0.000 A 
ATOM     17  C   UNL d   1      60.554   0.681  31.870  0.00  0.00     0.000 A 
ATOM     18  C   UNL d   1      59.836   0.516  32.191  0.00  0.00     0.000 A 
ATOM     19  C   UNL d   1      59.229   0.243  31.718  0.00  0.00     0.004 A 
ENDBRANCH   6  14
ENDBRANCH   1   6
BRANCH   3  20
ATOM     20  N   UNL d   1      58.430  -1.533  30.455  0.00  0.00    -0.219 NA
BRANCH  20  21
ATOM     21  C   UNL d   1      59.063  -2.034  30.262  0.00  0.00     0.101 C 
BRANCH  21  22
ATOM     22  C   UNL d   1      58.980  -2.619  29.708  0.00  0.00     0.019 A 
ATOM     23  C   UNL d   1      58.260  -2.726  29.311  0.00  0.00     0.002 A 
ATOM     24  C   UNL d   1      58.187  -3.340  28.735  0.00  0.00     0.000 A 
ATOM     25  C   UNL d   1      58.823  -3.834  28.562  0.00  0.00     0.000 A 
ATOM     26  C   UNL d   1      59.561  -3.723  28.969  0.00  0.00     0.000 A 
ATOM     27  C   UNL d   1      59.631  -3.112  29.542  0.00  0.00     0.002 A 
ENDBRANCH  21  22
ENDBRANCH  20  21
ENDBRANCH   3  20
BRANCH   4  28
ATOM     28  C   UNL d   1      56.326  -1.000  32.464  0.00  0.00     0.041 A 
ATOM     29  C   UNL d   1      55.929  -1.718  32.658  0.00  0.00     0.004 A 
ATOM     30  C   UNL d   1      55.302  -1.696  33.217  0.00  0.00     0.000 A 
ATOM     31  C   UNL d   1      55.071  -0.997  33.574  0.00  0.00     0.000 A 
ATOM     32  C   UNL d   1      55.473  -0.277  33.377  0.00  0.00     0.000 A 
ATOM     33  C   UNL d   1      56.106  -0.292  32.813  0.00  0.00     0.004 A 
ENDBRANCH   4  28
TORSDOF 7
ENDMDL
