MODEL 1
REMARK VINA RESULT:      -4.5      0.000      0.000
REMARK  5 active torsions:
REMARK  status: ('A' for Active; 'I' for Inactive)
REMARK    1  A    between atoms: C_6  and  C_1 
REMARK    2  A    between atoms: C_11  and  N_3 
REMARK    3  A    between atoms: C_16  and  C_11 
REMARK    4  A    between atoms: C_13  and  O_15 
REMARK    5  A    between atoms: O_15  and  C_16 
ROOT
ATOM      1  C   UNL d   1      59.482  -1.772  28.955  0.00  0.00     0.171 A 
ATOM      2  N   UNL d   1      60.181  -1.502  28.603  0.00  0.00    -0.225 NA
ATOM      3  N   UNL d   1      59.225  -1.195  29.497  0.00  0.00    -0.286 N 
ATOM      4  C   UNL d   1      59.765  -0.568  29.480  0.00  0.00     0.083 A 
ATOM      5  C   UNL d   1      60.357  -0.756  28.927  0.00  0.00     0.099 A 
ATOM      6  C   UNL d   1      59.805   0.157  29.892  0.00  0.00     0.019 A 
ATOM      7  C   UNL d   1      60.982  -0.225  28.789  0.00  0.00     0.021 A 
ATOM      8  C   UNL d   1      60.427   0.682  29.752  0.00  0.00     0.002 A 
ATOM      9  C   UNL d   1      61.016   0.490  29.199  0.00  0.00     0.002 A 
ENDROOT
BRANCH   3  10
ATOM     10  C   UNL d   1      58.528  -1.390  29.893  0.00  0.00     0.108 C 
BRANCH  10  11
ATOM     11  C   UNL d   1      58.202  -0.858  30.435  0.00  0.00     0.142 C 
BRANCH  11  12
ATOM     12  O   UNL d   1      57.384  -0.827  30.537  0.00  0.00    -0.304 OA
BRANCH  12  13
ATOM     13  C   UNL d   1      57.069  -0.502  31.227  0.00  0.00     0.100 A 
ATOM     14  C   UNL d   1      56.735  -1.002  31.792  0.00  0.00     0.025 A 
ATOM     15  C   UNL d   1      56.418  -0.682  32.485  0.00  0.00     0.002 A 
ATOM     16  C   UNL d   1      56.082  -1.175  33.055  0.00  0.00     0.000 C 
ATOM     17  C   UNL d   1      56.439   0.140  32.605  0.00  0.00     0.000 A 
ATOM     18  C   UNL d   1      56.774   0.632  32.035  0.00  0.00     0.002 A 
ATOM     19  C   UNL d   1      57.089   0.307  31.345  0.00  0.00     0.025 A 
ENDBRANCH  12  13
ENDBRANCH  11  12
ENDBRANCH  10  11
ENDBRANCH   3  10
BRANCH   1  20
ATOM     20  C   UNL d   1      59.105  -2.490  28.796  0.00  0.00     0.134 A 
ATOM     21  O   UNL d   1      58.466  -2.683  28.526  0.00  0.00    -0.302 OA
ATOM     22  C   UNL d   1      58.297  -3.377  28.455  0.00  0.00     0.123 A 
ATOM     23  C   UNL d   1      58.771  -3.890  28.654  0.00  0.00     0.029 A 
ATOM     24  C   UNL d   1      59.408  -3.695  28.923  0.00  0.00     0.030 A 
ENDBRANCH   1  20
TORSDOF 5
ENDMDL
