MODEL 1
REMARK VINA RESULT:      -4.2      0.000      0.000
REMARK  3 active torsions:
REMARK  status: ('A' for Active; 'I' for Inactive)
REMARK    1  A    between atoms: S_2  and  C_1 
REMARK    2  A    between atoms: C_8  and  S_2 
REMARK    3  A    between atoms: C_20  and  C_13 
ROOT
ATOM      1  C   UNL d   1     -41.534-122.509 -51.727  0.00  0.00     0.151 A 
ATOM      2  C   UNL d   1     -41.340-121.723 -51.925  0.00  0.00     0.311 A 
ATOM      3  C   UNL d   1     -41.593-123.073 -52.324  0.00  0.00     0.019 A 
ATOM      4  O   UNL d   1     -41.209-121.517 -52.715  0.00  0.00    -0.273 OA
ATOM      5  C   UNL d   1     -41.464-122.874 -53.108  0.00  0.00     0.024 A 
ATOM      6  C   UNL d   1     -41.270-122.087 -53.306  0.00  0.00     0.103 A 
ATOM      7  O   UNL d   1     -41.278-121.147 -51.329  0.00  0.00    -0.258 OA
ATOM      8  C   UNL d   1     -41.523-123.436 -53.700  0.00  0.00     0.009 A 
ATOM      9  C   UNL d   1     -41.139-121.880 -54.091  0.00  0.00     0.025 A 
ATOM     10  C   UNL d   1     -41.394-123.239 -54.492  0.00  0.00     0.035 A 
ATOM     11  C   UNL d   1     -41.199-122.453 -54.690  0.00  0.00     0.009 A 
ATOM     12 BR   UNL d   1     -41.455-123.818 -55.093  0.00  0.00    -0.049 Br
ENDROOT
BRANCH   1  13
ATOM     13  S   UNL d   1     -41.663-122.707 -50.936  0.00  0.00     0.215 S 
ATOM     14  O   UNL d   1     -41.122-123.330 -50.994  0.00  0.00    -0.217 OA
ATOM     15  O   UNL d   1     -42.209-122.079 -50.873  0.00  0.00    -0.217 OA
BRANCH  13  16
ATOM     16  C   UNL d   1     -41.799-122.897 -50.142  0.00  0.00     0.088 A 
ATOM     17  C   UNL d   1     -42.526-122.711 -49.786  0.00  0.00     0.011 A 
ATOM     18  C   UNL d   1     -42.659-122.902 -48.995  0.00  0.00     0.001 A 
ATOM     19  C   UNL d   1     -42.074-123.279 -48.553  0.00  0.00     0.000 A 
ATOM     20  C   UNL d   1     -41.350-123.464 -48.907  0.00  0.00     0.001 A 
ATOM     21  C   UNL d   1     -41.216-123.274 -49.697  0.00  0.00     0.011 A 
BRANCH  19  22
ATOM     22  C   UNL d   1     -42.212-123.469 -47.756  0.00  0.00     0.000 C 
ATOM     23  C   UNL d   1     -41.585-123.547 -47.241  0.00  0.00     0.000 C 
ATOM     24  C   UNL d   1     -42.986-123.578 -47.490  0.00  0.00     0.000 C 
ENDBRANCH  19  22
ENDBRANCH  13  16
ENDBRANCH   1  13
TORSDOF 3
ENDMDL
MODEL 2
REMARK VINA RESULT:      -2.0      1.753      4.769
REMARK  3 active torsions:
REMARK  status: ('A' for Active; 'I' for Inactive)
REMARK    1  A    between atoms: S_2  and  C_1 
REMARK    2  A    between atoms: C_8  and  S_2 
REMARK    3  A    between atoms: C_20  and  C_13 
ROOT
ATOM      1  C   UNL d   1     -41.975-122.271 -51.163  0.00  0.00     0.151 A 
ATOM      2  C   UNL d   1     -41.565-121.661 -50.768  0.00  0.00     0.311 A 
ATOM      3  C   UNL d   1     -42.410-122.814 -50.724  0.00  0.00     0.019 A 
ATOM      4  O   UNL d   1     -41.600-121.608 -49.943  0.00  0.00    -0.273 OA
ATOM      5  C   UNL d   1     -42.448-122.766 -49.907  0.00  0.00     0.024 A 
ATOM      6  C   UNL d   1     -42.038-122.156 -49.512  0.00  0.00     0.103 A 
ATOM      7  O   UNL d   1     -41.123-121.107 -51.203  0.00  0.00    -0.258 OA
ATOM      8  C   UNL d   1     -42.882-123.307 -49.473  0.00  0.00     0.009 A 
ATOM      9  C   UNL d   1     -42.072-122.101 -48.692  0.00  0.00     0.025 A 
ATOM     10  C   UNL d   1     -42.922-123.262 -48.649  0.00  0.00     0.035 A 
ATOM     11  C   UNL d   1     -42.513-122.652 -48.254  0.00  0.00     0.009 A 
ATOM     12 BR   UNL d   1     -43.367-123.817 -48.210  0.00  0.00    -0.049 Br
ENDROOT
BRANCH   1  13
ATOM     13  S   UNL d   1     -41.935-122.317 -51.986  0.00  0.00     0.215 S 
ATOM     14  O   UNL d   1     -41.274-122.812 -51.935  0.00  0.00    -0.217 OA
ATOM     15  O   UNL d   1     -42.601-121.818 -52.042  0.00  0.00    -0.217 OA
BRANCH  13  16
ATOM     16  C   UNL d   1     -41.902-122.358 -52.812  0.00  0.00     0.088 A 
ATOM     17  C   UNL d   1     -42.403-121.882 -53.274  0.00  0.00     0.011 A 
ATOM     18  C   UNL d   1     -42.369-121.924 -54.097  0.00  0.00     0.001 A 
ATOM     19  C   UNL d   1     -41.839-122.437 -54.467  0.00  0.00     0.000 A 
ATOM     20  C   UNL d   1     -41.341-122.911 -54.007  0.00  0.00     0.001 A 
ATOM     21  C   UNL d   1     -41.374-122.870 -53.185  0.00  0.00     0.011 A 
BRANCH  19  22
ATOM     22  C   UNL d   1     -41.808-122.476 -55.295  0.00  0.00     0.000 C 
ATOM     23  C   UNL d   1     -41.210-122.893 -55.661  0.00  0.00     0.000 C 
ATOM     24  C   UNL d   1     -42.384-122.093 -55.745  0.00  0.00     0.000 C 
ENDBRANCH  19  22
ENDBRANCH  13  16
ENDBRANCH   1  13
TORSDOF 3
ENDMDL
