MODEL 1
REMARK VINA RESULT:      -5.9      0.000      0.000
REMARK  5 active torsions:
REMARK  status: ('A' for Active; 'I' for Inactive)
REMARK    1  A    between atoms: C_7  and  C_1 
REMARK    2  A    between atoms: C_12  and  N_2 
REMARK    3  A    between atoms: C_8  and  C_7 
REMARK    4  A    between atoms: O_25  and  C_20 
REMARK    5  A    between atoms: C_26  and  O_25 
ROOT
ATOM      1  N   UNL d   1     -46.044  13.070  22.297  0.00  0.00    -0.242 N 
ATOM      2  C   UNL d   1     -46.688  12.847  21.814  0.00  0.00     0.267 A 
ATOM      3  C   UNL d   1     -46.353  13.423  22.979  0.00  0.00     0.267 A 
ATOM      4  C   UNL d   1     -47.174  13.419  22.919  0.00  0.00     0.062 A 
ATOM      5  C   UNL d   1     -47.384  13.064  22.200  0.00  0.00     0.066 A 
ATOM      6  O   UNL d   1     -46.630  12.474  21.078  0.00  0.00    -0.267 OA
ATOM      7  O   UNL d   1     -45.911  13.725  23.606  0.00  0.00    -0.267 OA
ENDROOT
BRANCH   4   8
ATOM      8  C   UNL d   1     -47.694  13.715  23.472  0.00  0.00     0.018 C 
BRANCH   8   9
ATOM      9  C   UNL d   1     -48.467  13.822  23.194  0.00  0.00     0.045 A 
ATOM     10  N   UNL d   1     -49.071  13.265  23.170  0.00  0.00    -0.308 N 
ATOM     11  C   UNL d   1     -49.741  13.619  22.851  0.00  0.00     0.060 A 
ATOM     12  C   UNL d   1     -49.008  12.489  23.424  0.00  0.00     0.099 C 
ATOM     13  C   UNL d   1     -50.493  13.333  22.698  0.00  0.00     0.017 A 
ATOM     14  C   UNL d   1     -49.552  14.403  22.675  0.00  0.00    -0.002 A 
ATOM     15  C   UNL d   1     -51.063  13.823  22.369  0.00  0.00     0.002 A 
ATOM     16  C   UNL d   1     -50.868  14.614  22.193  0.00  0.00    -0.000 A 
ATOM     17  C   UNL d   1     -50.115  14.901  22.346  0.00  0.00    -0.003 A 
ATOM     18  C   UNL d   1     -48.764  14.528  22.887  0.00  0.00     0.054 A 
ATOM     19  C   UNL d   1     -49.186  15.169  22.560  0.00  0.00     0.010 C 
ATOM     20  C   UNL d   1     -48.388  15.265  22.785  0.00  0.00     0.010 C 
ENDBRANCH   8   9
ENDBRANCH   4   8
BRANCH   1  21
ATOM     21  C   UNL d   1     -45.252  12.956  22.123  0.00  0.00     0.070 A 
ATOM     22  C   UNL d   1     -44.855  12.293  22.404  0.00  0.00     0.020 A 
ATOM     23  C   UNL d   1     -44.050  12.180  22.225  0.00  0.00     0.026 A 
ATOM     24  C   UNL d   1     -43.647  12.734  21.765  0.00  0.00     0.100 A 
ATOM     25  C   UNL d   1     -44.047  13.404  21.481  0.00  0.00     0.026 A 
ATOM     26  C   UNL d   1     -44.845  13.516  21.658  0.00  0.00     0.020 A 
BRANCH  24  27
ATOM     27  O   UNL d   1     -42.850  12.627  21.585  0.00  0.00    -0.305 OA
BRANCH  27  28
ATOM     28  C   UNL d   1     -42.410  13.241  21.263  0.00  0.00     0.123 C 
ATOM     29  C   UNL d   1     -41.602  13.152  21.134  0.00  0.00     0.029 C 
ENDBRANCH  27  28
ENDBRANCH  24  27
ENDBRANCH   1  21
TORSDOF 5
ENDMDL
MODEL 2
REMARK VINA RESULT:      -3.8      7.772      9.320
REMARK  5 active torsions:
REMARK  status: ('A' for Active; 'I' for Inactive)
REMARK    1  A    between atoms: C_7  and  C_1 
REMARK    2  A    between atoms: C_12  and  N_2 
REMARK    3  A    between atoms: C_8  and  C_7 
REMARK    4  A    between atoms: O_25  and  C_20 
REMARK    5  A    between atoms: C_26  and  O_25 
ROOT
ATOM      1  N   UNL d   1     -39.871  15.002  19.095  0.00  0.00    -0.242 N 
ATOM      2  C   UNL d   1     -40.184  14.690  19.804  0.00  0.00     0.267 A 
ATOM      3  C   UNL d   1     -39.049  15.043  19.180  0.00  0.00     0.267 A 
ATOM      4  C   UNL d   1     -38.856  14.762  19.929  0.00  0.00     0.062 A 
ATOM      5  C   UNL d   1     -39.554  14.543  20.317  0.00  0.00     0.066 A 
ATOM      6  O   UNL d   1     -40.984  14.555  19.958  0.00  0.00    -0.267 OA
ATOM      7  O   UNL d   1     -38.520  15.319  18.611  0.00  0.00    -0.267 OA
ENDROOT
BRANCH   4   8
ATOM      8  C   UNL d   1     -38.104  14.708  20.239  0.00  0.00     0.018 C 
BRANCH   8   9
ATOM      9  C   UNL d   1     -38.072  14.427  21.018  0.00  0.00     0.045 A 
ATOM     10  N   UNL d   1     -38.016  13.645  21.264  0.00  0.00    -0.308 N 
ATOM     11  C   UNL d   1     -38.002  13.631  22.087  0.00  0.00     0.060 A 
ATOM     12  C   UNL d   1     -37.982  12.995  20.769  0.00  0.00     0.099 C 
ATOM     13  C   UNL d   1     -37.952  13.015  22.624  0.00  0.00     0.017 A 
ATOM     14  C   UNL d   1     -38.049  14.411  22.353  0.00  0.00    -0.002 A 
ATOM     15  C   UNL d   1     -37.949  13.169  23.430  0.00  0.00     0.002 A 
ATOM     16  C   UNL d   1     -37.996  13.957  23.695  0.00  0.00    -0.000 A 
ATOM     17  C   UNL d   1     -38.046  14.574  23.157  0.00  0.00    -0.003 A 
ATOM     18  C   UNL d   1     -38.092  14.903  21.692  0.00  0.00     0.054 A 
ATOM     19  C   UNL d   1     -38.103  15.261  22.445  0.00  0.00     0.010 C 
ATOM     20  C   UNL d   1     -38.146  15.732  21.758  0.00  0.00     0.010 C 
ENDBRANCH   8   9
ENDBRANCH   4   8
BRANCH   1  21
ATOM     21  C   UNL d   1     -40.305  15.224  18.438  0.00  0.00     0.070 A 
ATOM     22  C   UNL d   1     -40.978  15.691  18.521  0.00  0.00     0.020 A 
ATOM     23  C   UNL d   1     -41.417  15.916  17.851  0.00  0.00     0.026 A 
ATOM     24  C   UNL d   1     -41.179  15.672  17.100  0.00  0.00     0.100 A 
ATOM     25  C   UNL d   1     -40.501  15.201  17.014  0.00  0.00     0.026 A 
ATOM     26  C   UNL d   1     -40.065  14.977  17.678  0.00  0.00     0.020 A 
BRANCH  24  27
ATOM     27  O   UNL d   1     -41.611  15.891  16.433  0.00  0.00    -0.305 OA
BRANCH  27  28
ATOM     28  C   UNL d   1     -42.029  15.330  16.004  0.00  0.00     0.123 C 
ATOM     29  C   UNL d   1     -42.586  15.563  15.444  0.00  0.00     0.029 C 
ENDBRANCH  27  28
ENDBRANCH  24  27
ENDBRANCH   1  21
TORSDOF 5
ENDMDL
