MODEL 1
REMARK VINA RESULT:      28.3      0.000      0.000
REMARK  4 active torsions:
REMARK  status: ('A' for Active; 'I' for Inactive)
REMARK    1  A    between atoms: C_2  and  S_1 
REMARK    2  A    between atoms: N_5  and  S_1 
REMARK    3  A    between atoms: C_13  and  N_5 
REMARK    4  A    between atoms: C_11  and  C_13 
ROOT
ATOM      1  C   UNL d   1     -51.082  26.186  33.367  0.00  0.00     0.105 A 
ATOM      2  C   UNL d   1     -51.240  26.987  33.409  0.00  0.00     0.012 A 
ATOM      3  C   UNL d   1     -50.298  25.925  33.356  0.00  0.00     0.012 A 
ATOM      4  C   UNL d   1     -49.677  26.469  33.386  0.00  0.00     0.001 A 
ATOM      5  C   UNL d   1     -50.627  27.536  33.439  0.00  0.00     0.001 A 
ATOM      6  C   UNL d   1     -49.841  27.278  33.428  0.00  0.00     0.000 A 
ATOM      7  C   UNL d   1     -52.022  27.248  33.420  0.00  0.00     0.001 C 
ATOM      8  C   UNL d   1     -50.138  25.114  33.314  0.00  0.00     0.001 C 
ATOM      9  C   UNL d   1     -50.786  28.344  33.481  0.00  0.00     0.000 C 
ATOM     10  C   UNL d   1     -48.895  26.209  33.374  0.00  0.00     0.000 C 
ENDROOT
BRANCH   1  11
ATOM     11  S   UNL d   1     -51.702  25.647  33.337  0.00  0.00     0.285 S 
ATOM     12  O   UNL d   1     -52.239  26.280  33.306  0.00  0.00    -0.198 OA
ATOM     13  O   UNL d   1     -51.170  25.032  33.368  0.00  0.00    -0.198 OA
BRANCH  11  14
ATOM     14  N   UNL d   1     -52.332  25.118  33.307  0.00  0.00    -0.155 NA
BRANCH  14  15
ATOM     15  C   UNL d   1     -52.280  24.389  33.689  0.00  0.00     0.137 C 
BRANCH  15  16
ATOM     16  C   UNL d   1     -52.960  23.943  33.804  0.00  0.00     0.120 A 
ATOM     17  O   UNL d   1     -53.238  23.268  34.182  0.00  0.00    -0.304 OA
ATOM     18  C   UNL d   1     -54.044  23.193  34.014  0.00  0.00     0.123 A 
ATOM     19  C   UNL d   1     -54.264  23.823  33.531  0.00  0.00     0.029 A 
ATOM     20  C   UNL d   1     -53.593  24.288  33.400  0.00  0.00     0.028 A 
ENDBRANCH  15  16
ENDBRANCH  14  15
ENDBRANCH  11  14
ENDBRANCH   1  11
TORSDOF 4
ENDMDL
