MODEL 1
REMARK VINA RESULT:      -7.1      0.000      0.000
REMARK  1 active torsions:
REMARK  status: ('A' for Active; 'I' for Inactive)
REMARK    1  A    between atoms: C_5  and  C_1 
ROOT
ATOM      1  C   UNL d   1     -46.635  13.374  22.590  0.00  0.00     0.164 A 
ATOM      2  O   UNL d   1     -47.274  13.018  22.082  0.00  0.00    -0.301 OA
ATOM      3  C   UNL d   1     -46.949  14.039  22.928  0.00  0.00     0.033 A 
ATOM      4  C   UNL d   1     -47.717  14.144  22.691  0.00  0.00     0.025 A 
ATOM      5  C   UNL d   1     -47.917  13.517  22.171  0.00  0.00     0.100 A 
ATOM      6  C   UNL d   1     -48.274  14.730  22.876  0.00  0.00     0.009 A 
ATOM      7  C   UNL d   1     -48.670  13.487  21.845  0.00  0.00     0.025 A 
ATOM      8  C   UNL d   1     -49.029  14.687  22.540  0.00  0.00     0.035 A 
ATOM      9  C   UNL d   1     -49.229  14.060  22.020  0.00  0.00     0.009 A 
ATOM     10 BR   UNL d   1     -49.588  15.274  22.725  0.00  0.00    -0.049 Br
ENDROOT
BRANCH   1  11
ATOM     11  C   UNL d   1     -45.862  13.120  22.725  0.00  0.00     0.235 C 
ATOM     12  O   UNL d   1     -45.690  12.570  23.320  0.00  0.00    -0.642 OA
ATOM     13  O   UNL d   1     -45.220  13.400  22.274  0.00  0.00    -0.642 OA
ENDBRANCH   1  11
TORSDOF 1
ENDMDL
MODEL 2
REMARK VINA RESULT:      -6.9      1.562      1.868
REMARK  1 active torsions:
REMARK  status: ('A' for Active; 'I' for Inactive)
REMARK    1  A    between atoms: C_5  and  C_1 
ROOT
ATOM      1  C   UNL d   1     -47.071  12.567  23.228  0.00  0.00     0.164 A 
ATOM      2  O   UNL d   1     -47.662  12.025  23.617  0.00  0.00    -0.301 OA
ATOM      3  C   UNL d   1     -47.455  12.924  22.611  0.00  0.00     0.033 A 
ATOM      4  C   UNL d   1     -48.223  12.668  22.565  0.00  0.00     0.025 A 
ATOM      5  C   UNL d   1     -48.350  12.115  23.183  0.00  0.00     0.100 A 
ATOM      6  C   UNL d   1     -48.836  12.861  22.041  0.00  0.00     0.009 A 
ATOM      7  C   UNL d   1     -49.088  11.765  23.266  0.00  0.00     0.025 A 
ATOM      8  C   UNL d   1     -49.575  12.500  22.136  0.00  0.00     0.035 A 
ATOM      9  C   UNL d   1     -49.702  11.948  22.754  0.00  0.00     0.009 A 
ATOM     10 BR   UNL d   1     -50.190  12.693  21.612  0.00  0.00    -0.049 Br
ENDROOT
BRANCH   1  11
ATOM     11  C   UNL d   1     -46.282  12.715  23.417  0.00  0.00     0.235 C 
ATOM     12  O   UNL d   1     -46.030  13.472  23.640  0.00  0.00    -0.642 OA
ATOM     13  O   UNL d   1     -45.704  12.117  23.394  0.00  0.00    -0.642 OA
ENDBRANCH   1  11
TORSDOF 1
ENDMDL
MODEL 3
REMARK VINA RESULT:      -6.7      2.154      3.197
REMARK  1 active torsions:
REMARK  status: ('A' for Active; 'I' for Inactive)
REMARK    1  A    between atoms: C_5  and  C_1 
ROOT
ATOM      1  C   UNL d   1     -49.165  14.877  22.981  0.00  0.00     0.164 A 
ATOM      2  O   UNL d   1     -49.197  13.999  23.132  0.00  0.00    -0.301 OA
ATOM      3  C   UNL d   1     -48.397  15.053  22.795  0.00  0.00     0.033 A 
ATOM      4  C   UNL d   1     -47.938  14.384  22.811  0.00  0.00     0.025 A 
ATOM      5  C   UNL d   1     -48.430  13.737  23.017  0.00  0.00     0.100 A 
ATOM      6  C   UNL d   1     -47.131  14.268  22.664  0.00  0.00     0.009 A 
ATOM      7  C   UNL d   1     -48.105  12.985  23.074  0.00  0.00     0.025 A 
ATOM      8  C   UNL d   1     -46.817  13.505  22.725  0.00  0.00     0.035 A 
ATOM      9  C   UNL d   1     -47.308  12.857  22.931  0.00  0.00     0.009 A 
ATOM     10 BR   UNL d   1     -46.007  13.387  22.578  0.00  0.00    -0.049 Br
ENDROOT
BRANCH   1  11
ATOM     11  C   UNL d   1     -49.764  15.442  23.012  0.00  0.00     0.235 C 
ATOM     12  O   UNL d   1     -50.276  15.558  22.370  0.00  0.00    -0.642 OA
ATOM     13  O   UNL d   1     -49.885  15.922  23.681  0.00  0.00    -0.642 OA
ENDBRANCH   1  11
TORSDOF 1
ENDMDL
MODEL 4
REMARK VINA RESULT:      -6.6      2.356      3.337
REMARK  1 active torsions:
REMARK  status: ('A' for Active; 'I' for Inactive)
REMARK    1  A    between atoms: C_5  and  C_1 
ROOT
ATOM      1  C   UNL d   1     -49.186  11.966  23.310  0.00  0.00     0.164 A 
ATOM      2  O   UNL d   1     -48.481  11.508  23.606  0.00  0.00    -0.301 OA
ATOM      3  C   UNL d   1     -48.900  12.654  22.994  0.00  0.00     0.033 A 
ATOM      4  C   UNL d   1     -48.092  12.683  23.056  0.00  0.00     0.025 A 
ATOM      5  C   UNL d   1     -47.835  11.979  23.432  0.00  0.00     0.100 A 
ATOM      6  C   UNL d   1     -47.543  13.259  22.821  0.00  0.00     0.009 A 
ATOM      7  C   UNL d   1     -47.033  11.863  23.567  0.00  0.00     0.025 A 
ATOM      8  C   UNL d   1     -46.738  13.128  22.963  0.00  0.00     0.035 A 
ATOM      9  C   UNL d   1     -46.481  12.424  23.339  0.00  0.00     0.009 A 
ATOM     10 BR   UNL d   1     -46.187  13.704  22.728  0.00  0.00    -0.049 Br
ENDROOT
BRANCH   1  11
ATOM     11  C   UNL d   1     -49.988  11.776  23.329  0.00  0.00     0.235 C 
ATOM     12  O   UNL d   1     -50.255  11.084  23.698  0.00  0.00    -0.642 OA
ATOM     13  O   UNL d   1     -50.565  12.264  22.980  0.00  0.00    -0.642 OA
ENDBRANCH   1  11
TORSDOF 1
ENDMDL
MODEL 5
REMARK VINA RESULT:      -5.4      1.855      2.294
REMARK  1 active torsions:
REMARK  status: ('A' for Active; 'I' for Inactive)
REMARK    1  A    between atoms: C_5  and  C_1 
ROOT
ATOM      1  C   UNL d   1     -48.694  13.299  21.883  0.00  0.00     0.164 A 
ATOM      2  O   UNL d   1     -48.268  14.074  21.986  0.00  0.00    -0.301 OA
ATOM      3  C   UNL d   1     -49.423  13.388  22.224  0.00  0.00     0.033 A 
ATOM      4  C   UNL d   1     -49.507  14.134  22.531  0.00  0.00     0.025 A 
ATOM      5  C   UNL d   1     -48.797  14.556  22.385  0.00  0.00     0.100 A 
ATOM      6  C   UNL d   1     -50.137  14.497  22.929  0.00  0.00     0.009 A 
ATOM      7  C   UNL d   1     -48.729  15.333  22.640  0.00  0.00     0.025 A 
ATOM      8  C   UNL d   1     -50.055  15.281  23.181  0.00  0.00     0.035 A 
ATOM      9  C   UNL d   1     -49.345  15.703  23.034  0.00  0.00     0.009 A 
ATOM     10 BR   UNL d   1     -50.686  15.646  23.580  0.00  0.00    -0.049 Br
ENDROOT
BRANCH   1  11
ATOM     11  C   UNL d   1     -48.445  12.600  21.524  0.00  0.00     0.235 C 
ATOM     12  O   UNL d   1     -48.124  12.603  20.759  0.00  0.00    -0.642 OA
ATOM     13  O   UNL d   1     -48.503  11.863  21.905  0.00  0.00    -0.642 OA
ENDBRANCH   1  11
TORSDOF 1
ENDMDL
MODEL 6
REMARK VINA RESULT:      -5.2      1.977      2.420
REMARK  1 active torsions:
REMARK  status: ('A' for Active; 'I' for Inactive)
REMARK    1  A    between atoms: C_5  and  C_1 
ROOT
ATOM      1  C   UNL d   1     -48.206  14.183  22.587  0.00  0.00     0.164 A 
ATOM      2  O   UNL d   1     -49.049  14.141  22.302  0.00  0.00    -0.301 OA
ATOM      3  C   UNL d   1     -48.074  13.513  23.022  0.00  0.00     0.033 A 
ATOM      4  C   UNL d   1     -48.740  13.051  23.045  0.00  0.00     0.025 A 
ATOM      5  C   UNL d   1     -49.339  13.437  22.603  0.00  0.00     0.100 A 
ATOM      6  C   UNL d   1     -48.891  12.322  23.410  0.00  0.00     0.009 A 
ATOM      7  C   UNL d   1     -50.079  13.087  22.533  0.00  0.00     0.025 A 
ATOM      8  C   UNL d   1     -49.641  11.981  23.332  0.00  0.00     0.035 A 
ATOM      9  C   UNL d   1     -50.240  12.367  22.890  0.00  0.00     0.009 A 
ATOM     10 BR   UNL d   1     -49.793  11.250  23.698  0.00  0.00    -0.049 Br
ENDROOT
BRANCH   1  11
ATOM     11  C   UNL d   1     -47.633  14.762  22.463  0.00  0.00     0.235 C 
ATOM     12  O   UNL d   1     -46.834  14.615  22.627  0.00  0.00    -0.642 OA
ATOM     13  O   UNL d   1     -47.824  15.517  22.169  0.00  0.00    -0.642 OA
ENDBRANCH   1  11
TORSDOF 1
ENDMDL
MODEL 7
REMARK VINA RESULT:      -5.1      1.946      2.318
REMARK  1 active torsions:
REMARK  status: ('A' for Active; 'I' for Inactive)
REMARK    1  A    between atoms: C_5  and  C_1 
ROOT
ATOM      1  C   UNL d   1     -48.564  12.241  23.109  0.00  0.00     0.164 A 
ATOM      2  O   UNL d   1     -48.218  13.004  23.409  0.00  0.00    -0.301 OA
ATOM      3  C   UNL d   1     -49.329  12.400  22.895  0.00  0.00     0.033 A 
ATOM      4  C   UNL d   1     -49.506  13.180  23.027  0.00  0.00     0.025 A 
ATOM      5  C   UNL d   1     -48.823  13.552  23.343  0.00  0.00     0.100 A 
ATOM      6  C   UNL d   1     -50.201  13.614  22.903  0.00  0.00     0.009 A 
ATOM      7  C   UNL d   1     -48.848  14.351  23.529  0.00  0.00     0.025 A 
ATOM      8  C   UNL d   1     -50.212  14.419  23.096  0.00  0.00     0.035 A 
ATOM      9  C   UNL d   1     -49.530  14.791  23.412  0.00  0.00     0.009 A 
ATOM     10 BR   UNL d   1     -50.909  14.855  22.972  0.00  0.00    -0.049 Br
ENDROOT
BRANCH   1  11
ATOM     11  C   UNL d   1     -48.221  11.494  23.040  0.00  0.00     0.235 C 
ATOM     12  O   UNL d   1     -48.166  11.114  22.305  0.00  0.00    -0.642 OA
ATOM     13  O   UNL d   1     -47.916  11.086  23.698  0.00  0.00    -0.642 OA
ENDBRANCH   1  11
TORSDOF 1
ENDMDL
MODEL 8
REMARK VINA RESULT:      -5.0      8.727     10.001
REMARK  1 active torsions:
REMARK  status: ('A' for Active; 'I' for Inactive)
REMARK    1  A    between atoms: C_5  and  C_1 
ROOT
ATOM      1  C   UNL d   1     -40.024  14.048  18.233  0.00  0.00     0.164 A 
ATOM      2  O   UNL d   1     -39.436  13.380  18.264  0.00  0.00    -0.301 OA
ATOM      3  C   UNL d   1     -39.885  14.450  17.544  0.00  0.00     0.033 A 
ATOM      4  C   UNL d   1     -39.273  14.110  17.134  0.00  0.00     0.025 A 
ATOM      5  C   UNL d   1     -38.998  13.453  17.576  0.00  0.00     0.100 A 
ATOM      6  C   UNL d   1     -38.921  14.307  16.410  0.00  0.00     0.009 A 
ATOM      7  C   UNL d   1     -38.374  13.004  17.286  0.00  0.00     0.025 A 
ATOM      8  C   UNL d   1     -38.294  13.845  16.129  0.00  0.00     0.035 A 
ATOM      9  C   UNL d   1     -38.018  13.188  16.571  0.00  0.00     0.009 A 
ATOM     10 BR   UNL d   1     -37.940  14.042  15.403  0.00  0.00    -0.049 Br
ENDROOT
BRANCH   1  11
ATOM     11  C   UNL d   1     -40.613  14.261  18.770  0.00  0.00     0.235 C 
ATOM     12  O   UNL d   1     -41.316  13.826  18.830  0.00  0.00    -0.642 OA
ATOM     13  O   UNL d   1     -40.533  14.919  19.275  0.00  0.00    -0.642 OA
ENDBRANCH   1  11
TORSDOF 1
ENDMDL
MODEL 9
REMARK VINA RESULT:      -4.9      7.433      8.253
REMARK  1 active torsions:
REMARK  status: ('A' for Active; 'I' for Inactive)
REMARK    1  A    between atoms: C_5  and  C_1 
ROOT
ATOM      1  C   UNL d   1     -40.722  15.401  20.062  0.00  0.00     0.164 A 
ATOM      2  O   UNL d   1     -40.515  14.597  19.739  0.00  0.00    -0.301 OA
ATOM      3  C   UNL d   1     -40.744  15.907  19.430  0.00  0.00     0.033 A 
ATOM      4  C   UNL d   1     -40.573  15.513  18.742  0.00  0.00     0.025 A 
ATOM      5  C   UNL d   1     -40.432  14.708  18.932  0.00  0.00     0.100 A 
ATOM      6  C   UNL d   1     -40.525  15.774  17.957  0.00  0.00     0.009 A 
ATOM      7  C   UNL d   1     -40.245  14.179  18.333  0.00  0.00     0.025 A 
ATOM      8  C   UNL d   1     -40.336  15.230  17.363  0.00  0.00     0.035 A 
ATOM      9  C   UNL d   1     -40.194  14.425  17.553  0.00  0.00     0.009 A 
ATOM     10 BR   UNL d   1     -40.287  15.491  16.575  0.00  0.00    -0.049 Br
ENDROOT
BRANCH   1  11
ATOM     11  C   UNL d   1     -40.872  15.639  20.837  0.00  0.00     0.235 C 
ATOM     12  O   UNL d   1     -40.281  15.606  21.417  0.00  0.00    -0.642 OA
ATOM     13  O   UNL d   1     -41.618  15.922  21.075  0.00  0.00    -0.642 OA
ENDBRANCH   1  11
TORSDOF 1
ENDMDL
