MODEL 1
REMARK VINA RESULT:      35.8      0.000      0.000
REMARK  4 active torsions:
REMARK  status: ('A' for Active; 'I' for Inactive)
REMARK    1  A    between atoms: C_20  and  C_4 
REMARK    2  A    between atoms: C_8  and  C_9 
REMARK       I    between atoms: C_9  and  N_18 
REMARK    3  A    between atoms: N_18  and  C_21 
REMARK    4  A    between atoms: C_21  and  C_20 
ROOT
ATOM      1  N   UNL d   1      13.380  13.208  -5.138  0.00  0.00    -0.208 NA
ATOM      2  C   UNL d   1      13.435  13.926  -4.715  0.00  0.00     0.085 A 
ATOM      3  C   UNL d   1      13.232  12.502  -4.733  0.00  0.00     0.279 A 
ATOM      4  C   UNL d   1      13.140  12.510  -3.905  0.00  0.00     0.059 A 
ATOM      5  C   UNL d   1      13.195  13.223  -3.490  0.00  0.00     0.006 A 
ATOM      6  C   UNL d   1      13.342  13.925  -3.895  0.00  0.00     0.018 A 
ATOM      7  C   UNL d   1      13.582  14.627  -5.129  0.00  0.00     0.018 A 
ATOM      8  O   UNL d   1      13.178  11.793  -5.147  0.00  0.00    -0.265 OA
ATOM      9  C   UNL d   1      13.637  15.336  -4.714  0.00  0.00     0.002 A 
ATOM     10  C   UNL d   1      13.398  14.642  -3.481  0.00  0.00     0.002 A 
ATOM     11  C   UNL d   1      13.544  15.344  -3.886  0.00  0.00     0.000 A 
ATOM     12  C   UNL d   1      13.673  14.611  -5.948  0.00  0.00     0.002 C 
ATOM     13  C   UNL d   1      13.784  16.037  -5.119  0.00  0.00     0.000 C 
ENDROOT
BRANCH   4  14
ATOM     14  C   UNL d   1      12.994  11.809  -3.508  0.00  0.00     0.026 C 
BRANCH  14  15
ATOM     15  C   UNL d   1      12.991  11.781  -2.689  0.00  0.00     0.102 C 
BRANCH  15  16
ATOM     16  N   UNL d   1      13.695  11.802  -2.258  0.00  0.00    -0.206 NA
ATOM     17  C   UNL d   1      13.680  11.855  -1.434  0.00  0.00     0.285 C 
ATOM     18  O   UNL d   1      12.964  11.886  -1.034  0.00  0.00    -0.265 OA
BRANCH  17  19
ATOM     19  C   UNL d   1      14.391  11.875  -1.011  0.00  0.00     0.087 A 
ATOM     20  S   UNL d   1      15.138  11.780  -1.325  0.00  0.00    -0.082 SA
ATOM     21  C   UNL d   1      15.685  11.838  -0.728  0.00  0.00     0.036 A 
ATOM     22  C   UNL d   1      15.272  11.972  -0.020  0.00  0.00     0.008 A 
ATOM     23  C   UNL d   1      14.467  11.995  -0.198  0.00  0.00     0.012 A 
ENDBRANCH  17  19
ENDBRANCH  15  16
ENDBRANCH  14  15
ENDBRANCH   4  14
TORSDOF 4
ENDMDL
