MODEL 1
REMARK VINA RESULT:      30.3      0.000      0.000
REMARK  5 active torsions:
REMARK  status: ('A' for Active; 'I' for Inactive)
REMARK    1  A    between atoms: N_7  and  C_1 
REMARK    2  A    between atoms: C_6  and  N_2 
REMARK    3  A    between atoms: C_11  and  C_6 
REMARK    4  A    between atoms: C_12  and  N_7 
REMARK    5  A    between atoms: C_13  and  C_12 
ROOT
ATOM      1  C   UNL d   1      58.745  49.690  51.235  0.00  0.00     0.735 A 
ATOM      2  N   UNL d   1      59.551  49.699  51.042  0.00  0.00    -0.138 N 
ATOM      3  N   UNL d   1      58.671  49.687  52.062  0.00  0.00    -0.059 NA
ATOM      4  C   UNL d   1      59.980  49.700  51.749  0.00  0.00     0.100 A 
ATOM      5  C   UNL d   1      59.431  49.693  52.377  0.00  0.00     0.116 A 
ATOM      6  C   UNL d   1      60.789  49.708  51.908  0.00  0.00     0.020 A 
ATOM      7  C   UNL d   1      59.708  49.692  53.157  0.00  0.00     0.021 A 
ATOM      8  C   UNL d   1      61.057  49.707  52.685  0.00  0.00     0.002 A 
ATOM      9  C   UNL d   1      60.517  49.700  53.315  0.00  0.00     0.002 A 
ENDROOT
BRANCH   1  10
ATOM     10  N   UNL d   1      58.118  49.686  50.698  0.00  0.00    -0.056 NA
BRANCH  10  11
ATOM     11  C   UNL d   1      57.442  49.240  50.846  0.00  0.00     0.163 C 
BRANCH  11  12
ATOM     12  C   UNL d   1      56.701  49.594  50.879  0.00  0.00     0.255 C 
ATOM     13  O   UNL d   1      56.262  49.705  50.191  0.00  0.00    -0.281 OA
ENDBRANCH  11  12
ENDBRANCH  10  11
ENDBRANCH   1  10
BRANCH   2  14
ATOM     14  C   UNL d   1      59.866  49.705  50.282  0.00  0.00     0.098 C 
BRANCH  14  15
ATOM     15  C   UNL d   1      60.566  49.286  50.121  0.00  0.00     0.018 C 
ATOM     16  C   UNL d   1      61.280  49.682  50.057  0.00  0.00     0.002 C 
ATOM     17  C   UNL d   1      60.537  48.465  50.026  0.00  0.00     0.002 C 
ENDBRANCH  14  15
ENDBRANCH   2  14
TORSDOF 5
ENDMDL
