MODEL 1
REMARK VINA RESULT:      45.6      0.000      0.000
REMARK  1 active torsions:
REMARK  status: ('A' for Active; 'I' for Inactive)
REMARK    1  A    between atoms: C_10  and  C_4 
ROOT
ATOM      1  C   UNL d   1      59.102  49.679  50.128  0.00  0.00     0.111 A 
ATOM      2  C   UNL d   1      57.660  49.688  50.133  0.00  0.00     0.062 A 
ATOM      3  C   UNL d   1      59.107  49.679  49.321  0.00  0.00     0.213 A 
ATOM      4  C   UNL d   1      58.364  49.684  50.557  0.00  0.00     0.018 A 
ATOM      5  C   UNL d   1      57.673  49.689  49.282  0.00  0.00     0.105 A 
ATOM      6  O   UNL d   1      58.359  49.685  48.890  0.00  0.00    -0.287 OA
ATOM      7  C   UNL d   1      59.802  49.674  50.549  0.00  0.00     0.105 C 
ATOM      8  C   UNL d   1      56.931  49.693  50.516  0.00  0.00     0.198 A 
ATOM      9  N   UNL d   1      60.516  49.670  50.978  0.00  0.00    -0.191 NA
ATOM     10  N   UNL d   1      59.833  49.675  48.880  0.00  0.00    -0.120 N 
ATOM     11  O   UNL d   1      56.960  49.692  51.338  0.00  0.00    -0.286 OA
ATOM     12  C   UNL d   1      56.960  49.694  48.852  0.00  0.00     0.025 A 
ATOM     13  C   UNL d   1      56.231  49.697  50.095  0.00  0.00     0.042 A 
ATOM     14  C   UNL d   1      56.223  49.698  49.269  0.00  0.00     0.005 A 
ENDROOT
BRANCH   4  15
ATOM     15  C   UNL d   1      58.336  49.683  51.369  0.00  0.00     0.001 A 
ATOM     16  C   UNL d   1      59.031  49.661  51.823  0.00  0.00     0.000 A 
ATOM     17  C   UNL d   1      58.991  49.661  52.647  0.00  0.00     0.000 A 
ATOM     18  C   UNL d   1      58.268  49.683  53.036  0.00  0.00     0.000 A 
ATOM     19  C   UNL d   1      57.572  49.705  52.582  0.00  0.00     0.000 A 
ATOM     20  C   UNL d   1      57.613  49.705  51.758  0.00  0.00     0.000 A 
ENDBRANCH   4  15
TORSDOF 1
ENDMDL
