MODEL 1
REMARK VINA RESULT:     159.9      0.000      0.000
REMARK  4 active torsions:
REMARK  status: ('A' for Active; 'I' for Inactive)
REMARK    1  A    between atoms: N_2  and  S_1 
REMARK    2  A    between atoms: C_6  and  S_1 
REMARK    3  A    between atoms: C_3  and  C_11 
REMARK       I    between atoms: N_4  and  C_3 
REMARK    4  A    between atoms: C_17  and  N_5 
ROOT
ATOM      1  C   UNL d   1     -55.273-100.511 -39.828  0.00  0.00     0.104 A 
ATOM      2  C   UNL d   1     -55.073 -99.964 -41.400  0.00  0.00     0.057 A 
ATOM      3  C   UNL d   1     -54.843-100.972 -40.395  0.00  0.00     0.013 A 
ATOM      4  C   UNL d   1     -55.579 -99.801 -40.082  0.00  0.00     0.013 A 
ATOM      5  C   UNL d   1     -54.742-100.710 -41.164  0.00  0.00     0.005 A 
ATOM      6  C   UNL d   1     -55.476 -99.538 -40.858  0.00  0.00     0.005 A 
ENDROOT
BRANCH   2   7
ATOM      7  C   UNL d   1     -54.968 -99.723 -42.147  0.00  0.00     0.265 C 
ATOM      8  N   UNL d   1     -55.108-100.262 -42.731  0.00  0.00    -0.269 N 
ATOM      9  C   UNL d   1     -55.001-100.017 -43.500  0.00  0.00     0.102 A 
ATOM     10  C   UNL d   1     -55.353-101.041 -42.585  0.00  0.00     0.102 A 
ATOM     11  C   UNL d   1     -55.132-100.532 -44.136  0.00  0.00     0.100 A 
ATOM     12  N   UNL d   1     -55.372-101.293 -43.977  0.00  0.00    -0.301 N 
ATOM     13  C   UNL d   1     -55.486-101.562 -43.224  0.00  0.00     0.100 A 
ATOM     14  O   UNL d   1     -54.724 -98.951 -42.323  0.00  0.00    -0.267 OA
BRANCH  12  15
ATOM     15  C   UNL d   1     -55.501-101.803 -44.609  0.00  0.00     0.064 A 
ATOM     16  C   UNL d   1     -56.225-102.165 -44.743  0.00  0.00     0.018 A 
ATOM     17  C   UNL d   1     -56.351-102.661 -45.358  0.00  0.00     0.002 A 
ATOM     18  C   UNL d   1     -55.712-102.815 -45.887  0.00  0.00     0.000 A 
ATOM     19  C   UNL d   1     -55.016-102.461 -45.751  0.00  0.00     0.002 A 
ATOM     20  C   UNL d   1     -54.887-101.952 -45.119  0.00  0.00     0.018 A 
ENDBRANCH  12  15
ENDBRANCH   2   7
BRANCH   1  21
ATOM     21  S   UNL d   1     -55.370-100.772 -39.073  0.00  0.00     0.271 S 
ATOM     22  O   UNL d   1     -55.273-101.535 -39.317  0.00  0.00    -0.200 OA
ATOM     23  O   UNL d   1     -55.473 -99.965 -38.808  0.00  0.00    -0.200 OA
BRANCH  21  24
ATOM     24  N   UNL d   1     -55.470-101.043 -38.292  0.00  0.00    -0.229 N 
ATOM     25  C   UNL d   1     -55.850-101.741 -38.174  0.00  0.00     0.092 A 
ATOM     26  C   UNL d   1     -55.956-102.022 -37.400  0.00  0.00     0.018 A 
ATOM     27  C   UNL d   1     -56.342-102.736 -37.224  0.00  0.00     0.002 C 
ATOM     28  C   UNL d   1     -55.667-101.576 -36.755  0.00  0.00     0.003 A 
ATOM     29  C   UNL d   1     -55.271-100.848 -36.883  0.00  0.00     0.018 A 
ATOM     30  C   UNL d   1     -55.178-100.592 -37.642  0.00  0.00     0.092 A 
ATOM     31  C   UNL d   1     -54.976-100.390 -36.254  0.00  0.00     0.002 C 
ENDBRANCH  21  24
ENDBRANCH   1  21
TORSDOF 4
ENDMDL
