MODEL 1
REMARK VINA RESULT:      -2.8      0.000      0.000
REMARK  7 active torsions:
REMARK  status: ('A' for Active; 'I' for Inactive)
REMARK    1  A    between atoms: C_3  and  C_1 
REMARK    2  A    between atoms: C_4  and  C_1 
REMARK    3  A    between atoms: N_2  and  C_6 
REMARK    4  A    between atoms: C_6  and  C_13 
REMARK    5  A    between atoms: O_12  and  C_14 
REMARK    6  A    between atoms: C_16  and  O_12 
REMARK    7  A    between atoms: C_13  and  C_16 
ROOT
ATOM      1  C   UNL d   1      32.394  21.977 -21.432  0.00  0.00     0.039 A 
ATOM      2  C   UNL d   1      32.141  21.216 -21.218  0.00  0.00     0.005 A 
ATOM      3  C   UNL d   1      32.927  22.072 -22.048  0.00  0.00     0.005 A 
ATOM      4  C   UNL d   1      32.955  20.665 -22.239  0.00  0.00     0.100 A 
ATOM      5  C   UNL d   1      32.423  20.570 -21.623  0.00  0.00     0.025 A 
ATOM      6  C   UNL d   1      33.209  21.406 -22.455  0.00  0.00     0.025 A 
ENDROOT
BRANCH   4   7
ATOM      7  O   UNL d   1      33.237  19.990 -22.647  0.00  0.00    -0.302 OA
BRANCH   7   8
ATOM      8  C   UNL d   1      32.770  19.294 -22.713  0.00  0.00     0.166 C 
BRANCH   8   9
ATOM      9  C   UNL d   1      32.929  18.739 -23.314  0.00  0.00     0.238 C 
ATOM     10  O   UNL d   1      33.098  18.995 -24.080  0.00  0.00    -0.283 OA
BRANCH   9  11
ATOM     11  C   UNL d   1      32.917  17.929 -23.140  0.00  0.00     0.125 C 
BRANCH  11  12
ATOM     12  N   UNL d   1      32.446  17.413 -23.589  0.00  0.00    -0.296 N 
ATOM     13  C   UNL d   1      31.624  17.458 -23.539  0.00  0.00     0.107 A 
ATOM     14  C   UNL d   1      31.164  16.939 -23.991  0.00  0.00     0.142 A 
ATOM     15  O   UNL d   1      31.524  16.378 -24.491  0.00  0.00    -0.300 OA
ATOM     16  C   UNL d   1      32.348  16.344 -24.531  0.00  0.00     0.142 A 
ATOM     17  C   UNL d   1      32.814  16.855 -24.086  0.00  0.00     0.107 A 
ENDBRANCH  11  12
ENDBRANCH   9  11
ENDBRANCH   8   9
ENDBRANCH   7   8
ENDBRANCH   4   7
BRANCH   1  18
ATOM     18  C   UNL d   1      32.112  22.635 -21.025  0.00  0.00     0.196 C 
ATOM     19  O   UNL d   1      31.548  23.125 -21.373  0.00  0.00    -0.287 OA
BRANCH  18  20
ATOM     20  C   UNL d   1      32.394  22.801 -20.270  0.00  0.00     0.039 A 
ATOM     21  C   UNL d   1      32.345  22.228 -19.676  0.00  0.00     0.004 A 
ATOM     22  C   UNL d   1      32.625  22.389 -18.922  0.00  0.00     0.011 A 
ATOM     23  C   UNL d   1      32.959  23.130 -18.756  0.00  0.00     0.058 A 
ATOM     24  C   UNL d   1      33.008  23.702 -19.350  0.00  0.00     0.011 A 
ATOM     25 CL   UNL d   1      33.241  23.295 -18.001  0.00  0.00    -0.082 Cl
ATOM     26  C   UNL d   1      32.724  23.534 -20.106  0.00  0.00     0.004 A 
ENDBRANCH  18  20
ENDBRANCH   1  18
TORSDOF 7
ENDMDL
MODEL 2
REMARK VINA RESULT:      -2.1      1.567      2.058
REMARK  7 active torsions:
REMARK  status: ('A' for Active; 'I' for Inactive)
REMARK    1  A    between atoms: C_3  and  C_1 
REMARK    2  A    between atoms: C_4  and  C_1 
REMARK    3  A    between atoms: N_2  and  C_6 
REMARK    4  A    between atoms: C_6  and  C_13 
REMARK    5  A    between atoms: O_12  and  C_14 
REMARK    6  A    between atoms: C_16  and  O_12 
REMARK    7  A    between atoms: C_13  and  C_16 
ROOT
ATOM      1  C   UNL d   1      33.037  20.092 -21.776  0.00  0.00     0.039 A 
ATOM      2  C   UNL d   1      33.210  19.282 -21.720  0.00  0.00     0.005 A 
ATOM      3  C   UNL d   1      32.892  20.428 -22.510  0.00  0.00     0.005 A 
ATOM      4  C   UNL d   1      33.088  19.164 -23.128  0.00  0.00     0.100 A 
ATOM      5  C   UNL d   1      33.233  18.828 -22.394  0.00  0.00     0.025 A 
ATOM      6  C   UNL d   1      32.918  19.956 -23.192  0.00  0.00     0.025 A 
ENDROOT
BRANCH   4   7
ATOM      7  O   UNL d   1      33.116  18.684 -23.813  0.00  0.00    -0.302 OA
BRANCH   7   8
ATOM      8  C   UNL d   1      32.419  18.507 -24.249  0.00  0.00     0.166 C 
BRANCH   8   9
ATOM      9  C   UNL d   1      32.396  17.839 -24.747  0.00  0.00     0.238 C 
ATOM     10  O   UNL d   1      33.085  17.410 -24.896  0.00  0.00    -0.283 OA
BRANCH   9  11
ATOM     11  C   UNL d   1      31.679  17.607 -25.092  0.00  0.00     0.125 C 
BRANCH  11  12
ATOM     12  N   UNL d   1      31.318  16.895 -24.863  0.00  0.00    -0.296 N 
ATOM     13  C   UNL d   1      30.629  16.911 -24.410  0.00  0.00     0.107 A 
ATOM     14  C   UNL d   1      30.277  16.195 -24.187  0.00  0.00     0.142 A 
ATOM     15  O   UNL d   1      30.613  15.468 -24.415  0.00  0.00    -0.300 OA
ATOM     16  C   UNL d   1      31.304  15.466 -24.869  0.00  0.00     0.142 A 
ATOM     17  C   UNL d   1      31.660  16.172 -25.095  0.00  0.00     0.107 A 
ENDBRANCH  11  12
ENDBRANCH   9  11
ENDBRANCH   8   9
ENDBRANCH   7   8
ENDBRANCH   4   7
BRANCH   1  18
ATOM     18  C   UNL d   1      33.011  20.556 -21.097  0.00  0.00     0.196 C 
ATOM     19  O   UNL d   1      33.240  20.240 -20.372  0.00  0.00    -0.287 OA
BRANCH  18  20
ATOM     20  C   UNL d   1      32.757  21.337 -21.145  0.00  0.00     0.039 A 
ATOM     21  C   UNL d   1      32.015  21.548 -20.846  0.00  0.00     0.004 A 
ATOM     22  C   UNL d   1      31.757  22.326 -20.892  0.00  0.00     0.011 A 
ATOM     23  C   UNL d   1      32.242  22.901 -21.240  0.00  0.00     0.058 A 
ATOM     24  C   UNL d   1      32.983  22.690 -21.539  0.00  0.00     0.011 A 
ATOM     25 CL   UNL d   1      31.986  23.682 -21.288  0.00  0.00    -0.082 Cl
ATOM     26  C   UNL d   1      33.236  21.906 -21.490  0.00  0.00     0.004 A 
ENDBRANCH  18  20
ENDBRANCH   1  18
TORSDOF 7
ENDMDL
