MODEL 1
REMARK VINA RESULT:      11.1      0.000      0.000
REMARK  4 active torsions:
REMARK  status: ('A' for Active; 'I' for Inactive)
REMARK    1  A    between atoms: N_6  and  C_1 
REMARK    2  A    between atoms: C_7  and  N_2 
REMARK    3  A    between atoms: C_11  and  N_6 
REMARK    4  A    between atoms: C_14  and  C_11 
ROOT
ATOM      1  C   UNL d   1     -51.416  24.662  33.372  0.00  0.00     0.735 A 
ATOM      2  N   UNL d   1     -50.608  24.829  33.341  0.00  0.00    -0.139 N 
ATOM      3  N   UNL d   1     -51.823  25.407  33.389  0.00  0.00    -0.059 NA
ATOM      4  C   UNL d   1     -50.501  25.627  33.338  0.00  0.00     0.100 A 
ATOM      5  C   UNL d   1     -51.267  25.991  33.368  0.00  0.00     0.116 A 
ATOM      6  C   UNL d   1     -49.823  26.095  33.313  0.00  0.00     0.020 A 
ATOM      7  C   UNL d   1     -51.267  26.815  33.370  0.00  0.00     0.021 A 
ATOM      8  C   UNL d   1     -49.899  26.893  33.317  0.00  0.00     0.002 A 
ATOM      9  C   UNL d   1     -50.644  27.247  33.347  0.00  0.00     0.002 A 
ENDROOT
BRANCH   1  10
ATOM     10  N   UNL d   1     -51.797  23.930  33.385  0.00  0.00    -0.056 NA
BRANCH  10  11
ATOM     11  C   UNL d   1     -52.575  23.902  33.577  0.00  0.00     0.163 C 
BRANCH  11  12
ATOM     12  C   UNL d   1     -53.021  23.248  33.342  0.00  0.00     0.255 C 
ATOM     13  O   UNL d   1     -53.856  23.311  33.306  0.00  0.00    -0.281 OA
ENDBRANCH  11  12
ENDBRANCH  10  11
ENDBRANCH   1  10
BRANCH   2  14
ATOM     14  C   UNL d   1     -50.167  24.163  33.323  0.00  0.00     0.082 C 
ATOM     15  C   UNL d   1     -49.340  24.226  33.316  0.00  0.00     0.020 C 
ATOM     16  C   UNL d   1     -50.544  23.429  33.312  0.00  0.00     0.020 C 
ENDBRANCH   2  14
TORSDOF 4
ENDMDL
MODEL 2
REMARK VINA RESULT:      11.7      1.602      3.014
REMARK  4 active torsions:
REMARK  status: ('A' for Active; 'I' for Inactive)
REMARK    1  A    between atoms: N_6  and  C_1 
REMARK    2  A    between atoms: C_7  and  N_2 
REMARK    3  A    between atoms: C_11  and  N_6 
REMARK    4  A    between atoms: C_14  and  C_11 
ROOT
ATOM      1  C   UNL d   1     -51.150  25.335  33.308  0.00  0.00     0.735 A 
ATOM      2  N   UNL d   1     -51.072  24.513  33.313  0.00  0.00    -0.139 N 
ATOM      3  N   UNL d   1     -51.982  25.504  33.306  0.00  0.00    -0.059 NA
ATOM      4  C   UNL d   1     -51.802  24.176  33.314  0.00  0.00     0.100 A 
ATOM      5  C   UNL d   1     -52.377  24.801  33.309  0.00  0.00     0.116 A 
ATOM      6  C   UNL d   1     -52.049  23.390  33.319  0.00  0.00     0.020 A 
ATOM      7  C   UNL d   1     -53.164  24.559  33.309  0.00  0.00     0.021 A 
ATOM      8  C   UNL d   1     -52.835  23.228  33.318  0.00  0.00     0.002 A 
ATOM      9  C   UNL d   1     -53.393  23.835  33.313  0.00  0.00     0.002 A 
ENDROOT
BRANCH   1  10
ATOM     10  N   UNL d   1     -50.563  25.915  33.306  0.00  0.00    -0.056 NA
BRANCH  10  11
ATOM     11  C   UNL d   1     -50.760  26.667  33.505  0.00  0.00     0.163 C 
BRANCH  11  12
ATOM     12  C   UNL d   1     -50.171  27.246  33.509  0.00  0.00     0.255 C 
ATOM     13  O   UNL d   1     -50.371  28.036  33.314  0.00  0.00    -0.281 OA
ENDBRANCH  11  12
ENDBRANCH  10  11
ENDBRANCH   1  10
BRANCH   2  14
ATOM     14  C   UNL d   1     -50.305  24.288  33.316  0.00  0.00     0.082 C 
ATOM     15  C   UNL d   1     -49.713  24.868  33.307  0.00  0.00     0.020 C 
ATOM     16  C   UNL d   1     -50.121  23.483  33.329  0.00  0.00     0.020 C 
ENDBRANCH   2  14
TORSDOF 4
ENDMDL
