MODEL 1
REMARK VINA RESULT:      -8.0      0.000      0.000
REMARK  4 active torsions:
REMARK  status: ('A' for Active; 'I' for Inactive)
REMARK    1  A    between atoms: C_2  and  S_1 
REMARK    2  A    between atoms: N_3  and  S_1 
REMARK    3  A    between atoms: C_12  and  N_3 
REMARK    4  A    between atoms: N_4  and  C_8 
ROOT
ATOM      1  C   UNL d   1      50.925  33.937  52.743  0.00  0.00     0.064 A 
ATOM      2  C   UNL d   1      52.328  33.102  52.970  0.00  0.00     0.094 A 
ATOM      3  C   UNL d   1      50.916  33.232  53.172  0.00  0.00     0.019 A 
ATOM      4  C   UNL d   1      51.632  34.225  52.429  0.00  0.00     0.019 A 
ATOM      5  C   UNL d   1      51.626  32.814  53.283  0.00  0.00     0.021 A 
ATOM      6  C   UNL d   1      52.328  33.808  52.543  0.00  0.00     0.021 A 
ENDROOT
BRANCH   2   7
ATOM      7  N   UNL d   1      53.017  32.686  53.084  0.00  0.00    -0.158 NA
BRANCH   7   8
ATOM      8  S   UNL d   1      53.522  32.884  53.707  0.00  0.00     0.291 S 
ATOM      9  O   UNL d   1      53.136  32.344  54.191  0.00  0.00    -0.198 OA
ATOM     10  O   UNL d   1      53.906  33.423  53.224  0.00  0.00    -0.198 OA
BRANCH   8  11
ATOM     11  C   UNL d   1      54.020  33.081  54.322  0.00  0.00     0.135 A 
ATOM     12  S   UNL d   1      54.719  33.494  54.249  0.00  0.00    -0.073 SA
ATOM     13  C   UNL d   1      55.050  33.571  55.014  0.00  0.00     0.036 A 
ATOM     14  C   UNL d   1      54.552  33.209  55.521  0.00  0.00     0.008 A 
ATOM     15  C   UNL d   1      53.918  32.902  55.134  0.00  0.00     0.020 A 
ENDBRANCH   8  11
ENDBRANCH   7   8
ENDBRANCH   2   7
BRANCH   1  16
ATOM     16  N   UNL d   1      50.223  34.354  52.630  0.00  0.00    -0.304 N 
ATOM     17  C   UNL d   1      49.826  34.298  51.909  0.00  0.00     0.080 A 
ATOM     18  C   UNL d   1      49.118  34.722  51.799  0.00  0.00     0.019 A 
ATOM     19  C   UNL d   1      48.815  35.196  52.410  0.00  0.00     0.003 A 
ATOM     20  C   UNL d   1      49.221  35.242  53.123  0.00  0.00     0.019 A 
ATOM     21  C   UNL d   1      49.931  34.819  53.235  0.00  0.00     0.080 A 
ENDBRANCH   1  16
TORSDOF 4
ENDMDL
MODEL 2
REMARK VINA RESULT:      -7.7      2.514      3.436
REMARK  4 active torsions:
REMARK  status: ('A' for Active; 'I' for Inactive)
REMARK    1  A    between atoms: C_2  and  S_1 
REMARK    2  A    between atoms: N_3  and  S_1 
REMARK    3  A    between atoms: C_12  and  N_3 
REMARK    4  A    between atoms: N_4  and  C_8 
ROOT
ATOM      1  C   UNL d   1      53.003  33.004  53.529  0.00  0.00     0.064 A 
ATOM      2  C   UNL d   1      53.050  31.411  53.111  0.00  0.00     0.094 A 
ATOM      3  C   UNL d   1      52.307  32.617  53.314  0.00  0.00     0.019 A 
ATOM      4  C   UNL d   1      53.721  32.597  53.535  0.00  0.00     0.019 A 
ATOM      5  C   UNL d   1      52.335  31.813  53.104  0.00  0.00     0.021 A 
ATOM      6  C   UNL d   1      53.742  31.805  53.327  0.00  0.00     0.021 A 
ENDROOT
BRANCH   2   7
ATOM      7  N   UNL d   1      53.068  30.624  52.903  0.00  0.00    -0.158 NA
BRANCH   7   8
ATOM      8  S   UNL d   1      53.162  30.045  53.484  0.00  0.00     0.291 S 
ATOM      9  O   UNL d   1      53.978  30.142  53.448  0.00  0.00    -0.198 OA
ATOM     10  O   UNL d   1      52.350  29.949  53.519  0.00  0.00    -0.198 OA
BRANCH   8  11
ATOM     11  C   UNL d   1      53.255  29.473  54.058  0.00  0.00     0.135 A 
ATOM     12  S   UNL d   1      53.708  28.799  53.982  0.00  0.00    -0.073 SA
ATOM     13  C   UNL d   1      53.646  28.370  54.699  0.00  0.00     0.036 A 
ATOM     14  C   UNL d   1      53.168  28.788  55.180  0.00  0.00     0.008 A 
ATOM     15  C   UNL d   1      52.913  29.461  54.822  0.00  0.00     0.020 A 
ENDBRANCH   8  11
ENDBRANCH   7   8
ENDBRANCH   2   7
BRANCH   1  16
ATOM     16  N   UNL d   1      52.979  33.801  53.738  0.00  0.00    -0.304 N 
ATOM     17  C   UNL d   1      52.683  34.355  53.203  0.00  0.00     0.080 A 
ATOM     18  C   UNL d   1      52.661  35.159  53.419  0.00  0.00     0.019 A 
ATOM     19  C   UNL d   1      52.934  35.400  54.165  0.00  0.00     0.003 A 
ATOM     20  C   UNL d   1      53.226  34.837  54.688  0.00  0.00     0.019 A 
ATOM     21  C   UNL d   1      53.250  34.031  54.474  0.00  0.00     0.080 A 
ENDBRANCH   1  16
TORSDOF 4
ENDMDL
MODEL 3
REMARK VINA RESULT:      -7.5      1.426      1.785
REMARK  4 active torsions:
REMARK  status: ('A' for Active; 'I' for Inactive)
REMARK    1  A    between atoms: C_2  and  S_1 
REMARK    2  A    between atoms: N_3  and  S_1 
REMARK    3  A    between atoms: C_12  and  N_3 
REMARK    4  A    between atoms: N_4  and  C_8 
ROOT
ATOM      1  C   UNL d   1      50.646  34.190  52.617  0.00  0.00     0.064 A 
ATOM      2  C   UNL d   1      52.113  33.553  53.017  0.00  0.00     0.094 A 
ATOM      3  C   UNL d   1      51.291  34.303  52.115  0.00  0.00     0.019 A 
ATOM      4  C   UNL d   1      50.733  33.760  53.317  0.00  0.00     0.019 A 
ATOM      5  C   UNL d   1      52.030  33.980  52.320  0.00  0.00     0.021 A 
ATOM      6  C   UNL d   1      51.463  33.445  53.513  0.00  0.00     0.021 A 
ENDROOT
BRANCH   2   7
ATOM      7  N   UNL d   1      52.839  33.241  53.209  0.00  0.00    -0.158 NA
BRANCH   7   8
ATOM      8  S   UNL d   1      52.945  32.424  53.235  0.00  0.00     0.291 S 
ATOM      9  O   UNL d   1      52.913  32.446  54.056  0.00  0.00    -0.198 OA
ATOM     10  O   UNL d   1      52.977  32.402  52.417  0.00  0.00    -0.198 OA
BRANCH   8  11
ATOM     11  C   UNL d   1      53.049  31.615  53.261  0.00  0.00     0.135 A 
ATOM     12  S   UNL d   1      53.606  31.225  53.711  0.00  0.00    -0.073 SA
ATOM     13  C   UNL d   1      53.517  30.405  53.570  0.00  0.00     0.036 A 
ATOM     14  C   UNL d   1      52.921  30.320  53.048  0.00  0.00     0.008 A 
ATOM     15  C   UNL d   1      52.615  31.034  52.841  0.00  0.00     0.020 A 
ENDBRANCH   8  11
ENDBRANCH   7   8
ENDBRANCH   2   7
BRANCH   1  16
ATOM     16  N   UNL d   1      49.913  34.508  52.417  0.00  0.00    -0.304 N 
ATOM     17  C   UNL d   1      49.572  34.323  51.689  0.00  0.00     0.080 A 
ATOM     18  C   UNL d   1      48.831  34.647  51.491  0.00  0.00     0.019 A 
ATOM     19  C   UNL d   1      48.440  35.151  52.021  0.00  0.00     0.003 A 
ATOM     20  C   UNL d   1      48.791  35.328  52.743  0.00  0.00     0.019 A 
ATOM     21  C   UNL d   1      49.534  35.005  52.944  0.00  0.00     0.080 A 
ENDBRANCH   1  16
TORSDOF 4
ENDMDL
MODEL 4
REMARK VINA RESULT:      -6.9      2.516      4.410
REMARK  4 active torsions:
REMARK  status: ('A' for Active; 'I' for Inactive)
REMARK    1  A    between atoms: C_2  and  S_1 
REMARK    2  A    between atoms: N_3  and  S_1 
REMARK    3  A    between atoms: C_12  and  N_3 
REMARK    4  A    between atoms: N_4  and  C_8 
ROOT
ATOM      1  C   UNL d   1      53.269  30.669  53.759  0.00  0.00     0.064 A 
ATOM      2  C   UNL d   1      53.195  32.130  52.999  0.00  0.00     0.094 A 
ATOM      3  C   UNL d   1      52.612  30.856  53.296  0.00  0.00     0.019 A 
ATOM      4  C   UNL d   1      53.888  31.210  53.842  0.00  0.00     0.019 A 
ATOM      5  C   UNL d   1      52.578  31.595  52.914  0.00  0.00     0.021 A 
ATOM      6  C   UNL d   1      53.848  31.935  53.464  0.00  0.00     0.021 A 
ENDROOT
BRANCH   2   7
ATOM      7  N   UNL d   1      53.153  32.850  52.622  0.00  0.00    -0.158 NA
BRANCH   7   8
ATOM      8  S   UNL d   1      52.962  33.530  53.048  0.00  0.00     0.291 S 
ATOM      9  O   UNL d   1      52.173  33.442  52.835  0.00  0.00    -0.198 OA
ATOM     10  O   UNL d   1      53.749  33.617  53.260  0.00  0.00    -0.198 OA
BRANCH   8  11
ATOM     11  C   UNL d   1      52.774  34.203  53.470  0.00  0.00     0.135 A 
ATOM     12  S   UNL d   1      52.040  34.555  53.491  0.00  0.00    -0.073 SA
ATOM     13  C   UNL d   1      52.094  35.227  53.988  0.00  0.00     0.036 A 
ATOM     14  C   UNL d   1      52.846  35.262  54.250  0.00  0.00     0.008 A 
ATOM     15  C   UNL d   1      53.284  34.656  53.955  0.00  0.00     0.020 A 
ENDBRANCH   8  11
ENDBRANCH   7   8
ENDBRANCH   2   7
BRANCH   1  16
ATOM     16  N   UNL d   1      53.306  29.939  54.139  0.00  0.00    -0.304 N 
ATOM     17  C   UNL d   1      53.123  29.886  54.941  0.00  0.00     0.080 A 
ATOM     18  C   UNL d   1      53.162  29.146  55.321  0.00  0.00     0.019 A 
ATOM     19  C   UNL d   1      53.382  28.468  54.895  0.00  0.00     0.003 A 
ATOM     20  C   UNL d   1      53.561  28.536  54.095  0.00  0.00     0.019 A 
ATOM     21  C   UNL d   1      53.523  29.276  53.713  0.00  0.00     0.080 A 
ENDBRANCH   1  16
TORSDOF 4
ENDMDL
