MODEL 1
REMARK VINA RESULT:      64.9      0.000      0.000
REMARK  5 active torsions:
REMARK  status: ('A' for Active; 'I' for Inactive)
REMARK    1  A    between atoms: C_2  and  S_1 
REMARK    2  A    between atoms: N_4  and  S_1 
REMARK    3  A    between atoms: C_15  and  N_4 
REMARK    4  A    between atoms: N_7  and  C_6 
REMARK    5  A    between atoms: C_12  and  C_13 
ROOT
ATOM      1  C   UNL d   1     -54.893-101.809 -41.411  0.00  0.00     0.021 A 
ATOM      2  C   UNL d   1     -54.770-100.951 -42.547  0.00  0.00     0.094 A 
ATOM      3  C   UNL d   1     -54.835-101.051 -41.730  0.00  0.00     0.021 A 
ATOM      4  C   UNL d   1     -54.887-102.468 -41.908  0.00  0.00     0.002 A 
ATOM      5  C   UNL d   1     -54.823-102.366 -42.722  0.00  0.00     0.002 A 
ATOM      6  C   UNL d   1     -54.764-101.608 -43.041  0.00  0.00     0.020 A 
ENDROOT
BRANCH   1   7
ATOM      7  C   UNL d   1     -54.957-101.910 -40.594  0.00  0.00     0.103 A 
ATOM      8  N   UNL d   1     -54.872-102.661 -40.263  0.00  0.00    -0.147 NA
ATOM      9  N   UNL d   1     -54.936-102.762 -39.445  0.00  0.00    -0.130 NA
ATOM     10  C   UNL d   1     -55.085-102.112 -38.960  0.00  0.00     0.170 A 
ATOM     11  C   UNL d   1     -55.170-101.361 -39.292  0.00  0.00     0.041 A 
ATOM     12  C   UNL d   1     -55.106-101.260 -40.108  0.00  0.00     0.024 A 
BRANCH  10  13
ATOM     13  N   UNL d   1     -55.150-102.208 -38.151  0.00  0.00    -0.284 N 
ATOM     14  C   UNL d   1     -54.711-101.731 -37.640  0.00  0.00     0.108 A 
ATOM     15  C   UNL d   1     -54.775-101.827 -36.830  0.00  0.00     0.142 A 
ATOM     16  O   UNL d   1     -55.281-102.403 -36.525  0.00  0.00    -0.300 OA
ATOM     17  C   UNL d   1     -55.719-102.880 -37.036  0.00  0.00     0.142 A 
ATOM     18  C   UNL d   1     -55.652-102.780 -37.852  0.00  0.00     0.108 A 
ENDBRANCH  10  13
ENDBRANCH   1   7
BRANCH   2  19
ATOM     19  N   UNL d   1     -54.712-100.193 -42.866  0.00  0.00    -0.158 NA
BRANCH  19  20
ATOM     20  S   UNL d   1     -55.303 -99.907 -43.361  0.00  0.00     0.285 S 
ATOM     21  O   UNL d   1     -55.714-100.621 -43.286  0.00  0.00    -0.198 OA
ATOM     22  O   UNL d   1     -54.887 -99.188 -43.435  0.00  0.00    -0.198 OA
BRANCH  20  23
ATOM     23  C   UNL d   1     -55.901 -99.627 -43.859  0.00  0.00     0.106 A 
ATOM     24  C   UNL d   1     -56.674 -99.581 -43.599  0.00  0.00     0.025 A 
ATOM     25  C   UNL d   1     -57.270 -99.302 -44.092  0.00  0.00     0.069 A 
ATOM     26 CL   UNL d   1     -58.052 -99.255 -43.830  0.00  0.00    -0.082 Cl
ATOM     27  C   UNL d   1     -57.083 -99.066 -44.860  0.00  0.00     0.068 A 
ATOM     28  C   UNL d   1     -56.302 -99.111 -45.127  0.00  0.00     0.013 A 
ATOM     29 CL   UNL d   1     -57.677 -98.781 -45.374  0.00  0.00    -0.082 Cl
ATOM     30  C   UNL d   1     -55.714 -99.391 -44.627  0.00  0.00     0.014 A 
ENDBRANCH  20  23
ENDBRANCH  19  20
ENDBRANCH   2  19
TORSDOF 5
ENDMDL
