MODEL 1
REMARK VINA RESULT:      11.1      0.000      0.000
REMARK  7 active torsions:
REMARK  status: ('A' for Active; 'I' for Inactive)
REMARK    1  A    between atoms: C_2  and  S_1 
REMARK    2  A    between atoms: N_3  and  S_1 
REMARK    3  A    between atoms: C_15  and  N_3 
REMARK    4  A    between atoms: C_6  and  C_16 
REMARK       I    between atoms: N_7  and  C_6 
REMARK    5  A    between atoms: C_8  and  N_7 
REMARK    6  A    between atoms: C_17  and  C_15 
REMARK    7  A    between atoms: C_16  and  C_17 
ROOT
ATOM      1  N   UNL d   1      45.696 -15.416  44.429  0.00  0.00    -0.228 N 
ATOM      2  C   UNL d   1      44.986 -15.617  44.808  0.00  0.00     0.111 C 
ENDROOT
BRANCH   1   3
ATOM      3  S   UNL d   1      45.986 -14.644  44.483  0.00  0.00     0.271 S 
ATOM      4  O   UNL d   1      46.647 -14.490  44.948  0.00  0.00    -0.200 OA
ATOM      5  O   UNL d   1      45.320 -14.793  44.013  0.00  0.00    -0.200 OA
BRANCH   3   6
ATOM      6  C   UNL d   1      45.607 -14.030  44.066  0.00  0.00     0.104 A 
ATOM      7  C   UNL d   1      46.006 -13.671  43.438  0.00  0.00     0.013 A 
ATOM      8  C   UNL d   1      45.631 -13.062  43.025  0.00  0.00     0.001 A 
ATOM      9  C   UNL d   1      44.870 -12.818  43.239  0.00  0.00     0.000 A 
ATOM     10  C   UNL d   1      44.483 -13.186  43.868  0.00  0.00     0.001 A 
ATOM     11  C   UNL d   1      44.501 -12.209  42.822  0.00  0.00     0.000 C 
ATOM     12  C   UNL d   1      44.855 -13.795  44.283  0.00  0.00     0.013 A 
ENDBRANCH   3   6
ENDBRANCH   1   3
BRANCH   1  13
ATOM     13  C   UNL d   1      46.108 -15.987  44.000  0.00  0.00     0.092 C 
BRANCH  13  14
ATOM     14  C   UNL d   1      45.941 -16.785  44.109  0.00  0.00     0.025 C 
BRANCH  14  15
ATOM     15  C   UNL d   1      46.330 -17.354  43.656  0.00  0.00     0.064 C 
BRANCH  15  16
ATOM     16  C   UNL d   1      46.263 -18.152  43.849  0.00  0.00     0.275 C 
ATOM     17  N   UNL d   1      46.425 -18.730  43.283  0.00  0.00    -0.238 NA
ATOM     18  O   UNL d   1      46.035 -18.378  44.603  0.00  0.00    -0.266 OA
BRANCH  17  19
ATOM     19  C   UNL d   1      46.359 -19.532  43.471  0.00  0.00     0.088 C 
ATOM     20  C   UNL d   1      46.119 -20.076  42.897  0.00  0.00     0.025 C 
ATOM     21  C   UNL d   1      46.535 -19.785  44.235  0.00  0.00     0.025 C 
ATOM     22  C   UNL d   1      46.237 -19.079  42.792  0.00  0.00     0.025 C 
ENDBRANCH  17  19
ENDBRANCH  15  16
ENDBRANCH  14  15
ENDBRANCH  13  14
ENDBRANCH   1  13
TORSDOF 7
ENDMDL
MODEL 2
REMARK VINA RESULT:      12.4      1.145      5.146
REMARK  7 active torsions:
REMARK  status: ('A' for Active; 'I' for Inactive)
REMARK    1  A    between atoms: C_2  and  S_1 
REMARK    2  A    between atoms: N_3  and  S_1 
REMARK    3  A    between atoms: C_15  and  N_3 
REMARK    4  A    between atoms: C_6  and  C_16 
REMARK       I    between atoms: N_7  and  C_6 
REMARK    5  A    between atoms: C_8  and  N_7 
REMARK    6  A    between atoms: C_17  and  C_15 
REMARK    7  A    between atoms: C_16  and  C_17 
ROOT
ATOM      1  N   UNL d   1      46.134 -17.329  43.951  0.00  0.00    -0.228 N 
ATOM      2  C   UNL d   1      46.451 -17.034  43.242  0.00  0.00     0.111 C 
ENDROOT
BRANCH   1   3
ATOM      3  S   UNL d   1      46.223 -18.128  44.140  0.00  0.00     0.271 S 
ATOM      4  O   UNL d   1      46.205 -18.364  44.927  0.00  0.00    -0.200 OA
ATOM      5  O   UNL d   1      46.243 -17.897  43.345  0.00  0.00    -0.200 OA
BRANCH   3   6
ATOM      6  C   UNL d   1      46.330 -18.687  43.532  0.00  0.00     0.104 A 
ATOM      7  C   UNL d   1      46.347 -18.425  42.749  0.00  0.00     0.013 A 
ATOM      8  C   UNL d   1      46.454 -18.979  42.146  0.00  0.00     0.001 A 
ATOM      9  C   UNL d   1      46.541 -19.782  42.326  0.00  0.00     0.000 A 
ATOM     10  C   UNL d   1      46.522 -20.030  43.112  0.00  0.00     0.001 A 
ATOM     11  C   UNL d   1      46.647 -20.330  41.718  0.00  0.00     0.000 C 
ATOM     12  C   UNL d   1      46.416 -19.479  43.717  0.00  0.00     0.013 A 
ENDBRANCH   3   6
ENDBRANCH   1   3
BRANCH   1  13
ATOM     13  C   UNL d   1      45.732 -16.822  44.463  0.00  0.00     0.092 C 
BRANCH  13  14
ATOM     14  C   UNL d   1      45.971 -16.039  44.539  0.00  0.00     0.025 C 
BRANCH  14  15
ATOM     15  C   UNL d   1      45.422 -15.429  44.456  0.00  0.00     0.064 C 
BRANCH  15  16
ATOM     16  C   UNL d   1      45.678 -14.650  44.376  0.00  0.00     0.275 C 
ATOM     17  N   UNL d   1      45.135 -14.030  44.416  0.00  0.00    -0.238 NA
ATOM     18  O   UNL d   1      46.471 -14.486  44.256  0.00  0.00    -0.266 OA
BRANCH  17  19
ATOM     19  C   UNL d   1      45.386 -13.246  44.336  0.00  0.00     0.088 C 
ATOM     20  C   UNL d   1      45.795 -12.875  44.951  0.00  0.00     0.025 C 
ATOM     21  C   UNL d   1      45.226 -12.839  43.638  0.00  0.00     0.025 C 
ATOM     22  C   UNL d   1      45.439 -13.820  44.928  0.00  0.00     0.025 C 
ENDBRANCH  17  19
ENDBRANCH  15  16
ENDBRANCH  14  15
ENDBRANCH  13  14
ENDBRANCH   1  13
TORSDOF 7
ENDMDL
