MODEL 1
REMARK VINA RESULT:      59.8      0.000      0.000
REMARK  1 active torsions:
REMARK  status: ('A' for Active; 'I' for Inactive)
REMARK    1  A    between atoms: C_12  and  N_1 
ROOT
ATOM      1  N   UNL d   1      14.113  12.862  -2.283  0.00  0.00    -0.244 N 
ATOM      2  C   UNL d   1      14.134  13.641  -2.480  0.00  0.00     0.251 A 
ATOM      3  C   UNL d   1      13.813  12.503  -2.969  0.00  0.00     0.260 A 
ATOM      4  C   UNL d   1      13.667  13.048  -3.533  0.00  0.00     0.033 A 
ATOM      5  C   UNL d   1      13.867  13.760  -3.230  0.00  0.00     0.125 A 
ATOM      6  C   UNL d   1      13.059  14.163  -5.517  0.00  0.00     0.068 A 
ATOM      7  C   UNL d   1      13.572  13.727  -4.006  0.00  0.00    -0.010 A 
ATOM      8  C   UNL d   1      13.312  13.153  -4.517  0.00  0.00    -0.007 A 
ATOM      9  C   UNL d   1      13.056  13.374  -5.270  0.00  0.00    -0.015 A 
ATOM     10  C   UNL d   1      13.330  14.721  -4.973  0.00  0.00    -0.015 A 
ATOM     11  C   UNL d   1      13.585  14.506  -4.223  0.00  0.00    -0.007 A 
ATOM     12  O   UNL d   1      14.350  14.083  -2.043  0.00  0.00    -0.271 OA
ATOM     13  O   UNL d   1      13.734  11.811  -2.957  0.00  0.00    -0.267 OA
ATOM     14  C   UNL d   1      13.851  15.079  -3.698  0.00  0.00    -0.001 A 
ATOM     15  C   UNL d   1      13.303  12.369  -4.288  0.00  0.00    -0.001 A 
ATOM     16  C   UNL d   1      12.784  12.791  -5.809  0.00  0.00    -0.004 A 
ATOM     17  C   UNL d   1      13.340  15.509  -5.200  0.00  0.00    -0.004 A 
ATOM     18  C   UNL d   1      13.857  15.874  -3.938  0.00  0.00    -0.000 A 
ATOM     19  C   UNL d   1      13.027  11.780  -4.833  0.00  0.00    -0.000 A 
ATOM     20  C   UNL d   1      12.771  12.002  -5.590  0.00  0.00    -0.000 A 
ATOM     21  C   UNL d   1      13.606  16.079  -4.673  0.00  0.00    -0.000 A 
ENDROOT
BRANCH   1  22
ATOM     22  C   UNL d   1      14.351  12.508  -1.533  0.00  0.00     0.089 A 
ATOM     23  C   UNL d   1      15.184  12.523  -1.298  0.00  0.00     0.117 A 
ATOM     24  N   UNL d   1      15.430  12.166  -0.541  0.00  0.00    -0.241 NA
ATOM     25  C   UNL d   1      14.836  11.790  -0.014  0.00  0.00     0.099 A 
ATOM     26  C   UNL d   1      14.005  11.779  -0.256  0.00  0.00     0.022 A 
ATOM     27  C   UNL d   1      13.762  12.140  -1.019  0.00  0.00     0.021 A 
ENDBRANCH   1  22
TORSDOF 1
ENDMDL
MODEL 2
REMARK VINA RESULT:      60.7      1.784      3.950
REMARK  1 active torsions:
REMARK  status: ('A' for Active; 'I' for Inactive)
REMARK    1  A    between atoms: C_12  and  N_1 
ROOT
ATOM      1  N   UNL d   1      14.700  15.335  -1.872  0.00  0.00    -0.244 N 
ATOM      2  C   UNL d   1      14.380  14.971  -2.512  0.00  0.00     0.251 A 
ATOM      3  C   UNL d   1      14.776  14.715  -1.323  0.00  0.00     0.260 A 
ATOM      4  C   UNL d   1      14.513  14.029  -1.633  0.00  0.00     0.033 A 
ATOM      5  C   UNL d   1      14.265  14.186  -2.376  0.00  0.00     0.125 A 
ATOM      6  C   UNL d   1      13.898  11.784  -1.995  0.00  0.00     0.068 A 
ATOM      7  C   UNL d   1      14.206  13.407  -2.093  0.00  0.00    -0.010 A 
ATOM      8  C   UNL d   1      14.381  13.011  -1.407  0.00  0.00    -0.007 A 
ATOM      9  C   UNL d   1      14.226  12.201  -1.362  0.00  0.00    -0.015 A 
ATOM     10  C   UNL d   1      13.732  12.217  -2.678  0.00  0.00    -0.015 A 
ATOM     11  C   UNL d   1      13.884  13.022  -2.728  0.00  0.00    -0.007 A 
ATOM     12  O   UNL d   1      14.249  15.320  -3.055  0.00  0.00    -0.271 OA
ATOM     13  O   UNL d   1      15.045  14.874  -0.701  0.00  0.00    -0.267 OA
ATOM     14  C   UNL d   1      13.710  13.433  -3.418  0.00  0.00    -0.001 A 
ATOM     15  C   UNL d   1      14.706  13.408  -0.772  0.00  0.00    -0.001 A 
ATOM     16  C   UNL d   1      14.403  11.779  -0.658  0.00  0.00    -0.004 A 
ATOM     17  C   UNL d   1      13.405  11.820  -3.318  0.00  0.00    -0.004 A 
ATOM     18  C   UNL d   1      13.380  13.022  -4.059  0.00  0.00    -0.000 A 
ATOM     19  C   UNL d   1      14.884  12.980  -0.061  0.00  0.00    -0.000 A 
ATOM     20  C   UNL d   1      14.728  12.168  -0.016  0.00  0.00    -0.000 A 
ATOM     21  C   UNL d   1      13.233  12.234  -4.005  0.00  0.00    -0.000 A 
ENDROOT
BRANCH   1  22
ATOM     22  C   UNL d   1      14.906  16.169  -1.795  0.00  0.00     0.089 A 
ATOM     23  C   UNL d   1      15.123  16.487  -1.021  0.00  0.00     0.117 A 
ATOM     24  N   UNL d   1      15.333  17.330  -0.937  0.00  0.00    -0.241 NA
ATOM     25  C   UNL d   1      15.325  17.859  -1.638  0.00  0.00     0.099 A 
ATOM     26  C   UNL d   1      15.107  17.534  -2.410  0.00  0.00     0.022 A 
ATOM     27  C   UNL d   1      14.896  16.685  -2.488  0.00  0.00     0.021 A 
ENDBRANCH   1  22
TORSDOF 1
ENDMDL
