MODEL 1
REMARK VINA RESULT:      33.1      0.000      0.000
REMARK  5 active torsions:
REMARK  status: ('A' for Active; 'I' for Inactive)
REMARK       I    between atoms: C_2  and  N_1 
REMARK    1  A    between atoms: C_5  and  C_2 
REMARK    2  A    between atoms: S_7  and  C_3 
REMARK    3  A    between atoms: N_4  and  C_8 
REMARK    4  A    between atoms: C_17  and  S_7 
REMARK    5  A    between atoms: C_18  and  C_17 
ROOT
ATOM      1  N   UNL d   1      13.968  12.453  -1.663  0.00  0.00    -0.251 N 
ATOM      2  C   UNL d   1      14.211  12.778  -2.381  0.00  0.00     0.266 C 
ATOM      3  C   UNL d   1      14.360  12.522  -0.936  0.00  0.00     0.182 A 
ATOM      4  N   UNL d   1      13.922  12.112  -0.376  0.00  0.00    -0.219 NA
ATOM      5  O   UNL d   1      14.906  13.224  -2.424  0.00  0.00    -0.267 OA
ATOM      6  C   UNL d   1      13.283  11.995  -1.545  0.00  0.00     0.106 A 
ATOM      7  C   UNL d   1      13.258  11.786  -0.743  0.00  0.00     0.120 A 
ENDROOT
BRANCH   3   8
ATOM      8  S   UNL d   1      15.063  12.932  -0.811  0.00  0.00    -0.049 SA
BRANCH   8   9
ATOM      9  C   UNL d   1      15.166  13.363  -0.124  0.00  0.00     0.038 C 
BRANCH   9  10
ATOM     10  C   UNL d   1      15.336  14.164  -0.163  0.00  0.00     0.007 A 
ATOM     11  C   UNL d   1      16.114  14.425  -0.218  0.00  0.00     0.002 A 
ATOM     12  C   UNL d   1      16.286  15.231  -0.257  0.00  0.00     0.024 A 
ATOM     13  C   UNL d   1      15.672  15.774  -0.240  0.00  0.00     0.127 A 
ATOM     14  C   UNL d   1      14.891  15.528  -0.185  0.00  0.00     0.024 A 
ATOM     15  C   UNL d   1      14.718  14.719  -0.146  0.00  0.00     0.002 A 
BRANCH  13  16
ATOM     16  N   UNL d   1      15.838  16.586  -0.279  0.00  0.00    -0.114 N 
ATOM     17  O   UNL d   1      15.233  17.132  -0.488  0.00  0.00    -0.532 OA
ATOM     18  O   UNL d   1      16.602  16.874  -0.113  0.00  0.00    -0.532 OA
ENDBRANCH  13  16
ENDBRANCH   9  10
ENDBRANCH   8   9
ENDBRANCH   3   8
BRANCH   2  19
ATOM     19  C   UNL d   1      13.756  12.659  -3.066  0.00  0.00     0.057 A 
ATOM     20  C   UNL d   1      13.611  13.298  -3.576  0.00  0.00     0.005 A 
ATOM     21  C   UNL d   1      13.917  14.044  -3.403  0.00  0.00     0.000 C 
ATOM     22  C   UNL d   1      13.163  13.172  -4.246  0.00  0.00     0.000 A 
ATOM     23  C   UNL d   1      12.858  12.415  -4.413  0.00  0.00     0.000 A 
ATOM     24  C   UNL d   1      13.002  11.787  -3.909  0.00  0.00     0.000 A 
ATOM     25  C   UNL d   1      13.453  11.909  -3.231  0.00  0.00     0.005 A 
ENDBRANCH   2  19
TORSDOF 5
ENDMDL
