MODEL 1
REMARK VINA RESULT:      -8.4      0.000      0.000
REMARK  3 active torsions:
REMARK  status: ('A' for Active; 'I' for Inactive)
REMARK    1  A    between atoms: N_10  and  C_3 
REMARK    2  A    between atoms: C_11  and  C_5 
REMARK    3  A    between atoms: C_12  and  N_10 
ROOT
ATOM      1  N   UNL d   1     -47.483  13.155  23.067  0.00  0.00    -0.184 N 
ATOM      2  C   UNL d   1     -48.225  13.545  23.047  0.00  0.00     0.168 A 
ATOM      3  C   UNL d   1     -47.448  12.349  23.248  0.00  0.00     0.217 A 
ATOM      4  N   UNL d   1     -46.835  14.372  22.728  0.00  0.00    -0.162 NA
ATOM      5  C   UNL d   1     -48.260  14.332  22.870  0.00  0.00     0.055 A 
ATOM      6  N   UNL d   1     -48.907  13.114  23.209  0.00  0.00    -0.227 NA
ATOM      7  C   UNL d   1     -48.130  11.938  23.406  0.00  0.00     0.066 A 
ATOM      8  C   UNL d   1     -47.567  14.755  22.708  0.00  0.00     0.104 A 
ATOM      9  C   UNL d   1     -48.877  12.320  23.388  0.00  0.00     0.087 A 
ATOM     10  C   UNL d   1     -48.270  11.161  23.596  0.00  0.00     0.006 A 
ATOM     11  C   UNL d   1     -47.610  15.552  22.530  0.00  0.00     0.023 C 
ATOM     12  C   UNL d   1     -49.457  11.770  23.568  0.00  0.00     0.019 A 
ATOM     13  C   UNL d   1     -49.073  11.045  23.698  0.00  0.00     0.002 A 
ENDROOT
BRANCH   3  14
ATOM     14  N   UNL d   1     -46.700  11.952  23.269  0.00  0.00    -0.383 NA
BRANCH  14  15
ATOM     15  C   UNL d   1     -45.953  11.561  23.289  0.00  0.00     0.134 A 
ATOM     16  C   UNL d   1     -45.875  10.809  23.680  0.00  0.00     0.034 A 
ATOM     17  C   UNL d   1     -45.127  10.422  23.698  0.00  0.00     0.032 A 
ATOM     18  C   UNL d   1     -44.457  10.774  23.332  0.00  0.00     0.140 A 
ATOM     19  C   UNL d   1     -44.540  11.525  22.943  0.00  0.00     0.032 A 
ATOM     20  F   UNL d   1     -43.704  10.385  23.350  0.00  0.00    -0.204 F 
ATOM     21  C   UNL d   1     -45.280  11.920  22.919  0.00  0.00     0.034 A 
ENDBRANCH  14  15
ENDBRANCH   3  14
BRANCH   5  22
ATOM     22  C   UNL d   1     -48.987  14.713  22.851  0.00  0.00     0.004 A 
ATOM     23  C   UNL d   1     -49.436  14.711  22.163  0.00  0.00     0.000 A 
ATOM     24  C   UNL d   1     -50.160  15.090  22.140  0.00  0.00     0.000 A 
ATOM     25  C   UNL d   1     -50.442  15.476  22.812  0.00  0.00     0.000 A 
ATOM     26  C   UNL d   1     -50.005  15.482  23.495  0.00  0.00     0.000 A 
ATOM     27  C   UNL d   1     -49.270  15.096  23.514  0.00  0.00     0.000 A 
ENDBRANCH   5  22
TORSDOF 3
ENDMDL
MODEL 2
REMARK VINA RESULT:      -7.8      0.911      1.357
REMARK  3 active torsions:
REMARK  status: ('A' for Active; 'I' for Inactive)
REMARK    1  A    between atoms: N_10  and  C_3 
REMARK    2  A    between atoms: C_11  and  C_5 
REMARK    3  A    between atoms: C_12  and  N_10 
ROOT
ATOM      1  N   UNL d   1     -47.418  13.567  22.659  0.00  0.00    -0.184 N 
ATOM      2  C   UNL d   1     -48.228  13.702  22.828  0.00  0.00     0.168 A 
ATOM      3  C   UNL d   1     -47.081  12.831  22.833  0.00  0.00     0.217 A 
ATOM      4  N   UNL d   1     -47.303  14.888  22.154  0.00  0.00    -0.162 NA
ATOM      5  C   UNL d   1     -48.558  14.419  22.659  0.00  0.00     0.055 A 
ATOM      6  N   UNL d   1     -48.673  13.096  23.164  0.00  0.00    -0.227 NA
ATOM      7  C   UNL d   1     -47.533  12.244  23.164  0.00  0.00     0.066 A 
ATOM      8  C   UNL d   1     -48.101  15.021  22.321  0.00  0.00     0.104 A 
ATOM      9  C   UNL d   1     -48.344  12.371  23.337  0.00  0.00     0.087 A 
ATOM     10  C   UNL d   1     -47.362  11.484  23.392  0.00  0.00     0.006 A 
ATOM     11  C   UNL d   1     -48.443  15.744  22.152  0.00  0.00     0.023 C 
ATOM     12  C   UNL d   1     -48.652  11.687  23.665  0.00  0.00     0.019 A 
ATOM     13  C   UNL d   1     -48.034  11.133  23.698  0.00  0.00     0.002 A 
ENDROOT
BRANCH   3  14
ATOM     14  N   UNL d   1     -46.263  12.691  22.663  0.00  0.00    -0.383 NA
BRANCH  14  15
ATOM     15  C   UNL d   1     -45.449  12.551  22.490  0.00  0.00     0.134 A 
ATOM     16  C   UNL d   1     -45.036  13.058  21.945  0.00  0.00     0.034 A 
ATOM     17  C   UNL d   1     -44.223  12.914  21.774  0.00  0.00     0.032 A 
ATOM     18  C   UNL d   1     -43.819  12.274  22.140  0.00  0.00     0.140 A 
ATOM     19  C   UNL d   1     -44.235  11.773  22.683  0.00  0.00     0.032 A 
ATOM     20  F   UNL d   1     -43.001  12.131  21.968  0.00  0.00    -0.204 F 
ATOM     21  C   UNL d   1     -45.045  11.905  22.861  0.00  0.00     0.034 A 
ENDBRANCH  14  15
ENDBRANCH   3  14
BRANCH   5  22
ATOM     22  C   UNL d   1     -49.351  14.551  22.825  0.00  0.00     0.004 A 
ATOM     23  C   UNL d   1     -49.572  14.910  23.530  0.00  0.00     0.000 A 
ATOM     24  C   UNL d   1     -50.361  15.043  23.698  0.00  0.00     0.000 A 
ATOM     25  C   UNL d   1     -50.940  14.815  23.156  0.00  0.00     0.000 A 
ATOM     26  C   UNL d   1     -50.730  14.460  22.458  0.00  0.00     0.000 A 
ATOM     27  C   UNL d   1     -49.928  14.327  22.290  0.00  0.00     0.000 A 
ENDBRANCH   5  22
TORSDOF 3
ENDMDL
MODEL 3
REMARK VINA RESULT:      -6.8      7.661      9.063
REMARK  3 active torsions:
REMARK  status: ('A' for Active; 'I' for Inactive)
REMARK    1  A    between atoms: N_10  and  C_3 
REMARK    2  A    between atoms: C_11  and  C_5 
REMARK    3  A    between atoms: C_12  and  N_10 
ROOT
ATOM      1  N   UNL d   1     -39.658  14.473  19.617  0.00  0.00    -0.184 N 
ATOM      2  C   UNL d   1     -40.056  14.820  18.965  0.00  0.00     0.168 A 
ATOM      3  C   UNL d   1     -39.919  14.628  20.386  0.00  0.00     0.217 A 
ATOM      4  N   UNL d   1     -38.758  13.832  18.725  0.00  0.00    -0.162 NA
ATOM      5  C   UNL d   1     -39.802  14.669  18.214  0.00  0.00     0.055 A 
ATOM      6  N   UNL d   1     -40.702  15.310  19.106  0.00  0.00    -0.227 NA
ATOM      7  C   UNL d   1     -40.558  15.114  20.509  0.00  0.00     0.066 A 
ATOM      8  C   UNL d   1     -39.151  14.174  18.084  0.00  0.00     0.104 A 
ATOM      9  C   UNL d   1     -40.962  15.465  19.863  0.00  0.00     0.087 A 
ATOM     10  C   UNL d   1     -40.934  15.364  21.183  0.00  0.00     0.006 A 
ATOM     11  C   UNL d   1     -38.899  14.027  17.320  0.00  0.00     0.023 C 
ATOM     12  C   UNL d   1     -41.576  15.922  20.155  0.00  0.00     0.019 A 
ATOM     13  C   UNL d   1     -41.555  15.856  20.983  0.00  0.00     0.002 A 
ENDROOT
BRANCH   3  14
ATOM     14  N   UNL d   1     -39.519  14.279  21.046  0.00  0.00    -0.383 NA
BRANCH  14  15
ATOM     15  C   UNL d   1     -39.125  13.930  21.706  0.00  0.00     0.134 A 
ATOM     16  C   UNL d   1     -39.526  13.351  22.184  0.00  0.00     0.034 A 
ATOM     17  C   UNL d   1     -39.129  13.005  22.842  0.00  0.00     0.032 A 
ATOM     18  C   UNL d   1     -38.341  13.230  23.029  0.00  0.00     0.140 A 
ATOM     19  C   UNL d   1     -37.946  13.808  22.549  0.00  0.00     0.032 A 
ATOM     20  F   UNL d   1     -37.942  12.881  23.691  0.00  0.00    -0.204 F 
ATOM     21  C   UNL d   1     -38.331  14.160  21.891  0.00  0.00     0.034 A 
ENDBRANCH  14  15
ENDBRANCH   3  14
BRANCH   5  22
ATOM     22  C   UNL d   1     -40.192  15.009  17.577  0.00  0.00     0.004 A 
ATOM     23  C   UNL d   1     -40.959  14.781  17.393  0.00  0.00     0.000 A 
ATOM     24  C   UNL d   1     -41.351  15.118  16.758  0.00  0.00     0.000 A 
ATOM     25  C   UNL d   1     -40.973  15.690  16.300  0.00  0.00     0.000 A 
ATOM     26  C   UNL d   1     -40.215  15.920  16.475  0.00  0.00     0.000 A 
ATOM     27  C   UNL d   1     -39.821  15.576  17.120  0.00  0.00     0.000 A 
ENDBRANCH   5  22
TORSDOF 3
ENDMDL
MODEL 4
REMARK VINA RESULT:      -6.0      8.441     10.292
REMARK  3 active torsions:
REMARK  status: ('A' for Active; 'I' for Inactive)
REMARK    1  A    between atoms: N_10  and  C_3 
REMARK    2  A    between atoms: C_11  and  C_5 
REMARK    3  A    between atoms: C_12  and  N_10 
ROOT
ATOM      1  N   UNL d   1     -39.072  14.442  18.586  0.00  0.00    -0.184 N 
ATOM      2  C   UNL d   1     -39.379  14.637  19.343  0.00  0.00     0.168 A 
ATOM      3  C   UNL d   1     -39.455  14.718  17.906  0.00  0.00     0.217 A 
ATOM      4  N   UNL d   1     -38.022  13.711  19.200  0.00  0.00    -0.162 NA
ATOM      5  C   UNL d   1     -39.006  14.369  20.006  0.00  0.00     0.055 A 
ATOM      6  N   UNL d   1     -40.057  15.100  19.392  0.00  0.00    -0.227 NA
ATOM      7  C   UNL d   1     -40.123  15.174  17.972  0.00  0.00     0.066 A 
ATOM      8  C   UNL d   1     -38.324  13.903  19.945  0.00  0.00     0.104 A 
ATOM      9  C   UNL d   1     -40.436  15.373  18.724  0.00  0.00     0.087 A 
ATOM     10  C   UNL d   1     -40.608  15.517  17.419  0.00  0.00     0.006 A 
ATOM     11  C   UNL d   1     -37.952  13.635  20.622  0.00  0.00     0.023 C 
ATOM     12  C   UNL d   1     -41.105  15.834  18.616  0.00  0.00     0.019 A 
ATOM     13  C   UNL d   1     -41.210  15.921  17.797  0.00  0.00     0.002 A 
ENDROOT
BRANCH   3  14
ATOM     14  N   UNL d   1     -39.148  14.523  17.141  0.00  0.00    -0.383 NA
BRANCH  14  15
ATOM     15  C   UNL d   1     -38.846  14.332  16.377  0.00  0.00     0.134 A 
ATOM     16  C   UNL d   1     -38.479  14.934  15.900  0.00  0.00     0.034 A 
ATOM     17  C   UNL d   1     -38.179  14.738  15.137  0.00  0.00     0.032 A 
ATOM     18  C   UNL d   1     -38.241  13.953  14.845  0.00  0.00     0.140 A 
ATOM     19  C   UNL d   1     -38.609  13.357  15.324  0.00  0.00     0.032 A 
ATOM     20  F   UNL d   1     -37.940  13.756  14.077  0.00  0.00    -0.204 F 
ATOM     21  C   UNL d   1     -38.911  13.539  16.085  0.00  0.00     0.034 A 
ENDBRANCH  14  15
ENDBRANCH   3  14
BRANCH   5  22
ATOM     22  C   UNL d   1     -39.306  14.559  20.746  0.00  0.00     0.004 A 
ATOM     23  C   UNL d   1     -39.891  14.094  21.087  0.00  0.00     0.000 A 
ATOM     24  C   UNL d   1     -40.192  14.281  21.824  0.00  0.00     0.000 A 
ATOM     25  C   UNL d   1     -39.907  14.941  22.228  0.00  0.00     0.000 A 
ATOM     26  C   UNL d   1     -39.330  15.405  21.899  0.00  0.00     0.000 A 
ATOM     27  C   UNL d   1     -39.026  15.212  21.150  0.00  0.00     0.000 A 
ENDBRANCH   5  22
TORSDOF 3
ENDMDL
