MODEL 1
REMARK VINA RESULT:      80.6      0.000      0.000
REMARK  7 active torsions:
REMARK  status: ('A' for Active; 'I' for Inactive)
REMARK    1  A    between atoms: C_5  and  C_1 
REMARK    2  A    between atoms: N_6  and  C_2 
REMARK       I    between atoms: N_10  and  C_5 
REMARK    3  A    between atoms: C_20  and  N_6 
REMARK    4  A    between atoms: C_9  and  C_12 
REMARK    5  A    between atoms: C_22  and  N_10 
REMARK    6  A    between atoms: C_11  and  C_22 
REMARK    7  A    between atoms: O_30  and  C_25 
ROOT
ATOM      1  C   UNL d   1     -57.394 -99.344 -43.869  0.00  0.00     0.099 A 
ATOM      2  C   UNL d   1     -57.909 -98.952 -44.380  0.00  0.00     0.187 A 
ATOM      3  C   UNL d   1     -57.657 -99.542 -43.100  0.00  0.00     0.010 A 
ATOM      4  O   UNL d   1     -58.670 -98.756 -44.143  0.00  0.00    -0.289 OA
ATOM      5  C   UNL d   1     -58.424 -99.347 -42.857  0.00  0.00     0.025 A 
ATOM      6  C   UNL d   1     -58.928 -98.958 -43.368  0.00  0.00     0.102 A 
ATOM      7  C   UNL d   1     -58.685 -99.541 -42.099  0.00  0.00     0.026 A 
ATOM      8  C   UNL d   1     -59.702 -98.757 -43.132  0.00  0.00     0.027 A 
ATOM      9  C   UNL d   1     -59.445 -99.347 -41.858  0.00  0.00     0.094 A 
ATOM     10  C   UNL d   1     -59.958 -98.955 -42.369  0.00  0.00     0.026 A 
ENDROOT
BRANCH   2  11
ATOM     11  N   UNL d   1     -57.641 -98.756 -45.150  0.00  0.00    -0.222 NA
BRANCH  11  12
ATOM     12  C   UNL d   1     -58.126 -98.910 -45.798  0.00  0.00     0.084 A 
ATOM     13  C   UNL d   1     -57.837 -98.786 -46.560  0.00  0.00     0.019 A 
ATOM     14  C   UNL d   1     -58.321 -98.941 -47.199  0.00  0.00     0.008 A 
ATOM     15  C   UNL d   1     -59.097 -99.219 -47.094  0.00  0.00     0.065 A 
ATOM     16  C   UNL d   1     -59.383 -99.342 -46.328  0.00  0.00     0.008 A 
ATOM     17  C   UNL d   1     -58.892 -99.185 -45.685  0.00  0.00     0.019 A 
BRANCH  15  18
ATOM     18  C   UNL d   1     -59.581 -99.374 -47.742  0.00  0.00     0.211 C 
ATOM     19  O   UNL d   1     -59.699-100.154 -48.000  0.00  0.00    -0.644 OA
ATOM     20  O   UNL d   1     -59.958 -98.758 -48.148  0.00  0.00    -0.644 OA
ENDBRANCH  15  18
ENDBRANCH  11  12
ENDBRANCH   2  11
BRANCH   1  21
ATOM     21  C   UNL d   1     -56.631 -99.542 -44.105  0.00  0.00     0.283 C 
ATOM     22  N   UNL d   1     -56.178-100.084 -43.650  0.00  0.00    -0.204 NA
ATOM     23  O   UNL d   1     -56.289 -99.212 -44.794  0.00  0.00    -0.265 OA
BRANCH  22  24
ATOM     24  C   UNL d   1     -55.408-100.285 -43.885  0.00  0.00     0.127 C 
BRANCH  24  25
ATOM     25  C   UNL d   1     -55.260-101.002 -44.263  0.00  0.00     0.119 A 
ATOM     26  O   UNL d   1     -55.471-101.782 -44.095  0.00  0.00    -0.304 OA
ATOM     27  C   UNL d   1     -55.165-102.271 -44.674  0.00  0.00     0.123 A 
ATOM     28  C   UNL d   1     -54.762-101.812 -45.208  0.00  0.00     0.029 A 
ATOM     29  C   UNL d   1     -54.817-101.026 -44.960  0.00  0.00     0.028 A 
ENDBRANCH  24  25
ENDBRANCH  22  24
ENDBRANCH   1  21
BRANCH   9  30
ATOM     30  O   UNL d   1     -59.698 -99.547 -41.092  0.00  0.00    -0.328 OA
ATOM     31  C   UNL d   1     -59.398 -99.134 -40.430  0.00  0.00     0.181 C 
ENDBRANCH   9  30
TORSDOF 7
ENDMDL
