MODEL 1
REMARK VINA RESULT:      -8.1      0.000      0.000
REMARK  6 active torsions:
REMARK  status: ('A' for Active; 'I' for Inactive)
REMARK    1  A    between atoms: N_2  and  S_1 
REMARK    2  A    between atoms: C_5  and  S_1 
REMARK    3  A    between atoms: S_8  and  C_3 
REMARK    4  A    between atoms: C_13  and  S_8 
REMARK    5  A    between atoms: C_17  and  C_13 
REMARK    6  A    between atoms: O_21  and  C_15 
ROOT
ATOM      1  N   UNL d   1      54.038  33.155  54.041  0.00  0.00    -0.208 N 
ATOM      2  C   UNL d   1      54.193  32.406  53.715  0.00  0.00     0.189 A 
ATOM      3  N   UNL d   1      54.779  32.493  53.136  0.00  0.00    -0.219 NA
ATOM      4  C   UNL d   1      54.532  33.706  53.659  0.00  0.00     0.114 A 
ATOM      5  C   UNL d   1      54.984  33.295  53.106  0.00  0.00     0.121 A 
ENDROOT
BRANCH   1   6
ATOM      6  S   UNL d   1      53.489  33.318  54.638  0.00  0.00     0.273 S 
ATOM      7  O   UNL d   1      53.115  33.363  55.375  0.00  0.00    -0.200 OA
ATOM      8  O   UNL d   1      54.000  32.951  55.160  0.00  0.00    -0.200 OA
BRANCH   6   9
ATOM      9  C   UNL d   1      52.960  33.694  54.126  0.00  0.00     0.104 A 
ATOM     10  C   UNL d   1      53.122  34.459  53.872  0.00  0.00     0.015 A 
ATOM     11  C   UNL d   1      52.586  34.828  53.360  0.00  0.00     0.025 A 
ATOM     12  C   UNL d   1      51.903  34.428  53.112  0.00  0.00     0.094 A 
ATOM     13  C   UNL d   1      51.751  33.665  53.370  0.00  0.00     0.025 A 
ATOM     14  C   UNL d   1      52.285  33.296  53.883  0.00  0.00     0.015 A 
BRANCH  12  15
ATOM     15  O   UNL d   1      51.377  34.805  52.601  0.00  0.00    -0.328 OA
ATOM     16  C   UNL d   1      50.648  34.448  52.434  0.00  0.00     0.181 C 
ENDBRANCH  12  15
ENDBRANCH   6   9
ENDBRANCH   1   6
BRANCH   2  17
ATOM     17  S   UNL d   1      53.824  31.694  53.934  0.00  0.00    -0.049 SA
BRANCH  17  18
ATOM     18  C   UNL d   1      54.047  30.988  53.570  0.00  0.00     0.038 C 
BRANCH  18  19
ATOM     19  C   UNL d   1      53.586  30.314  53.668  0.00  0.00     0.009 A 
ATOM     20  C   UNL d   1      53.745  29.786  54.302  0.00  0.00     0.030 A 
ATOM     21  C   UNL d   1      53.289  29.113  54.404  0.00  0.00     0.140 A 
ATOM     22  F   UNL d   1      53.449  28.595  55.030  0.00  0.00    -0.204 F 
ATOM     23  C   UNL d   1      52.665  28.950  53.879  0.00  0.00     0.030 A 
ATOM     24  C   UNL d   1      52.507  29.466  53.256  0.00  0.00     0.002 A 
ATOM     25  C   UNL d   1      52.969  30.150  53.151  0.00  0.00     0.001 A 
ENDBRANCH  18  19
ENDBRANCH  17  18
ENDBRANCH   2  17
TORSDOF 6
ENDMDL
MODEL 2
REMARK VINA RESULT:      -8.1      2.204      4.538
REMARK  6 active torsions:
REMARK  status: ('A' for Active; 'I' for Inactive)
REMARK    1  A    between atoms: N_2  and  S_1 
REMARK    2  A    between atoms: C_5  and  S_1 
REMARK    3  A    between atoms: S_8  and  C_3 
REMARK    4  A    between atoms: C_13  and  S_8 
REMARK    5  A    between atoms: C_17  and  C_13 
REMARK    6  A    between atoms: O_21  and  C_15 
ROOT
ATOM      1  N   UNL d   1      53.317  31.860  53.411  0.00  0.00    -0.208 N 
ATOM      2  C   UNL d   1      52.922  32.574  53.569  0.00  0.00     0.189 A 
ATOM      3  N   UNL d   1      53.283  32.929  54.224  0.00  0.00    -0.219 NA
ATOM      4  C   UNL d   1      53.925  31.775  53.972  0.00  0.00     0.114 A 
ATOM      5  C   UNL d   1      53.900  32.433  54.469  0.00  0.00     0.121 A 
ENDROOT
BRANCH   1   6
ATOM      6  S   UNL d   1      53.134  31.330  52.802  0.00  0.00     0.273 S 
ATOM      7  O   UNL d   1      52.974  31.012  52.054  0.00  0.00    -0.200 OA
ATOM      8  O   UNL d   1      53.188  31.961  52.284  0.00  0.00    -0.200 OA
BRANCH   6   9
ATOM      9  C   UNL d   1      53.075  30.680  53.309  0.00  0.00     0.104 A 
ATOM     10  C   UNL d   1      52.333  30.440  53.568  0.00  0.00     0.015 A 
ATOM     11  C   UNL d   1      52.283  29.788  54.076  0.00  0.00     0.025 A 
ATOM     12  C   UNL d   1      52.971  29.390  54.313  0.00  0.00     0.094 A 
ATOM     13  C   UNL d   1      53.707  29.637  54.049  0.00  0.00     0.025 A 
ATOM     14  C   UNL d   1      53.758  30.289  53.542  0.00  0.00     0.015 A 
BRANCH  12  15
ATOM     15  O   UNL d   1      52.909  28.742  54.818  0.00  0.00    -0.328 OA
ATOM     16  C   UNL d   1      53.599  28.400  55.126  0.00  0.00     0.181 C 
ENDBRANCH  12  15
ENDBRANCH   6   9
ENDBRANCH   1   6
BRANCH   2  17
ATOM     17  S   UNL d   1      52.275  32.877  53.143  0.00  0.00    -0.049 SA
BRANCH  17  18
ATOM     18  C   UNL d   1      52.004  33.640  53.299  0.00  0.00     0.038 C 
BRANCH  18  19
ATOM     19  C   UNL d   1      51.323  33.916  52.928  0.00  0.00     0.009 A 
ATOM     20  C   UNL d   1      51.329  34.069  52.102  0.00  0.00     0.030 A 
ATOM     21  C   UNL d   1      50.654  34.343  51.728  0.00  0.00     0.140 A 
ATOM     22  F   UNL d   1      50.663  34.493  50.914  0.00  0.00    -0.204 F 
ATOM     23  C   UNL d   1      49.959  34.473  52.166  0.00  0.00     0.030 A 
ATOM     24  C   UNL d   1      49.950  34.324  52.977  0.00  0.00     0.002 A 
ATOM     25  C   UNL d   1      50.634  34.045  53.359  0.00  0.00     0.001 A 
ENDBRANCH  18  19
ENDBRANCH  17  18
ENDBRANCH   2  17
TORSDOF 6
ENDMDL
MODEL 3
REMARK VINA RESULT:      -7.7      1.383      1.945
REMARK  6 active torsions:
REMARK  status: ('A' for Active; 'I' for Inactive)
REMARK    1  A    between atoms: N_2  and  S_1 
REMARK    2  A    between atoms: C_5  and  S_1 
REMARK    3  A    between atoms: S_8  and  C_3 
REMARK    4  A    between atoms: C_13  and  S_8 
REMARK    5  A    between atoms: C_17  and  C_13 
REMARK    6  A    between atoms: O_21  and  C_15 
ROOT
ATOM      1  N   UNL d   1      53.329  32.583  53.149  0.00  0.00    -0.208 N 
ATOM      2  C   UNL d   1      52.948  31.846  53.195  0.00  0.00     0.189 A 
ATOM      3  N   UNL d   1      52.203  31.919  52.842  0.00  0.00    -0.219 NA
ATOM      4  C   UNL d   1      52.816  33.113  52.764  0.00  0.00     0.114 A 
ATOM      5  C   UNL d   1      52.126  32.700  52.578  0.00  0.00     0.121 A 
ENDROOT
BRANCH   1   6
ATOM      6  S   UNL d   1      54.086  32.755  53.436  0.00  0.00     0.273 S 
ATOM      7  O   UNL d   1      54.902  32.730  53.574  0.00  0.00    -0.200 OA
ATOM      8  O   UNL d   1      54.362  32.133  52.982  0.00  0.00    -0.200 OA
BRANCH   6   9
ATOM      9  C   UNL d   1      53.828  33.386  53.902  0.00  0.00     0.104 A 
ATOM     10  C   UNL d   1      53.768  33.287  54.716  0.00  0.00     0.015 A 
ATOM     11  C   UNL d   1      53.508  33.925  55.175  0.00  0.00     0.025 A 
ATOM     12  C   UNL d   1      53.314  34.646  54.814  0.00  0.00     0.094 A 
ATOM     13  C   UNL d   1      53.376  34.736  54.003  0.00  0.00     0.025 A 
ATOM     14  C   UNL d   1      53.636  34.099  53.543  0.00  0.00     0.015 A 
BRANCH  12  15
ATOM     15  O   UNL d   1      53.056  35.274  55.282  0.00  0.00    -0.328 OA
ATOM     16  C   UNL d   1      52.943  36.019  54.935  0.00  0.00     0.181 C 
ENDBRANCH  12  15
ENDBRANCH   6   9
ENDBRANCH   1   6
BRANCH   2  17
ATOM     17  S   UNL d   1      53.261  31.156  53.538  0.00  0.00    -0.049 SA
BRANCH  17  18
ATOM     18  C   UNL d   1      52.804  30.470  53.567  0.00  0.00     0.038 C 
BRANCH  18  19
ATOM     19  C   UNL d   1      53.089  29.806  53.962  0.00  0.00     0.009 A 
ATOM     20  C   UNL d   1      52.980  29.735  54.792  0.00  0.00     0.030 A 
ATOM     21  C   UNL d   1      53.261  29.076  55.190  0.00  0.00     0.140 A 
ATOM     22  F   UNL d   1      53.152  29.009  56.009  0.00  0.00    -0.204 F 
ATOM     23  C   UNL d   1      53.656  28.474  54.774  0.00  0.00     0.030 A 
ATOM     24  C   UNL d   1      53.763  28.542  53.959  0.00  0.00     0.002 A 
ATOM     25  C   UNL d   1      53.479  29.210  53.553  0.00  0.00     0.001 A 
ENDBRANCH  18  19
ENDBRANCH  17  18
ENDBRANCH   2  17
TORSDOF 6
ENDMDL
MODEL 4
REMARK VINA RESULT:      -7.1      2.955      5.027
REMARK  6 active torsions:
REMARK  status: ('A' for Active; 'I' for Inactive)
REMARK    1  A    between atoms: N_2  and  S_1 
REMARK    2  A    between atoms: C_5  and  S_1 
REMARK    3  A    between atoms: S_8  and  C_3 
REMARK    4  A    between atoms: C_13  and  S_8 
REMARK    5  A    between atoms: C_17  and  C_13 
REMARK    6  A    between atoms: O_21  and  C_15 
ROOT
ATOM      1  N   UNL d   1      51.810  33.680  52.897  0.00  0.00    -0.208 N 
ATOM      2  C   UNL d   1      50.982  33.671  52.975  0.00  0.00     0.189 A 
ATOM      3  N   UNL d   1      50.754  32.912  53.216  0.00  0.00    -0.219 NA
ATOM      4  C   UNL d   1      52.092  32.922  53.090  0.00  0.00     0.114 A 
ATOM      5  C   UNL d   1      51.442  32.455  53.286  0.00  0.00     0.121 A 
ENDROOT
BRANCH   1   6
ATOM      6  S   UNL d   1      52.266  34.331  52.666  0.00  0.00     0.273 S 
ATOM      7  O   UNL d   1      52.564  34.974  52.239  0.00  0.00    -0.200 OA
ATOM      8  O   UNL d   1      51.798  34.379  51.998  0.00  0.00    -0.200 OA
BRANCH   6   9
ATOM      9  C   UNL d   1      52.751  34.299  53.335  0.00  0.00     0.104 A 
ATOM     10  C   UNL d   1      52.615  34.823  53.954  0.00  0.00     0.015 A 
ATOM     11  C   UNL d   1      53.105  34.784  54.620  0.00  0.00     0.025 A 
ATOM     12  C   UNL d   1      53.717  34.225  54.655  0.00  0.00     0.094 A 
ATOM     13  C   UNL d   1      53.845  33.707  54.034  0.00  0.00     0.025 A 
ATOM     14  C   UNL d   1      53.356  33.746  53.367  0.00  0.00     0.015 A 
BRANCH  12  15
ATOM     15  O   UNL d   1      54.199  34.196  55.324  0.00  0.00    -0.328 OA
ATOM     16  C   UNL d   1      54.847  33.678  55.335  0.00  0.00     0.181 C 
ENDBRANCH  12  15
ENDBRANCH   6   9
ENDBRANCH   1   6
BRANCH   2  17
ATOM     17  S   UNL d   1      50.472  34.313  52.836  0.00  0.00    -0.049 SA
BRANCH  17  18
ATOM     18  C   UNL d   1      49.660  34.222  52.943  0.00  0.00     0.038 C 
BRANCH  18  19
ATOM     19  C   UNL d   1      49.152  34.845  52.770  0.00  0.00     0.009 A 
ATOM     20  C   UNL d   1      48.953  35.402  53.368  0.00  0.00     0.030 A 
ATOM     21  C   UNL d   1      48.447  36.024  53.200  0.00  0.00     0.140 A 
ATOM     22  F   UNL d   1      48.254  36.571  53.792  0.00  0.00    -0.204 F 
ATOM     23  C   UNL d   1      48.129  36.109  52.437  0.00  0.00     0.030 A 
ATOM     24  C   UNL d   1      48.322  35.564  51.849  0.00  0.00     0.002 A 
ATOM     25  C   UNL d   1      48.835  34.931  52.016  0.00  0.00     0.001 A 
ENDBRANCH  18  19
ENDBRANCH  17  18
ENDBRANCH   2  17
TORSDOF 6
ENDMDL
MODEL 5
REMARK VINA RESULT:      -6.4      2.426      3.392
REMARK  6 active torsions:
REMARK  status: ('A' for Active; 'I' for Inactive)
REMARK    1  A    between atoms: N_2  and  S_1 
REMARK    2  A    between atoms: C_5  and  S_1 
REMARK    3  A    between atoms: S_8  and  C_3 
REMARK    4  A    between atoms: C_13  and  S_8 
REMARK    5  A    between atoms: C_17  and  C_13 
REMARK    6  A    between atoms: O_21  and  C_15 
ROOT
ATOM      1  N   UNL d   1      51.591  33.225  52.736  0.00  0.00    -0.208 N 
ATOM      2  C   UNL d   1      52.129  32.851  53.247  0.00  0.00     0.189 A 
ATOM      3  N   UNL d   1      51.778  32.156  53.528  0.00  0.00    -0.219 NA
ATOM      4  C   UNL d   1      50.904  32.756  52.702  0.00  0.00     0.114 A 
ATOM      5  C   UNL d   1      51.023  32.102  53.189  0.00  0.00     0.121 A 
ENDROOT
BRANCH   1   6
ATOM      6  S   UNL d   1      51.720  33.937  52.334  0.00  0.00     0.273 S 
ATOM      7  O   UNL d   1      52.060  34.527  51.863  0.00  0.00    -0.200 OA
ATOM      8  O   UNL d   1      52.423  33.617  52.065  0.00  0.00    -0.200 OA
BRANCH   6   9
ATOM      9  C   UNL d   1      51.014  34.278  52.596  0.00  0.00     0.104 A 
ATOM     10  C   UNL d   1      51.000  34.665  53.321  0.00  0.00     0.015 A 
ATOM     11  C   UNL d   1      50.289  35.004  53.576  0.00  0.00     0.025 A 
ATOM     12  C   UNL d   1      49.609  34.949  53.104  0.00  0.00     0.094 A 
ATOM     13  C   UNL d   1      49.633  34.561  52.383  0.00  0.00     0.025 A 
ATOM     14  C   UNL d   1      50.343  34.222  52.128  0.00  0.00     0.015 A 
BRANCH  12  15
ATOM     15  O   UNL d   1      48.907  35.290  53.368  0.00  0.00    -0.328 OA
ATOM     16  C   UNL d   1      48.421  35.690  52.827  0.00  0.00     0.181 C 
ENDBRANCH  12  15
ENDBRANCH   6   9
ENDBRANCH   1   6
BRANCH   2  17
ATOM     17  S   UNL d   1      52.889  33.128  53.442  0.00  0.00    -0.049 SA
BRANCH  17  18
ATOM     18  C   UNL d   1      53.377  32.676  53.930  0.00  0.00     0.038 C 
BRANCH  18  19
ATOM     19  C   UNL d   1      54.075  32.999  54.222  0.00  0.00     0.009 A 
ATOM     20  C   UNL d   1      54.120  33.243  55.024  0.00  0.00     0.030 A 
ATOM     21  C   UNL d   1      54.813  33.565  55.320  0.00  0.00     0.140 A 
ATOM     22  F   UNL d   1      54.853  33.805  56.111  0.00  0.00    -0.204 F 
ATOM     23  C   UNL d   1      55.476  33.652  54.825  0.00  0.00     0.030 A 
ATOM     24  C   UNL d   1      55.434  33.412  54.037  0.00  0.00     0.002 A 
ATOM     25  C   UNL d   1      54.732  33.085  53.735  0.00  0.00     0.001 A 
ENDBRANCH  18  19
ENDBRANCH  17  18
ENDBRANCH   2  17
TORSDOF 6
ENDMDL
