MODEL 1
REMARK VINA RESULT:      -9.6      0.000      0.000
REMARK  1 active torsions:
REMARK  status: ('A' for Active; 'I' for Inactive)
REMARK    1  A    between atoms: C_6  and  C_1 
REMARK       I    between atoms: N_9  and  C_6 
ROOT
ATOM      1  C   UNL d   1      53.372  30.838  53.556  0.00  0.00     0.107 A 
ATOM      2  C   UNL d   1      52.955  32.098  53.439  0.00  0.00     0.044 A 
ATOM      3  S   UNL d   1      53.790  31.298  54.095  0.00  0.00    -0.061 SA
ATOM      4  C   UNL d   1      53.533  32.077  54.023  0.00  0.00     0.112 A 
ATOM      5  C   UNL d   1      52.854  31.339  53.149  0.00  0.00     0.116 A 
ATOM      6  N   UNL d   1      53.748  32.779  54.416  0.00  0.00    -0.239 NA
ATOM      7  C   UNL d   1      52.591  32.814  53.242  0.00  0.00     0.005 A 
ATOM      8  C   UNL d   1      53.384  33.487  54.218  0.00  0.00     0.082 A 
ATOM      9  C   UNL d   1      52.805  33.497  53.629  0.00  0.00     0.018 A 
ATOM     10  N   UNL d   1      52.341  31.109  52.568  0.00  0.00    -0.147 N 
ATOM     11  C   UNL d   1      53.730  34.053  54.710  0.00  0.00     0.019 A 
ATOM     12  C   UNL d   1      52.326  34.082  53.284  0.00  0.00     0.002 A 
ATOM     13  C   UNL d   1      53.637  34.867  54.815  0.00  0.00     0.002 A 
ATOM     14  C   UNL d   1      52.238  34.905  53.395  0.00  0.00     0.000 A 
ATOM     15  C   UNL d   1      52.585  35.469  53.888  0.00  0.00     0.000 A 
ATOM     16  C   UNL d   1      53.165  35.452  54.476  0.00  0.00     0.000 A 
ENDROOT
BRANCH   1  17
ATOM     17  C   UNL d   1      53.455  30.048  53.445  0.00  0.00     0.272 C 
ATOM     18  N   UNL d   1      53.389  29.554  54.066  0.00  0.00    -0.272 N 
ATOM     19  C   UNL d   1      53.245  29.753  54.825  0.00  0.00     0.083 A 
ATOM     20  C   UNL d   1      53.459  28.748  54.032  0.00  0.00     0.083 A 
ATOM     21  C   UNL d   1      53.225  29.086  55.257  0.00  0.00     0.021 A 
ATOM     22  C   UNL d   1      53.356  28.469  54.777  0.00  0.00     0.021 A 
ATOM     23  O   UNL d   1      53.602  29.762  52.711  0.00  0.00    -0.266 OA
ENDBRANCH   1  17
TORSDOF 1
ENDMDL
MODEL 2
REMARK VINA RESULT:      -8.6      1.528      4.618
REMARK  1 active torsions:
REMARK  status: ('A' for Active; 'I' for Inactive)
REMARK    1  A    between atoms: C_6  and  C_1 
REMARK       I    between atoms: N_9  and  C_6 
ROOT
ATOM      1  C   UNL d   1      53.876  33.538  54.395  0.00  0.00     0.107 A 
ATOM      2  C   UNL d   1      53.736  32.214  54.465  0.00  0.00     0.044 A 
ATOM      3  S   UNL d   1      53.564  33.275  53.680  0.00  0.00    -0.061 SA
ATOM      4  C   UNL d   1      53.477  32.457  53.723  0.00  0.00     0.112 A 
ATOM      5  C   UNL d   1      53.981  32.875  54.881  0.00  0.00     0.116 A 
ATOM      6  N   UNL d   1      53.194  31.892  53.180  0.00  0.00    -0.239 NA
ATOM      7  C   UNL d   1      53.715  31.413  54.669  0.00  0.00     0.005 A 
ATOM      8  C   UNL d   1      53.175  31.098  53.387  0.00  0.00     0.082 A 
ATOM      9  C   UNL d   1      53.437  30.866  54.135  0.00  0.00     0.018 A 
ATOM     10  N   UNL d   1      54.277  32.889  55.633  0.00  0.00    -0.147 N 
ATOM     11  C   UNL d   1      52.868  30.711  52.725  0.00  0.00     0.019 A 
ATOM     12  C   UNL d   1      53.503  30.141  54.537  0.00  0.00     0.002 A 
ATOM     13  C   UNL d   1      52.698  29.924  52.541  0.00  0.00     0.002 A 
ATOM     14  C   UNL d   1      53.327  29.348  54.343  0.00  0.00     0.000 A 
ATOM     15  C   UNL d   1      53.021  28.962  53.681  0.00  0.00     0.000 A 
ATOM     16  C   UNL d   1      52.760  29.202  52.935  0.00  0.00     0.000 A 
ENDROOT
BRANCH   1  17
ATOM     17  C   UNL d   1      54.046  34.298  54.585  0.00  0.00     0.272 C 
ATOM     18  N   UNL d   1      53.485  34.857  54.513  0.00  0.00    -0.272 N 
ATOM     19  C   UNL d   1      52.734  34.756  54.262  0.00  0.00     0.083 A 
ATOM     20  C   UNL d   1      53.581  35.643  54.685  0.00  0.00     0.083 A 
ATOM     21  C   UNL d   1      52.369  35.462  54.277  0.00  0.00     0.021 A 
ATOM     22  C   UNL d   1      52.883  36.007  54.534  0.00  0.00     0.021 A 
ATOM     23  O   UNL d   1      54.779  34.488  54.846  0.00  0.00    -0.266 OA
ENDBRANCH   1  17
TORSDOF 1
ENDMDL
MODEL 3
REMARK VINA RESULT:      -8.4      2.601      4.491
REMARK  1 active torsions:
REMARK  status: ('A' for Active; 'I' for Inactive)
REMARK    1  A    between atoms: C_6  and  C_1 
REMARK       I    between atoms: N_9  and  C_6 
ROOT
ATOM      1  C   UNL d   1      50.794  34.237  52.698  0.00  0.00     0.107 A 
ATOM      2  C   UNL d   1      51.766  33.599  53.349  0.00  0.00     0.044 A 
ATOM      3  S   UNL d   1      51.332  34.798  52.969  0.00  0.00    -0.061 SA
ATOM      4  C   UNL d   1      51.933  34.404  53.372  0.00  0.00     0.112 A 
ATOM      5  C   UNL d   1      51.067  33.493  52.936  0.00  0.00     0.116 A 
ATOM      6  N   UNL d   1      52.619  34.671  53.761  0.00  0.00    -0.239 NA
ATOM      7  C   UNL d   1      52.277  33.059  53.712  0.00  0.00     0.005 A 
ATOM      8  C   UNL d   1      53.123  34.132  54.120  0.00  0.00     0.082 A 
ATOM      9  C   UNL d   1      52.945  33.326  54.091  0.00  0.00     0.018 A 
ATOM     10  N   UNL d   1      50.700  32.789  52.782  0.00  0.00    -0.147 N 
ATOM     11  C   UNL d   1      53.731  34.588  54.443  0.00  0.00     0.019 A 
ATOM     12  C   UNL d   1      53.305  32.633  54.376  0.00  0.00     0.002 A 
ATOM     13  C   UNL d   1      54.415  34.421  54.874  0.00  0.00     0.002 A 
ATOM     14  C   UNL d   1      53.999  32.473  54.812  0.00  0.00     0.000 A 
ATOM     15  C   UNL d   1      54.605  32.929  55.135  0.00  0.00     0.000 A 
ATOM     16  C   UNL d   1      54.777  33.737  55.160  0.00  0.00     0.000 A 
ENDROOT
BRANCH   1  17
ATOM     17  C   UNL d   1      50.127  34.388  52.279  0.00  0.00     0.272 C 
ATOM     18  N   UNL d   1      49.548  34.826  52.604  0.00  0.00    -0.272 N 
ATOM     19  C   UNL d   1      49.543  35.153  53.331  0.00  0.00     0.083 A 
ATOM     20  C   UNL d   1      48.849  35.018  52.243  0.00  0.00     0.083 A 
ATOM     21  C   UNL d   1      48.856  35.542  53.424  0.00  0.00     0.021 A 
ATOM     22  C   UNL d   1      48.428  35.463  52.762  0.00  0.00     0.021 A 
ATOM     23  O   UNL d   1      50.050  34.095  51.537  0.00  0.00    -0.266 OA
ENDBRANCH   1  17
TORSDOF 1
ENDMDL
MODEL 4
REMARK VINA RESULT:      -8.4      2.759      3.993
REMARK  1 active torsions:
REMARK  status: ('A' for Active; 'I' for Inactive)
REMARK    1  A    between atoms: C_6  and  C_1 
REMARK       I    between atoms: N_9  and  C_6 
ROOT
ATOM      1  C   UNL d   1      52.213  33.707  53.030  0.00  0.00     0.107 A 
ATOM      2  C   UNL d   1      51.025  34.309  53.046  0.00  0.00     0.044 A 
ATOM      3  S   UNL d   1      51.861  33.599  52.294  0.00  0.00    -0.061 SA
ATOM      4  C   UNL d   1      51.127  33.971  52.303  0.00  0.00     0.112 A 
ATOM      5  C   UNL d   1      51.690  34.149  53.495  0.00  0.00     0.116 A 
ATOM      6  N   UNL d   1      50.528  34.048  51.729  0.00  0.00    -0.239 NA
ATOM      7  C   UNL d   1      50.331  34.724  53.220  0.00  0.00     0.005 A 
ATOM      8  C   UNL d   1      49.841  34.461  51.906  0.00  0.00     0.082 A 
ATOM      9  C   UNL d   1      49.750  34.797  52.656  0.00  0.00     0.018 A 
ATOM     10  N   UNL d   1      51.823  34.378  54.259  0.00  0.00    -0.147 N 
ATOM     11  C   UNL d   1      49.385  34.424  51.219  0.00  0.00     0.019 A 
ATOM     12  C   UNL d   1      49.157  35.240  53.033  0.00  0.00     0.002 A 
ATOM     13  C   UNL d   1      48.642  34.712  51.000  0.00  0.00     0.002 A 
ATOM     14  C   UNL d   1      48.407  35.528  52.804  0.00  0.00     0.000 A 
ATOM     15  C   UNL d   1      47.951  35.490  52.117  0.00  0.00     0.000 A 
ATOM     16  C   UNL d   1      48.050  35.152  51.370  0.00  0.00     0.000 A 
ENDROOT
BRANCH   1  17
ATOM     17  C   UNL d   1      52.933  33.433  53.254  0.00  0.00     0.272 C 
ATOM     18  N   UNL d   1      53.075  32.650  53.252  0.00  0.00    -0.272 N 
ATOM     19  C   UNL d   1      52.568  32.070  53.044  0.00  0.00     0.083 A 
ATOM     20  C   UNL d   1      53.774  32.301  53.464  0.00  0.00     0.083 A 
ATOM     21  C   UNL d   1      52.941  31.373  53.125  0.00  0.00     0.021 A 
ATOM     22  C   UNL d   1      53.679  31.508  53.381  0.00  0.00     0.021 A 
ATOM     23  O   UNL d   1      53.503  33.950  53.478  0.00  0.00    -0.266 OA
ENDBRANCH   1  17
TORSDOF 1
ENDMDL
MODEL 5
REMARK VINA RESULT:      -8.1      2.754      4.852
REMARK  1 active torsions:
REMARK  status: ('A' for Active; 'I' for Inactive)
REMARK    1  A    between atoms: C_6  and  C_1 
REMARK       I    between atoms: N_9  and  C_6 
ROOT
ATOM      1  C   UNL d   1      50.483  34.172  52.877  0.00  0.00     0.107 A 
ATOM      2  C   UNL d   1      51.727  33.786  53.156  0.00  0.00     0.044 A 
ATOM      3  S   UNL d   1      50.523  33.354  52.795  0.00  0.00    -0.061 SA
ATOM      4  C   UNL d   1      51.292  33.115  52.967  0.00  0.00     0.112 A 
ATOM      5  C   UNL d   1      51.234  34.437  53.102  0.00  0.00     0.116 A 
ATOM      6  N   UNL d   1      51.660  32.368  52.978  0.00  0.00    -0.239 NA
ATOM      7  C   UNL d   1      52.527  33.718  53.356  0.00  0.00     0.005 A 
ATOM      8  C   UNL d   1      52.454  32.305  53.176  0.00  0.00     0.082 A 
ATOM      9  C   UNL d   1      52.882  32.986  53.364  0.00  0.00     0.018 A 
ATOM     10  N   UNL d   1      51.435  35.208  53.242  0.00  0.00    -0.147 N 
ATOM     11  C   UNL d   1      52.624  31.499  53.129  0.00  0.00     0.019 A 
ATOM     12  C   UNL d   1      53.667  33.146  53.586  0.00  0.00     0.002 A 
ATOM     13  C   UNL d   1      53.301  31.041  53.252  0.00  0.00     0.002 A 
ATOM     14  C   UNL d   1      54.346  32.675  53.708  0.00  0.00     0.000 A 
ATOM     15  C   UNL d   1      54.515  31.869  53.661  0.00  0.00     0.000 A 
ATOM     16  C   UNL d   1      54.081  31.193  53.472  0.00  0.00     0.000 A 
ENDROOT
BRANCH   1  17
ATOM     17  C   UNL d   1      49.833  34.627  52.760  0.00  0.00     0.272 C 
ATOM     18  N   UNL d   1      49.464  34.614  52.056  0.00  0.00    -0.272 N 
ATOM     19  C   UNL d   1      49.667  34.185  51.414  0.00  0.00     0.083 A 
ATOM     20  C   UNL d   1      48.805  35.044  51.864  0.00  0.00     0.083 A 
ATOM     21  C   UNL d   1      49.147  34.342  50.835  0.00  0.00     0.021 A 
ATOM     22  C   UNL d   1      48.618  34.867  51.104  0.00  0.00     0.021 A 
ATOM     23  O   UNL d   1      49.560  35.090  53.355  0.00  0.00    -0.266 OA
ENDBRANCH   1  17
TORSDOF 1
ENDMDL
MODEL 6
REMARK VINA RESULT:      -8.0      2.258      3.570
REMARK  1 active torsions:
REMARK  status: ('A' for Active; 'I' for Inactive)
REMARK    1  A    between atoms: C_6  and  C_1 
REMARK       I    between atoms: N_9  and  C_6 
ROOT
ATOM      1  C   UNL d   1      52.715  33.124  53.738  0.00  0.00     0.107 A 
ATOM      2  C   UNL d   1      51.764  33.460  52.867  0.00  0.00     0.044 A 
ATOM      3  S   UNL d   1      52.177  33.614  54.123  0.00  0.00    -0.061 SA
ATOM      4  C   UNL d   1      51.589  33.822  53.585  0.00  0.00     0.112 A 
ATOM      5  C   UNL d   1      52.455  33.031  52.958  0.00  0.00     0.116 A 
ATOM      6  N   UNL d   1      50.909  34.298  53.651  0.00  0.00    -0.239 NA
ATOM      7  C   UNL d   1      51.266  33.570  52.216  0.00  0.00     0.005 A 
ATOM      8  C   UNL d   1      50.418  34.404  53.002  0.00  0.00     0.082 A 
ATOM      9  C   UNL d   1      50.603  34.036  52.286  0.00  0.00     0.018 A 
ATOM     10  N   UNL d   1      52.826  32.590  52.391  0.00  0.00    -0.147 N 
ATOM     11  C   UNL d   1      49.812  34.899  53.269  0.00  0.00     0.019 A 
ATOM     12  C   UNL d   1      50.257  34.009  51.531  0.00  0.00     0.002 A 
ATOM     13  C   UNL d   1      49.139  35.230  52.923  0.00  0.00     0.002 A 
ATOM     14  C   UNL d   1      49.575  34.348  51.190  0.00  0.00     0.000 A 
ATOM     15  C   UNL d   1      48.970  34.842  51.457  0.00  0.00     0.000 A 
ATOM     16  C   UNL d   1      48.791  35.207  52.176  0.00  0.00     0.000 A 
ENDROOT
BRANCH   1  17
ATOM     17  C   UNL d   1      53.371  32.797  54.063  0.00  0.00     0.272 C 
ATOM     18  N   UNL d   1      53.888  33.257  54.455  0.00  0.00    -0.272 N 
ATOM     19  C   UNL d   1      53.836  34.044  54.575  0.00  0.00     0.083 A 
ATOM     20  C   UNL d   1      54.570  32.999  54.808  0.00  0.00     0.083 A 
ATOM     21  C   UNL d   1      54.471  34.274  54.994  0.00  0.00     0.021 A 
ATOM     22  C   UNL d   1      54.923  33.639  55.139  0.00  0.00     0.021 A 
ATOM     23  O   UNL d   1      53.501  32.009  53.989  0.00  0.00    -0.266 OA
ENDBRANCH   1  17
TORSDOF 1
ENDMDL
MODEL 7
REMARK VINA RESULT:      -6.7      9.940     11.283
REMARK  1 active torsions:
REMARK  status: ('A' for Active; 'I' for Inactive)
REMARK    1  A    between atoms: C_6  and  C_1 
REMARK       I    between atoms: N_9  and  C_6 
ROOT
ATOM      1  C   UNL d   1      44.564  30.103  59.901  0.00  0.00     0.107 A 
ATOM      2  C   UNL d   1      44.906  29.244  58.941  0.00  0.00     0.044 A 
ATOM      3  S   UNL d   1      44.325  29.350  60.133  0.00  0.00    -0.061 SA
ATOM      4  C   UNL d   1      44.536  28.819  59.540  0.00  0.00     0.112 A 
ATOM      5  C   UNL d   1      44.925  30.033  59.159  0.00  0.00     0.116 A 
ATOM      6  N   UNL d   1      44.440  27.995  59.462  0.00  0.00    -0.239 NA
ATOM      7  C   UNL d   1      45.181  28.854  58.265  0.00  0.00     0.005 A 
ATOM      8  C   UNL d   1      44.714  27.612  58.790  0.00  0.00     0.082 A 
ATOM      9  C   UNL d   1      45.085  28.049  58.195  0.00  0.00     0.018 A 
ATOM     10  N   UNL d   1      45.240  30.643  58.733  0.00  0.00    -0.147 N 
ATOM     11  C   UNL d   1      44.526  26.816  58.904  0.00  0.00     0.019 A 
ATOM     12  C   UNL d   1      45.425  27.870  57.458  0.00  0.00     0.002 A 
ATOM     13  C   UNL d   1      44.635  26.126  58.463  0.00  0.00     0.002 A 
ATOM     14  C   UNL d   1      45.530  27.167  57.019  0.00  0.00     0.000 A 
ATOM     15  C   UNL d   1      45.342  26.372  57.134  0.00  0.00     0.000 A 
ATOM     16  C   UNL d   1      44.971  25.942  57.734  0.00  0.00     0.000 A 
ENDROOT
BRANCH   1  17
ATOM     17  C   UNL d   1      44.465  30.779  60.319  0.00  0.00     0.272 C 
ATOM     18  N   UNL d   1      44.517  30.764  61.113  0.00  0.00    -0.272 N 
ATOM     19  C   UNL d   1      44.663  30.128  61.573  0.00  0.00     0.083 A 
ATOM     20  C   UNL d   1      44.429  31.404  61.601  0.00  0.00     0.083 A 
ATOM     21  C   UNL d   1      44.667  30.365  62.331  0.00  0.00     0.021 A 
ATOM     22  C   UNL d   1      44.524  31.144  62.354  0.00  0.00     0.021 A 
ATOM     23  O   UNL d   1      44.314  31.466  59.935  0.00  0.00    -0.266 OA
ENDBRANCH   1  17
TORSDOF 1
ENDMDL
MODEL 8
REMARK VINA RESULT:      -6.7      9.493     10.062
REMARK  1 active torsions:
REMARK  status: ('A' for Active; 'I' for Inactive)
REMARK    1  A    between atoms: C_6  and  C_1 
REMARK       I    between atoms: N_9  and  C_6 
ROOT
ATOM      1  C   UNL d   1      44.876  26.698  57.253  0.00  0.00     0.107 A 
ATOM      2  C   UNL d   1      44.735  28.016  57.120  0.00  0.00     0.044 A 
ATOM      3  S   UNL d   1      45.141  27.056  57.946  0.00  0.00    -0.061 SA
ATOM      4  C   UNL d   1      45.054  27.871  57.863  0.00  0.00     0.112 A 
ATOM      5  C   UNL d   1      44.624  27.298  56.742  0.00  0.00     0.116 A 
ATOM      6  N   UNL d   1      45.225  28.509  58.371  0.00  0.00    -0.239 NA
ATOM      7  C   UNL d   1      44.585  28.793  56.878  0.00  0.00     0.005 A 
ATOM      8  C   UNL d   1      45.074  29.278  58.127  0.00  0.00     0.082 A 
ATOM      9  C   UNL d   1      44.753  29.413  57.378  0.00  0.00     0.018 A 
ATOM     10  N   UNL d   1      44.323  27.185  56.000  0.00  0.00    -0.147 N 
ATOM     11  C   UNL d   1      45.307  29.754  58.761  0.00  0.00     0.019 A 
ATOM     12  C   UNL d   1      44.530  30.086  56.946  0.00  0.00     0.002 A 
ATOM     13  C   UNL d   1      45.314  30.567  58.903  0.00  0.00     0.002 A 
ATOM     14  C   UNL d   1      44.541  30.907  57.098  0.00  0.00     0.000 A 
ATOM     15  C   UNL d   1      44.774  31.382  57.731  0.00  0.00     0.000 A 
ATOM     16  C   UNL d   1      45.095  31.239  58.479  0.00  0.00     0.000 A 
ENDROOT
BRANCH   1  17
ATOM     17  C   UNL d   1      44.864  25.910  57.104  0.00  0.00     0.272 C 
ATOM     18  N   UNL d   1      44.667  25.402  57.683  0.00  0.00    -0.272 N 
ATOM     19  C   UNL d   1      44.469  25.582  58.435  0.00  0.00     0.083 A 
ATOM     20  C   UNL d   1      44.634  24.596  57.607  0.00  0.00     0.083 A 
ATOM     21  C   UNL d   1      44.315  24.905  58.821  0.00  0.00     0.021 A 
ATOM     22  C   UNL d   1      44.414  24.299  58.320  0.00  0.00     0.021 A 
ATOM     23  O   UNL d   1      45.051  25.642  56.372  0.00  0.00    -0.266 OA
ENDBRANCH   1  17
TORSDOF 1
ENDMDL
