MODEL 1
REMARK VINA RESULT:      -2.5      0.000      0.000
REMARK  6 active torsions:
REMARK  status: ('A' for Active; 'I' for Inactive)
REMARK    1  A    between atoms: C_8  and  C_1 
REMARK    2  A    between atoms: C_13  and  N_2 
REMARK    3  A    between atoms: C_7  and  C_4 
REMARK    4  A    between atoms: C_6  and  C_8 
REMARK    5  A    between atoms: C_21  and  C_13 
REMARK    6  A    between atoms: N_22  and  C_21 
ROOT
ATOM      1  C   UNL d   1      58.471  -1.168  29.595  0.00  0.00     0.103 A 
ATOM      2  N   UNL d   1      59.286  -2.170  29.261  0.00  0.00    -0.267 N 
ATOM      3  C   UNL d   1      58.034  -1.869  29.608  0.00  0.00     0.256 A 
ATOM      4  C   UNL d   1      59.241  -1.356  29.382  0.00  0.00     0.096 A 
ATOM      5  C   UNL d   1      58.538  -2.490  29.401  0.00  0.00     0.304 A 
ATOM      6  O   UNL d   1      58.323  -3.287  29.346  0.00  0.00    -0.263 OA
ATOM      7  O   UNL d   1      57.228  -1.942  29.795  0.00  0.00    -0.281 OA
ENDROOT
BRANCH   1   8
ATOM      8  C   UNL d   1      58.183  -0.418  29.766  0.00  0.00     0.223 C 
ATOM      9  O   UNL d   1      58.164   0.163  29.177  0.00  0.00    -0.284 OA
BRANCH   8  10
ATOM     10  C   UNL d   1      57.909  -0.232  30.524  0.00  0.00     0.139 A 
ATOM     11  O   UNL d   1      57.180  -0.444  30.850  0.00  0.00    -0.304 OA
ATOM     12  C   UNL d   1      57.147  -0.139  31.615  0.00  0.00     0.100 A 
ATOM     13  C   UNL d   1      56.567  -0.175  32.191  0.00  0.00     0.025 A 
ATOM     14  C   UNL d   1      57.847   0.259  31.763  0.00  0.00     0.025 A 
ATOM     15  C   UNL d   1      56.686   0.186  32.914  0.00  0.00     0.002 A 
ATOM     16  C   UNL d   1      57.386   0.584  33.064  0.00  0.00     0.000 A 
ATOM     17  C   UNL d   1      57.970   0.623  32.491  0.00  0.00     0.002 A 
ATOM     18  C   UNL d   1      58.319   0.200  31.085  0.00  0.00     0.030 A 
ENDBRANCH   8  10
ENDBRANCH   1   8
BRANCH   4  19
ATOM     19  C   UNL d   1      59.871  -0.812  29.301  0.00  0.00     0.116 A 
ATOM     20  O   UNL d   1      60.066  -0.298  28.688  0.00  0.00    -0.306 OA
ATOM     21  C   UNL d   1      60.742   0.109  28.904  0.00  0.00     0.100 A 
ATOM     22  C   UNL d   1      61.133   0.681  28.455  0.00  0.00     0.027 C 
ATOM     23  C   UNL d   1      60.975  -0.147  29.653  0.00  0.00     0.027 A 
ATOM     24  C   UNL d   1      60.430  -0.723  29.901  0.00  0.00     0.028 A 
ENDBRANCH   4  19
BRANCH   2  25
ATOM     25  C   UNL d   1      59.957  -2.599  29.040  0.00  0.00     0.102 C 
BRANCH  25  26
ATOM     26  C   UNL d   1      59.995  -3.413  29.188  0.00  0.00     0.100 C 
BRANCH  26  27
ATOM     27  N   UNL d   1      60.728  -3.788  29.276  0.00  0.00    -0.299 N 
ATOM     28  C   UNL d   1      61.101  -3.790  30.012  0.00  0.00     0.100 C 
ATOM     29  C   UNL d   1      61.076  -4.154  28.628  0.00  0.00     0.100 C 
ENDBRANCH  26  27
ENDBRANCH  25  26
ENDBRANCH   2  25
TORSDOF 6
ENDMDL
