MODEL 1
REMARK VINA RESULT:      -8.3      0.000      0.000
REMARK  1 active torsions:
REMARK  status: ('A' for Active; 'I' for Inactive)
REMARK    1  A    between atoms: C_5  and  C_1 
ROOT
ATOM      1  N   UNL d   1     -47.929  12.661  23.287  0.00  0.00    -0.242 NA
ATOM      2  C   UNL d   1     -47.924  13.424  22.976  0.00  0.00     0.117 A 
ATOM      3  C   UNL d   1     -47.207  12.244  23.335  0.00  0.00     0.081 A 
ATOM      4  C   UNL d   1     -47.238  13.771  22.720  0.00  0.00     0.022 A 
ATOM      5  C   UNL d   1     -46.524  12.585  23.082  0.00  0.00     0.018 A 
ATOM      6  C   UNL d   1     -46.536  13.340  22.778  0.00  0.00     0.003 A 
ATOM      7  C   UNL d   1     -47.205  11.482  23.645  0.00  0.00     0.019 A 
ATOM      8  C   UNL d   1     -45.822  12.153  23.140  0.00  0.00     0.002 A 
ATOM      9  C   UNL d   1     -46.494  11.058  23.698  0.00  0.00     0.002 A 
ATOM     10  C   UNL d   1     -45.809  11.402  23.443  0.00  0.00     0.000 A 
ENDROOT
BRANCH   2  11
ATOM     11  C   UNL d   1     -48.619  13.852  22.919  0.00  0.00     0.180 A 
ATOM     12  N   UNL d   1     -49.280  13.664  22.447  0.00  0.00    -0.224 NA
ATOM     13  C   UNL d   1     -49.839  14.239  22.563  0.00  0.00     0.101 A 
ATOM     14  C   UNL d   1     -50.608  14.345  22.242  0.00  0.00     0.021 A 
ATOM     15  C   UNL d   1     -49.544  14.791  23.103  0.00  0.00     0.101 A 
ATOM     16  C   UNL d   1     -51.064  14.993  22.462  0.00  0.00     0.002 A 
ATOM     17  C   UNL d   1     -50.769  15.545  23.002  0.00  0.00     0.002 A 
ATOM     18  C   UNL d   1     -50.015  15.454  23.326  0.00  0.00     0.021 A 
ATOM     19  N   UNL d   1     -48.799  14.563  23.326  0.00  0.00    -0.224 NA
ENDBRANCH   2  11
TORSDOF 1
ENDMDL
MODEL 2
REMARK VINA RESULT:      -8.0      0.549      4.290
REMARK  1 active torsions:
REMARK  status: ('A' for Active; 'I' for Inactive)
REMARK    1  A    between atoms: C_5  and  C_1 
ROOT
ATOM      1  N   UNL d   1     -49.082  14.156  23.358  0.00  0.00    -0.242 NA
ATOM      2  C   UNL d   1     -48.879  13.547  22.842  0.00  0.00     0.117 A 
ATOM      3  C   UNL d   1     -49.753  14.621  23.184  0.00  0.00     0.081 A 
ATOM      4  C   UNL d   1     -49.316  13.394  22.176  0.00  0.00     0.022 A 
ATOM      5  C   UNL d   1     -50.190  14.472  22.525  0.00  0.00     0.018 A 
ATOM      6  C   UNL d   1     -49.976  13.867  22.025  0.00  0.00     0.003 A 
ATOM      7  C   UNL d   1     -49.962  15.230  23.695  0.00  0.00     0.019 A 
ATOM      8  C   UNL d   1     -50.850  14.945  22.374  0.00  0.00     0.002 A 
ATOM      9  C   UNL d   1     -50.628  15.699  23.533  0.00  0.00     0.002 A 
ATOM     10  C   UNL d   1     -51.064  15.548  22.870  0.00  0.00     0.000 A 
ENDROOT
BRANCH   2  11
ATOM     11  C   UNL d   1     -48.225  13.079  22.992  0.00  0.00     0.180 A 
ATOM     12  N   UNL d   1     -47.432  13.261  22.811  0.00  0.00    -0.224 NA
ATOM     13  C   UNL d   1     -46.972  12.640  23.057  0.00  0.00     0.101 A 
ATOM     14  C   UNL d   1     -46.144  12.510  23.023  0.00  0.00     0.021 A 
ATOM     15  C   UNL d   1     -47.461  12.065  23.393  0.00  0.00     0.101 A 
ATOM     16  C   UNL d   1     -45.820  11.815  23.321  0.00  0.00     0.002 A 
ATOM     17  C   UNL d   1     -46.308  11.240  23.657  0.00  0.00     0.002 A 
ATOM     18  C   UNL d   1     -47.126  11.354  23.698  0.00  0.00     0.021 A 
ATOM     19  N   UNL d   1     -48.229  12.324  23.358  0.00  0.00    -0.224 NA
ENDBRANCH   2  11
TORSDOF 1
ENDMDL
MODEL 3
REMARK VINA RESULT:      -7.6      0.854      4.167
REMARK  1 active torsions:
REMARK  status: ('A' for Active; 'I' for Inactive)
REMARK    1  A    between atoms: C_5  and  C_1 
ROOT
ATOM      1  N   UNL d   1     -48.975  13.809  23.209  0.00  0.00    -0.242 NA
ATOM      2  C   UNL d   1     -48.291  14.167  22.920  0.00  0.00     0.117 A 
ATOM      3  C   UNL d   1     -49.675  14.261  23.252  0.00  0.00     0.081 A 
ATOM      4  C   UNL d   1     -48.289  14.942  22.680  0.00  0.00     0.022 A 
ATOM      5  C   UNL d   1     -49.678  15.029  23.015  0.00  0.00     0.018 A 
ATOM      6  C   UNL d   1     -48.994  15.369  22.732  0.00  0.00     0.003 A 
ATOM      7  C   UNL d   1     -50.362  13.910  23.539  0.00  0.00     0.019 A 
ATOM      8  C   UNL d   1     -50.383  15.457  23.067  0.00  0.00     0.002 A 
ATOM      9  C   UNL d   1     -51.064  14.349  23.587  0.00  0.00     0.002 A 
ATOM     10  C   UNL d   1     -51.064  15.121  23.348  0.00  0.00     0.000 A 
ENDROOT
BRANCH   2  11
ATOM     11  C   UNL d   1     -47.593  13.744  22.869  0.00  0.00     0.180 A 
ATOM     12  N   UNL d   1     -47.417  13.028  23.256  0.00  0.00    -0.224 NA
ATOM     13  C   UNL d   1     -46.665  12.810  23.045  0.00  0.00     0.101 A 
ATOM     14  C   UNL d   1     -46.194  12.148  23.258  0.00  0.00     0.021 A 
ATOM     15  C   UNL d   1     -46.359  13.377  22.529  0.00  0.00     0.101 A 
ATOM     16  C   UNL d   1     -45.434  12.064  22.955  0.00  0.00     0.002 A 
ATOM     17  C   UNL d   1     -45.129  12.631  22.438  0.00  0.00     0.002 A 
ATOM     18  C   UNL d   1     -45.580  13.288  22.220  0.00  0.00     0.021 A 
ATOM     19  N   UNL d   1     -46.919  13.953  22.414  0.00  0.00    -0.224 NA
ENDBRANCH   2  11
TORSDOF 1
ENDMDL
MODEL 4
REMARK VINA RESULT:      -7.3      0.693      1.229
REMARK  1 active torsions:
REMARK  status: ('A' for Active; 'I' for Inactive)
REMARK    1  A    between atoms: C_5  and  C_1 
ROOT
ATOM      1  N   UNL d   1     -47.209  13.798  22.673  0.00  0.00    -0.242 NA
ATOM      2  C   UNL d   1     -47.871  13.539  23.090  0.00  0.00     0.117 A 
ATOM      3  C   UNL d   1     -46.517  13.332  22.692  0.00  0.00     0.081 A 
ATOM      4  C   UNL d   1     -47.860  12.848  23.512  0.00  0.00     0.022 A 
ATOM      5  C   UNL d   1     -46.501  12.645  23.110  0.00  0.00     0.018 A 
ATOM      6  C   UNL d   1     -47.164  12.403  23.516  0.00  0.00     0.003 A 
ATOM      7  C   UNL d   1     -45.852  13.584  22.278  0.00  0.00     0.019 A 
ATOM      8  C   UNL d   1     -45.805  12.200  23.114  0.00  0.00     0.002 A 
ATOM      9  C   UNL d   1     -45.158  13.130  22.290  0.00  0.00     0.002 A 
ATOM     10  C   UNL d   1     -45.146  12.440  22.711  0.00  0.00     0.000 A 
ENDROOT
BRANCH   2  11
ATOM     11  C   UNL d   1     -48.561  13.980  23.085  0.00  0.00     0.180 A 
ATOM     12  N   UNL d   1     -49.339  13.684  23.112  0.00  0.00    -0.224 NA
ATOM     13  C   UNL d   1     -49.846  14.316  23.096  0.00  0.00     0.101 A 
ATOM     14  C   UNL d   1     -50.684  14.362  23.111  0.00  0.00     0.021 A 
ATOM     15  C   UNL d   1     -49.402  15.011  23.060  0.00  0.00     0.101 A 
ATOM     16  C   UNL d   1     -51.061  15.092  23.089  0.00  0.00     0.002 A 
ATOM     17  C   UNL d   1     -50.617  15.787  23.053  0.00  0.00     0.002 A 
ATOM     18  C   UNL d   1     -49.791  15.759  23.038  0.00  0.00     0.021 A 
ATOM     19  N   UNL d   1     -48.614  14.817  23.053  0.00  0.00    -0.224 NA
ENDBRANCH   2  11
TORSDOF 1
ENDMDL
MODEL 5
REMARK VINA RESULT:      -7.1      1.520      2.611
REMARK  1 active torsions:
REMARK  status: ('A' for Active; 'I' for Inactive)
REMARK    1  A    between atoms: C_5  and  C_1 
ROOT
ATOM      1  N   UNL d   1     -45.324  12.036  22.964  0.00  0.00    -0.242 NA
ATOM      2  C   UNL d   1     -46.126  12.036  23.154  0.00  0.00     0.117 A 
ATOM      3  C   UNL d   1     -44.867  11.364  23.155  0.00  0.00     0.081 A 
ATOM      4  C   UNL d   1     -46.473  11.401  23.519  0.00  0.00     0.022 A 
ATOM      5  C   UNL d   1     -45.207  10.732  23.516  0.00  0.00     0.018 A 
ATOM      6  C   UNL d   1     -46.001  10.747  23.698  0.00  0.00     0.003 A 
ATOM      7  C   UNL d   1     -44.066  11.358  22.968  0.00  0.00     0.019 A 
ATOM      8  C   UNL d   1     -44.735  10.078  23.695  0.00  0.00     0.002 A 
ATOM      9  C   UNL d   1     -43.601  10.695  23.152  0.00  0.00     0.002 A 
ATOM     10  C   UNL d   1     -43.946  10.061  23.516  0.00  0.00     0.000 A 
ENDROOT
BRANCH   2  11
ATOM     11  C   UNL d   1     -46.593  12.684  22.977  0.00  0.00     0.180 A 
ATOM     12  N   UNL d   1     -47.320  12.675  22.570  0.00  0.00    -0.224 NA
ATOM     13  C   UNL d   1     -47.586  13.439  22.520  0.00  0.00     0.101 A 
ATOM     14  C   UNL d   1     -48.277  13.770  22.177  0.00  0.00     0.021 A 
ATOM     15  C   UNL d   1     -47.039  13.935  22.890  0.00  0.00     0.101 A 
ATOM     16  C   UNL d   1     -48.410  14.580  22.208  0.00  0.00     0.002 A 
ATOM     17  C   UNL d   1     -47.862  15.076  22.578  0.00  0.00     0.002 A 
ATOM     18  C   UNL d   1     -47.177  14.766  22.920  0.00  0.00     0.021 A 
ATOM     19  N   UNL d   1     -46.428  13.483  23.173  0.00  0.00    -0.224 NA
ENDBRANCH   2  11
TORSDOF 1
ENDMDL
MODEL 6
REMARK VINA RESULT:      -6.9      1.288      4.571
REMARK  1 active torsions:
REMARK  status: ('A' for Active; 'I' for Inactive)
REMARK    1  A    between atoms: C_5  and  C_1 
ROOT
ATOM      1  N   UNL d   1     -47.557  12.609  22.503  0.00  0.00    -0.242 NA
ATOM      2  C   UNL d   1     -46.851  12.831  22.865  0.00  0.00     0.117 A 
ATOM      3  C   UNL d   1     -48.136  13.193  22.360  0.00  0.00     0.081 A 
ATOM      4  C   UNL d   1     -46.713  13.600  23.083  0.00  0.00     0.022 A 
ATOM      5  C   UNL d   1     -48.003  13.956  22.575  0.00  0.00     0.018 A 
ATOM      6  C   UNL d   1     -47.300  14.161  22.932  0.00  0.00     0.003 A 
ATOM      7  C   UNL d   1     -48.842  12.977  21.999  0.00  0.00     0.019 A 
ATOM      8  C   UNL d   1     -48.590  14.517  22.424  0.00  0.00     0.002 A 
ATOM      9  C   UNL d   1     -49.425  13.550  21.852  0.00  0.00     0.002 A 
ATOM     10  C   UNL d   1     -49.289  14.316  22.069  0.00  0.00     0.000 A 
ENDROOT
BRANCH   2  11
ATOM     11  C   UNL d   1     -46.269  12.275  23.014  0.00  0.00     0.180 A 
ATOM     12  N   UNL d   1     -46.376  11.527  23.364  0.00  0.00    -0.224 NA
ATOM     13  C   UNL d   1     -45.652  11.166  23.404  0.00  0.00     0.101 A 
ATOM     14  C   UNL d   1     -45.416  10.415  23.697  0.00  0.00     0.021 A 
ATOM     15  C   UNL d   1     -45.084  11.673  23.083  0.00  0.00     0.101 A 
ATOM     16  C   UNL d   1     -44.627  10.186  23.667  0.00  0.00     0.002 A 
ATOM     17  C   UNL d   1     -44.059  10.694  23.346  0.00  0.00     0.002 A 
ATOM     18  C   UNL d   1     -44.276  11.436  23.053  0.00  0.00     0.021 A 
ATOM     19  N   UNL d   1     -45.452  12.355  22.842  0.00  0.00    -0.224 NA
ENDBRANCH   2  11
TORSDOF 1
ENDMDL
MODEL 7
REMARK VINA RESULT:      -6.2      8.906      9.537
REMARK  1 active torsions:
REMARK  status: ('A' for Active; 'I' for Inactive)
REMARK    1  A    between atoms: C_5  and  C_1 
ROOT
ATOM      1  N   UNL d   1     -39.048  14.055  20.371  0.00  0.00    -0.242 NA
ATOM      2  C   UNL d   1     -39.645  14.608  20.238  0.00  0.00     0.117 A 
ATOM      3  C   UNL d   1     -38.860  13.851  21.158  0.00  0.00     0.081 A 
ATOM      4  C   UNL d   1     -40.046  14.952  20.853  0.00  0.00     0.022 A 
ATOM      5  C   UNL d   1     -39.255  14.190  21.771  0.00  0.00     0.018 A 
ATOM      6  C   UNL d   1     -39.842  14.734  21.623  0.00  0.00     0.003 A 
ATOM      7  C   UNL d   1     -38.265  13.300  21.298  0.00  0.00     0.019 A 
ATOM      8  C   UNL d   1     -39.051  13.972  22.541  0.00  0.00     0.002 A 
ATOM      9  C   UNL d   1     -38.069  13.089  22.076  0.00  0.00     0.002 A 
ATOM     10  C   UNL d   1     -38.468  13.431  22.690  0.00  0.00     0.000 A 
ENDROOT
BRANCH   2  11
ATOM     11  C   UNL d   1     -39.847  14.823  19.475  0.00  0.00     0.180 A 
ATOM     12  N   UNL d   1     -40.457  14.496  19.012  0.00  0.00    -0.224 NA
ATOM     13  C   UNL d   1     -40.457  14.876  18.296  0.00  0.00     0.101 A 
ATOM     14  C   UNL d   1     -40.939  14.785  17.614  0.00  0.00     0.021 A 
ATOM     15  C   UNL d   1     -39.855  15.441  18.296  0.00  0.00     0.101 A 
ATOM     16  C   UNL d   1     -40.813  15.255  16.951  0.00  0.00     0.002 A 
ATOM     17  C   UNL d   1     -40.211  15.820  16.951  0.00  0.00     0.002 A 
ATOM     18  C   UNL d   1     -39.728  15.922  17.614  0.00  0.00     0.021 A 
ATOM     19  N   UNL d   1     -39.476  15.417  19.012  0.00  0.00    -0.224 NA
ENDBRANCH   2  11
TORSDOF 1
ENDMDL
MODEL 8
REMARK VINA RESULT:      -6.2      8.960     10.437
REMARK  1 active torsions:
REMARK  status: ('A' for Active; 'I' for Inactive)
REMARK    1  A    between atoms: C_5  and  C_1 
ROOT
ATOM      1  N   UNL d   1     -38.917  15.060  17.697  0.00  0.00    -0.242 NA
ATOM      2  C   UNL d   1     -39.303  14.569  18.234  0.00  0.00     0.117 A 
ATOM      3  C   UNL d   1     -38.623  14.728  16.990  0.00  0.00     0.081 A 
ATOM      4  C   UNL d   1     -39.400  13.777  18.088  0.00  0.00     0.022 A 
ATOM      5  C   UNL d   1     -38.717  13.943  16.841  0.00  0.00     0.018 A 
ATOM      6  C   UNL d   1     -39.101  13.471  17.381  0.00  0.00     0.003 A 
ATOM      7  C   UNL d   1     -38.237  15.213  16.450  0.00  0.00     0.019 A 
ATOM      8  C   UNL d   1     -38.418  13.637  16.135  0.00  0.00     0.002 A 
ATOM      9  C   UNL d   1     -37.940  14.894  15.743  0.00  0.00     0.002 A 
ATOM     10  C   UNL d   1     -38.036  14.105  15.596  0.00  0.00     0.000 A 
ENDROOT
BRANCH   2  11
ATOM     11  C   UNL d   1     -39.600  14.872  18.934  0.00  0.00     0.180 A 
ATOM     12  N   UNL d   1     -40.380  15.130  19.071  0.00  0.00    -0.224 NA
ATOM     13  C   UNL d   1     -40.425  15.387  19.839  0.00  0.00     0.101 A 
ATOM     14  C   UNL d   1     -41.060  15.704  20.287  0.00  0.00     0.021 A 
ATOM     15  C   UNL d   1     -39.684  15.296  20.193  0.00  0.00     0.101 A 
ATOM     16  C   UNL d   1     -40.947  15.922  21.072  0.00  0.00     0.002 A 
ATOM     17  C   UNL d   1     -40.206  15.831  21.426  0.00  0.00     0.002 A 
ATOM     18  C   UNL d   1     -39.571  15.520  20.998  0.00  0.00     0.021 A 
ATOM     19  N   UNL d   1     -39.172  14.982  19.648  0.00  0.00    -0.224 NA
ENDBRANCH   2  11
TORSDOF 1
ENDMDL
MODEL 9
REMARK VINA RESULT:      -6.2      8.910      9.986
REMARK  1 active torsions:
REMARK  status: ('A' for Active; 'I' for Inactive)
REMARK    1  A    between atoms: C_5  and  C_1 
ROOT
ATOM      1  N   UNL d   1     -39.849  14.469  18.985  0.00  0.00    -0.242 NA
ATOM      2  C   UNL d   1     -39.862  14.839  19.722  0.00  0.00     0.117 A 
ATOM      3  C   UNL d   1     -40.215  14.850  18.339  0.00  0.00     0.081 A 
ATOM      4  C   UNL d   1     -40.221  15.559  19.826  0.00  0.00     0.022 A 
ATOM      5  C   UNL d   1     -40.572  15.564  18.438  0.00  0.00     0.018 A 
ATOM      6  C   UNL d   1     -40.576  15.917  19.172  0.00  0.00     0.003 A 
ATOM      7  C   UNL d   1     -40.206  14.486  17.602  0.00  0.00     0.019 A 
ATOM      8  C   UNL d   1     -40.927  15.922  17.784  0.00  0.00     0.002 A 
ATOM      9  C   UNL d   1     -40.566  14.855  16.951  0.00  0.00     0.002 A 
ATOM     10  C   UNL d   1     -40.924  15.572  17.054  0.00  0.00     0.000 A 
ENDROOT
BRANCH   2  11
ATOM     11  C   UNL d   1     -39.510  14.484  20.369  0.00  0.00     0.180 A 
ATOM     12  N   UNL d   1     -38.717  14.238  20.430  0.00  0.00    -0.224 NA
ATOM     13  C   UNL d   1     -38.612  13.917  21.167  0.00  0.00     0.101 A 
ATOM     14  C   UNL d   1     -37.940  13.581  21.540  0.00  0.00     0.021 A 
ATOM     15  C   UNL d   1     -39.328  13.956  21.577  0.00  0.00     0.101 A 
ATOM     16  C   UNL d   1     -37.991  13.292  22.309  0.00  0.00     0.002 A 
ATOM     17  C   UNL d   1     -38.707  13.331  22.719  0.00  0.00     0.002 A 
ATOM     18  C   UNL d   1     -39.378  13.659  22.365  0.00  0.00     0.021 A 
ATOM     19  N   UNL d   1     -39.884  14.301  21.098  0.00  0.00    -0.224 NA
ENDBRANCH   2  11
TORSDOF 1
ENDMDL
