MODEL 1
REMARK VINA RESULT:      -3.1      0.000      0.000
REMARK  5 active torsions:
REMARK  status: ('A' for Active; 'I' for Inactive)
REMARK    1  A    between atoms: C_2  and  C_1 
REMARK    2  A    between atoms: C_3  and  C_1 
REMARK    3  A    between atoms: C_4  and  C_2 
REMARK    4  A    between atoms: C_8  and  C_3 
REMARK    5  A    between atoms: O_18  and  C_10 
ROOT
ATOM      1  C   UNL d   1      32.854  18.814 -23.598  0.00  0.00     0.196 C 
ATOM      2  O   UNL d   1      33.240  19.101 -24.270  0.00  0.00    -0.287 OA
ENDROOT
BRANCH   1   3
ATOM      3  C   UNL d   1      32.888  19.236 -22.889  0.00  0.00     0.042 C 
BRANCH   3   4
ATOM      4  C   UNL d   1      33.231  19.951 -22.654  0.00  0.00     0.003 C 
BRANCH   4   5
ATOM      5  C   UNL d   1      33.101  20.481 -22.035  0.00  0.00     0.000 A 
ATOM      6  C   UNL d   1      33.236  20.237 -21.256  0.00  0.00     0.003 A 
ATOM      7  C   UNL d   1      33.106  20.766 -20.634  0.00  0.00     0.042 A 
ATOM      8  C   UNL d   1      32.844  21.531 -20.797  0.00  0.00     0.196 A 
ATOM      9  C   UNL d   1      32.711  21.766 -21.578  0.00  0.00     0.042 A 
ATOM     10  O   UNL d   1      32.713  22.061 -20.178  0.00  0.00    -0.287 OA
ATOM     11  C   UNL d   1      32.839  21.244 -22.194  0.00  0.00     0.003 A 
ENDBRANCH   4   5
ENDBRANCH   3   4
ENDBRANCH   1   3
BRANCH   1  12
ATOM     12  C   UNL d   1      32.436  18.100 -23.650  0.00  0.00     0.039 A 
ATOM     13  C   UNL d   1      32.697  17.424 -23.255  0.00  0.00     0.005 A 
ATOM     14  C   UNL d   1      32.271  16.721 -23.317  0.00  0.00     0.024 A 
ATOM     15  C   UNL d   1      31.582  16.693 -23.773  0.00  0.00     0.094 A 
ATOM     16  C   UNL d   1      31.322  17.380 -24.171  0.00  0.00     0.024 A 
ATOM     17  C   UNL d   1      31.748  18.079 -24.109  0.00  0.00     0.005 A 
BRANCH  15  18
ATOM     18  O   UNL d   1      31.155  15.990 -23.835  0.00  0.00    -0.328 OA
ATOM     19  C   UNL d   1      30.337  15.995 -23.730  0.00  0.00     0.181 C 
ENDBRANCH  15  18
ENDBRANCH   1  12
TORSDOF 5
ENDMDL
MODEL 2
REMARK VINA RESULT:      -2.5      0.614      4.692
REMARK  5 active torsions:
REMARK  status: ('A' for Active; 'I' for Inactive)
REMARK    1  A    between atoms: C_2  and  C_1 
REMARK    2  A    between atoms: C_3  and  C_1 
REMARK    3  A    between atoms: C_4  and  C_2 
REMARK    4  A    between atoms: C_8  and  C_3 
REMARK    5  A    between atoms: O_18  and  C_10 
ROOT
ATOM      1  C   UNL d   1      33.079  20.060 -23.038  0.00  0.00     0.196 C 
ATOM      2  O   UNL d   1      33.241  20.425 -23.762  0.00  0.00    -0.287 OA
ENDROOT
BRANCH   1   3
ATOM      3  C   UNL d   1      32.908  19.253 -23.009  0.00  0.00     0.042 C 
BRANCH   3   4
ATOM      4  C   UNL d   1      32.870  18.647 -23.571  0.00  0.00     0.003 C 
BRANCH   4   5
ATOM      5  C   UNL d   1      32.549  17.887 -23.583  0.00  0.00     0.000 A 
ATOM      6  C   UNL d   1      32.952  17.269 -23.209  0.00  0.00     0.003 A 
ATOM      7  C   UNL d   1      32.632  16.507 -23.219  0.00  0.00     0.042 A 
ATOM      8  C   UNL d   1      31.915  16.370 -23.602  0.00  0.00     0.196 A 
ATOM      9  C   UNL d   1      31.518  16.993 -23.974  0.00  0.00     0.042 A 
ATOM     10  O   UNL d   1      31.593  15.610 -23.615  0.00  0.00    -0.287 OA
ATOM     11  C   UNL d   1      31.833  17.747 -23.964  0.00  0.00     0.003 A 
ENDBRANCH   4   5
ENDBRANCH   3   4
ENDBRANCH   1   3
BRANCH   1  12
ATOM     12  C   UNL d   1      33.092  20.519 -22.347  0.00  0.00     0.039 A 
ATOM     13  C   UNL d   1      32.976  20.175 -21.606  0.00  0.00     0.005 A 
ATOM     14  C   UNL d   1      32.992  20.644 -20.928  0.00  0.00     0.024 A 
ATOM     15  C   UNL d   1      33.123  21.458 -20.990  0.00  0.00     0.094 A 
ATOM     16  C   UNL d   1      33.239  21.801 -21.743  0.00  0.00     0.024 A 
ATOM     17  C   UNL d   1      33.223  21.332 -22.417  0.00  0.00     0.005 A 
BRANCH  15  18
ATOM     18  O   UNL d   1      33.139  21.927 -20.312  0.00  0.00    -0.328 OA
ATOM     19  C   UNL d   1      32.511  22.437 -20.150  0.00  0.00     0.181 C 
ENDBRANCH  15  18
ENDBRANCH   1  12
TORSDOF 5
ENDMDL
MODEL 3
REMARK VINA RESULT:      -2.4      2.386      4.501
REMARK  5 active torsions:
REMARK  status: ('A' for Active; 'I' for Inactive)
REMARK    1  A    between atoms: C_2  and  C_1 
REMARK    2  A    between atoms: C_3  and  C_1 
REMARK    3  A    between atoms: C_4  and  C_2 
REMARK    4  A    between atoms: C_8  and  C_3 
REMARK    5  A    between atoms: O_18  and  C_10 
ROOT
ATOM      1  C   UNL d   1      32.132  22.619 -20.952  0.00  0.00     0.196 C 
ATOM      2  O   UNL d   1      31.755  23.236 -21.354  0.00  0.00    -0.287 OA
ENDROOT
BRANCH   1   3
ATOM      3  C   UNL d   1      32.220  22.652 -20.132  0.00  0.00     0.042 C 
BRANCH   3   4
ATOM      4  C   UNL d   1      32.271  23.263 -19.577  0.00  0.00     0.003 C 
BRANCH   4   5
ATOM      5  C   UNL d   1      32.410  23.298 -18.765  0.00  0.00     0.000 A 
ATOM      6  C   UNL d   1      33.099  22.961 -18.455  0.00  0.00     0.003 A 
ATOM      7  C   UNL d   1      33.241  22.995 -17.641  0.00  0.00     0.042 A 
ATOM      8  C   UNL d   1      32.694  23.364 -17.146  0.00  0.00     0.196 A 
ATOM      9  C   UNL d   1      32.008  23.699 -17.464  0.00  0.00     0.042 A 
ATOM     10  O   UNL d   1      32.832  23.400 -16.334  0.00  0.00    -0.287 OA
ATOM     11  C   UNL d   1      31.867  23.666 -18.268  0.00  0.00     0.003 A 
ENDBRANCH   4   5
ENDBRANCH   3   4
ENDBRANCH   1   3
BRANCH   1  12
ATOM     12  C   UNL d   1      32.416  21.972 -21.387  0.00  0.00     0.039 A 
ATOM     13  C   UNL d   1      32.925  22.081 -22.027  0.00  0.00     0.005 A 
ATOM     14  C   UNL d   1      33.199  21.428 -22.449  0.00  0.00     0.024 A 
ATOM     15  C   UNL d   1      32.965  20.665 -22.231  0.00  0.00     0.094 A 
ATOM     16  C   UNL d   1      32.450  20.561 -21.582  0.00  0.00     0.024 A 
ATOM     17  C   UNL d   1      32.178  21.213 -21.162  0.00  0.00     0.005 A 
BRANCH  15  18
ATOM     18  O   UNL d   1      33.240  20.012 -22.653  0.00  0.00    -0.328 OA
ATOM     19  C   UNL d   1      33.066  19.939 -23.456  0.00  0.00     0.181 C 
ENDBRANCH  15  18
ENDBRANCH   1  12
TORSDOF 5
ENDMDL
MODEL 4
REMARK VINA RESULT:      -1.9      1.144      1.893
REMARK  5 active torsions:
REMARK  status: ('A' for Active; 'I' for Inactive)
REMARK    1  A    between atoms: C_2  and  C_1 
REMARK    2  A    between atoms: C_3  and  C_1 
REMARK    3  A    between atoms: C_4  and  C_2 
REMARK    4  A    between atoms: C_8  and  C_3 
REMARK    5  A    between atoms: O_18  and  C_10 
ROOT
ATOM      1  C   UNL d   1      33.217  20.405 -23.142  0.00  0.00     0.196 C 
ATOM      2  O   UNL d   1      33.241  20.827 -23.853  0.00  0.00    -0.287 OA
ENDROOT
BRANCH   1   3
ATOM      3  C   UNL d   1      33.226  20.807 -22.421  0.00  0.00     0.042 C 
BRANCH   3   4
ATOM      4  C   UNL d   1      33.168  21.602 -22.199  0.00  0.00     0.003 C 
BRANCH   4   5
ATOM      5  C   UNL d   1      33.001  21.996 -21.493  0.00  0.00     0.000 A 
ATOM      6  C   UNL d   1      32.735  22.778 -21.517  0.00  0.00     0.003 A 
ATOM      7  C   UNL d   1      32.567  23.175 -20.811  0.00  0.00     0.042 A 
ATOM      8  C   UNL d   1      32.667  22.786 -20.090  0.00  0.00     0.196 A 
ATOM      9  C   UNL d   1      32.934  22.003 -20.076  0.00  0.00     0.042 A 
ATOM     10  O   UNL d   1      32.500  23.179 -19.384  0.00  0.00    -0.287 OA
ATOM     11  C   UNL d   1      33.100  21.611 -20.773  0.00  0.00     0.003 A 
ENDBRANCH   4   5
ENDBRANCH   3   4
ENDBRANCH   1   3
BRANCH   1  12
ATOM     12  C   UNL d   1      33.185  19.577 -23.168  0.00  0.00     0.039 A 
ATOM     13  C   UNL d   1      33.240  19.127 -22.479  0.00  0.00     0.005 A 
ATOM     14  C   UNL d   1      33.206  18.304 -22.521  0.00  0.00     0.024 A 
ATOM     15  C   UNL d   1      33.118  17.930 -23.253  0.00  0.00     0.094 A 
ATOM     16  C   UNL d   1      33.063  18.390 -23.948  0.00  0.00     0.024 A 
ATOM     17  C   UNL d   1      33.096  19.210 -23.904  0.00  0.00     0.005 A 
BRANCH  15  18
ATOM     18  O   UNL d   1      33.084  17.107 -23.295  0.00  0.00    -0.328 OA
ATOM     19  C   UNL d   1      32.391  16.736 -23.546  0.00  0.00     0.181 C 
ENDBRANCH  15  18
ENDBRANCH   1  12
TORSDOF 5
ENDMDL
MODEL 5
REMARK VINA RESULT:      -1.4      1.588      5.392
REMARK  5 active torsions:
REMARK  status: ('A' for Active; 'I' for Inactive)
REMARK    1  A    between atoms: C_2  and  C_1 
REMARK    2  A    between atoms: C_3  and  C_1 
REMARK    3  A    between atoms: C_4  and  C_2 
REMARK    4  A    between atoms: C_8  and  C_3 
REMARK    5  A    between atoms: O_18  and  C_10 
ROOT
ATOM      1  C   UNL d   1      32.256  21.145 -20.996  0.00  0.00     0.196 C 
ATOM      2  O   UNL d   1      31.448  20.980 -21.067  0.00  0.00    -0.287 OA
ENDROOT
BRANCH   1   3
ATOM      3  C   UNL d   1      32.809  20.684 -21.399  0.00  0.00     0.042 C 
BRANCH   3   4
ATOM      4  C   UNL d   1      32.927  20.478 -22.191  0.00  0.00     0.003 C 
BRANCH   4   5
ATOM      5  C   UNL d   1      33.003  19.765 -22.600  0.00  0.00     0.000 A 
ATOM      6  C   UNL d   1      33.059  19.772 -23.425  0.00  0.00     0.003 A 
ATOM      7  C   UNL d   1      33.135  19.059 -23.836  0.00  0.00     0.042 A 
ATOM      8  C   UNL d   1      33.154  18.347 -23.420  0.00  0.00     0.196 A 
ATOM      9  C   UNL d   1      33.097  18.349 -22.594  0.00  0.00     0.042 A 
ATOM     10  O   UNL d   1      33.229  17.634 -23.827  0.00  0.00    -0.287 OA
ATOM     11  C   UNL d   1      33.023  19.053 -22.187  0.00  0.00     0.003 A 
ENDBRANCH   4   5
ENDBRANCH   3   4
ENDBRANCH   1   3
BRANCH   1  12
ATOM     12  C   UNL d   1      32.495  21.778 -20.517  0.00  0.00     0.039 A 
ATOM     13  C   UNL d   1      32.353  22.559 -20.742  0.00  0.00     0.005 A 
ATOM     14  C   UNL d   1      32.598  23.178 -20.254  0.00  0.00     0.024 A 
ATOM     15  C   UNL d   1      32.985  23.016 -19.542  0.00  0.00     0.094 A 
ATOM     16  C   UNL d   1      33.126  22.224 -19.320  0.00  0.00     0.024 A 
ATOM     17  C   UNL d   1      32.882  21.608 -19.806  0.00  0.00     0.005 A 
BRANCH  15  18
ATOM     18  O   UNL d   1      33.229  23.635 -19.055  0.00  0.00    -0.328 OA
ATOM     19  C   UNL d   1      32.985  23.660 -18.267  0.00  0.00     0.181 C 
ENDBRANCH  15  18
ENDBRANCH   1  12
TORSDOF 5
ENDMDL
MODEL 6
REMARK VINA RESULT:      -1.1      2.577      6.322
REMARK  5 active torsions:
REMARK  status: ('A' for Active; 'I' for Inactive)
REMARK    1  A    between atoms: C_2  and  C_1 
REMARK    2  A    between atoms: C_3  and  C_1 
REMARK    3  A    between atoms: C_4  and  C_2 
REMARK    4  A    between atoms: C_8  and  C_3 
REMARK    5  A    between atoms: O_18  and  C_10 
ROOT
ATOM      1  C   UNL d   1      32.080  23.120 -19.813  0.00  0.00     0.196 C 
ATOM      2  O   UNL d   1      31.564  23.651 -20.182  0.00  0.00    -0.287 OA
ENDROOT
BRANCH   1   3
ATOM      3  C   UNL d   1      32.403  22.492 -20.241  0.00  0.00     0.042 C 
BRANCH   3   4
ATOM      4  C   UNL d   1      32.154  22.040 -20.887  0.00  0.00     0.003 C 
BRANCH   4   5
ATOM      5  C   UNL d   1      32.426  21.352 -21.253  0.00  0.00     0.000 A 
ATOM      6  C   UNL d   1      32.643  21.373 -22.051  0.00  0.00     0.003 A 
ATOM      7  C   UNL d   1      32.915  20.684 -22.419  0.00  0.00     0.042 A 
ATOM      8  C   UNL d   1      32.969  19.984 -21.987  0.00  0.00     0.196 A 
ATOM      9  C   UNL d   1      32.751  19.972 -21.189  0.00  0.00     0.042 A 
ATOM     10  O   UNL d   1      33.241  19.296 -22.351  0.00  0.00    -0.287 OA
ATOM     11  C   UNL d   1      32.481  20.652 -20.824  0.00  0.00     0.003 A 
ENDBRANCH   4   5
ENDBRANCH   3   4
ENDBRANCH   1   3
BRANCH   1  12
ATOM     12  C   UNL d   1      32.263  23.230 -19.012  0.00  0.00     0.039 A 
ATOM     13  C   UNL d   1      31.686  23.467 -18.472  0.00  0.00     0.005 A 
ATOM     14  C   UNL d   1      31.884  23.572 -17.678  0.00  0.00     0.024 A 
ATOM     15  C   UNL d   1      32.660  23.440 -17.424  0.00  0.00     0.094 A 
ATOM     16  C   UNL d   1      33.240  23.201 -17.975  0.00  0.00     0.024 A 
ATOM     17  C   UNL d   1      33.041  23.096 -18.765  0.00  0.00     0.005 A 
BRANCH  15  18
ATOM     18  O   UNL d   1      32.858  23.546 -16.630  0.00  0.00    -0.328 OA
ATOM     19  C   UNL d   1      33.081  22.897 -16.172  0.00  0.00     0.181 C 
ENDBRANCH  15  18
ENDBRANCH   1  12
TORSDOF 5
ENDMDL
