MODEL 1
REMARK VINA RESULT:      -6.0      0.000      0.000
REMARK  0 active torsions:
REMARK  status: ('A' for Active; 'I' for Inactive)
REMARK       I    between atoms: C_2  and  N_1 
REMARK       I    between atoms: N_7  and  C_2 
ROOT
ATOM      1  N   UNL d   1      57.447  -0.401  30.996  0.00  0.00    -0.241 N 
ATOM      2  C   UNL d   1      56.977  -0.884  31.509  0.00  0.00     0.341 C 
ATOM      3  C   UNL d   1      57.934  -0.637  30.393  0.00  0.00     0.087 A 
ATOM      4  C   UNL d   1      57.473   0.413  31.043  0.00  0.00     0.186 A 
ATOM      5  N   UNL d   1      57.986   0.682  30.458  0.00  0.00    -0.224 NA
ATOM      6  C   UNL d   1      58.271   0.025  30.055  0.00  0.00     0.099 A 
ATOM      7  N   UNL d   1      56.509  -0.549  32.099  0.00  0.00    -0.257 N 
ATOM      8  C   UNL d   1      58.114  -1.388  30.106  0.00  0.00     0.019 A 
ATOM      9  C   UNL d   1      58.800  -0.042  29.419  0.00  0.00     0.021 A 
ATOM     10  C   UNL d   1      58.636  -1.460  29.478  0.00  0.00     0.002 A 
ATOM     11  C   UNL d   1      58.979  -0.803  29.132  0.00  0.00     0.002 A 
ATOM     12  O   UNL d   1      57.003  -1.709  31.398  0.00  0.00    -0.245 OA
ATOM     13  C   UNL d   1      56.063  -1.020  32.584  0.00  0.00     0.085 A 
ATOM     14  C   UNL d   1      56.496   0.280  32.194  0.00  0.00     0.085 A 
ATOM     15  C   UNL d   1      58.810  -2.226  29.196  0.00  0.00     0.000 C 
ATOM     16  C   UNL d   1      59.513  -0.892  28.488  0.00  0.00     0.000 C 
ATOM     17  C   UNL d   1      55.595  -0.684  33.175  0.00  0.00     0.019 A 
ATOM     18  C   UNL d   1      56.023   0.619  32.790  0.00  0.00     0.019 A 
ATOM     19  C   UNL d   1      55.574   0.121  33.276  0.00  0.00     0.003 A 
ENDROOT
TORSDOF 0
ENDMDL
MODEL 2
REMARK VINA RESULT:      -5.9      0.673      3.757
REMARK  0 active torsions:
REMARK  status: ('A' for Active; 'I' for Inactive)
REMARK       I    between atoms: C_2  and  N_1 
REMARK       I    between atoms: N_7  and  C_2 
ROOT
ATOM      1  N   UNL d   1      57.535  -0.546  31.058  0.00  0.00    -0.241 N 
ATOM      2  C   UNL d   1      57.757  -1.196  30.563  0.00  0.00     0.341 C 
ATOM      3  C   UNL d   1      57.012  -0.543  31.677  0.00  0.00     0.087 A 
ATOM      4  C   UNL d   1      57.837   0.207  30.974  0.00  0.00     0.186 A 
ATOM      5  N   UNL d   1      57.493   0.682  31.551  0.00  0.00    -0.224 NA
ATOM      6  C   UNL d   1      56.980   0.212  31.986  0.00  0.00     0.099 A 
ATOM      7  N   UNL d   1      58.303  -1.100  29.953  0.00  0.00    -0.257 N 
ATOM      8  C   UNL d   1      56.554  -1.146  32.000  0.00  0.00     0.019 A 
ATOM      9  C   UNL d   1      56.487   0.387  32.631  0.00  0.00     0.021 A 
ATOM     10  C   UNL d   1      56.065  -0.978  32.636  0.00  0.00     0.002 A 
ATOM     11  C   UNL d   1      56.025  -0.225  32.955  0.00  0.00     0.002 A 
ATOM     12  O   UNL d   1      57.405  -1.936  30.712  0.00  0.00    -0.245 OA
ATOM     13  C   UNL d   1      58.508  -1.730  29.485  0.00  0.00     0.085 A 
ATOM     14  C   UNL d   1      58.646  -0.351  29.819  0.00  0.00     0.085 A 
ATOM     15  C   UNL d   1      55.606  -1.597  32.955  0.00  0.00     0.000 C 
ATOM     16  C   UNL d   1      55.519  -0.068  33.608  0.00  0.00     0.000 C 
ATOM     17  C   UNL d   1      59.055  -1.634  28.874  0.00  0.00     0.019 A 
ATOM     18  C   UNL d   1      59.198  -0.255  29.203  0.00  0.00     0.019 A 
ATOM     19  C   UNL d   1      59.394  -0.909  28.735  0.00  0.00     0.003 A 
ENDROOT
TORSDOF 0
ENDMDL
MODEL 3
REMARK VINA RESULT:      -4.3      1.543      4.212
REMARK  0 active torsions:
REMARK  status: ('A' for Active; 'I' for Inactive)
REMARK       I    between atoms: C_2  and  N_1 
REMARK       I    between atoms: N_7  and  C_2 
ROOT
ATOM      1  N   UNL d   1      57.477   0.673  32.069  0.00  0.00    -0.241 N 
ATOM      2  C   UNL d   1      57.337   0.668  31.233  0.00  0.00     0.341 C 
ATOM      3  C   UNL d   1      56.933   0.673  32.668  0.00  0.00     0.087 A 
ATOM      4  C   UNL d   1      58.223   0.678  32.400  0.00  0.00     0.186 A 
ATOM      5  N   UNL d   1      58.135   0.682  33.218  0.00  0.00    -0.224 NA
ATOM      6  C   UNL d   1      57.330   0.679  33.382  0.00  0.00     0.099 A 
ATOM      7  N   UNL d   1      57.962   0.668  30.696  0.00  0.00    -0.257 N 
ATOM      8  C   UNL d   1      56.109   0.669  32.651  0.00  0.00     0.019 A 
ATOM      9  C   UNL d   1      56.916   0.681  34.100  0.00  0.00     0.021 A 
ATOM     10  C   UNL d   1      55.696   0.671  33.358  0.00  0.00     0.002 A 
ATOM     11  C   UNL d   1      56.083   0.677  34.078  0.00  0.00     0.002 A 
ATOM     12  O   UNL d   1      56.546   0.662  30.973  0.00  0.00    -0.245 OA
ATOM     13  C   UNL d   1      57.816   0.663  29.899  0.00  0.00     0.085 A 
ATOM     14  C   UNL d   1      58.748   0.673  30.977  0.00  0.00     0.085 A 
ATOM     15  C   UNL d   1      54.862   0.667  33.327  0.00  0.00     0.000 C 
ATOM     16  C   UNL d   1      55.645   0.678  34.796  0.00  0.00     0.000 C 
ATOM     17  C   UNL d   1      58.442   0.663  29.361  0.00  0.00     0.019 A 
ATOM     18  C   UNL d   1      59.380   0.673  30.434  0.00  0.00     0.019 A 
ATOM     19  C   UNL d   1      59.211   0.668  29.624  0.00  0.00     0.003 A 
ENDROOT
TORSDOF 0
ENDMDL
MODEL 4
REMARK VINA RESULT:      -4.1      1.590      1.838
REMARK  0 active torsions:
REMARK  status: ('A' for Active; 'I' for Inactive)
REMARK       I    between atoms: C_2  and  N_1 
REMARK       I    between atoms: N_7  and  C_2 
ROOT
ATOM      1  N   UNL d   1      57.550   0.640  31.699  0.00  0.00    -0.241 N 
ATOM      2  C   UNL d   1      57.604   0.659  32.544  0.00  0.00     0.341 C 
ATOM      3  C   UNL d   1      58.152   0.641  31.157  0.00  0.00     0.087 A 
ATOM      4  C   UNL d   1      56.842   0.616  31.294  0.00  0.00     0.186 A 
ATOM      5  N   UNL d   1      57.013   0.603  30.489  0.00  0.00    -0.224 NA
ATOM      6  C   UNL d   1      57.829   0.618  30.408  0.00  0.00     0.099 A 
ATOM      7  N   UNL d   1      56.928   0.655  33.015  0.00  0.00    -0.257 N 
ATOM      8  C   UNL d   1      58.970   0.660  31.258  0.00  0.00     0.019 A 
ATOM      9  C   UNL d   1      58.315   0.614  29.735  0.00  0.00     0.021 A 
ATOM     10  C   UNL d   1      59.453   0.656  30.596  0.00  0.00     0.002 A 
ATOM     11  C   UNL d   1      59.141   0.633  29.841  0.00  0.00     0.002 A 
ATOM     12  O   UNL d   1      58.364   0.682  32.883  0.00  0.00    -0.245 OA
ATOM     13  C   UNL d   1      56.992   0.673  33.823  0.00  0.00     0.085 A 
ATOM     14  C   UNL d   1      56.175   0.631  32.656  0.00  0.00     0.085 A 
ATOM     15  C   UNL d   1      60.279   0.676  30.712  0.00  0.00     0.000 C 
ATOM     16  C   UNL d   1      59.649   0.630  29.171  0.00  0.00     0.000 C 
ATOM     17  C   UNL d   1      56.315   0.669  34.294  0.00  0.00     0.019 A 
ATOM     18  C   UNL d   1      55.492   0.627  33.132  0.00  0.00     0.019 A 
ATOM     19  C   UNL d   1      55.577   0.646  33.955  0.00  0.00     0.003 A 
ENDROOT
TORSDOF 0
ENDMDL
MODEL 5
REMARK VINA RESULT:      -3.3      9.395      9.921
REMARK  0 active torsions:
REMARK  status: ('A' for Active; 'I' for Inactive)
REMARK       I    between atoms: C_2  and  N_1 
REMARK       I    between atoms: N_7  and  C_2 
ROOT
ATOM      1  N   UNL d   1      58.397  -9.814  31.372  0.00  0.00    -0.241 N 
ATOM      2  C   UNL d   1      58.682  -9.812  30.575  0.00  0.00     0.341 C 
ATOM      3  C   UNL d   1      58.827  -9.815  32.059  0.00  0.00     0.087 A 
ATOM      4  C   UNL d   1      57.605  -9.815  31.567  0.00  0.00     0.186 A 
ATOM      5  N   UNL d   1      57.547  -9.817  32.387  0.00  0.00    -0.224 NA
ATOM      6  C   UNL d   1      58.310  -9.816  32.690  0.00  0.00     0.099 A 
ATOM      7  N   UNL d   1      58.162  -9.811  29.936  0.00  0.00    -0.257 N 
ATOM      8  C   UNL d   1      59.641  -9.814  32.186  0.00  0.00     0.019 A 
ATOM      9  C   UNL d   1      58.592  -9.818  33.471  0.00  0.00     0.021 A 
ATOM     10  C   UNL d   1      59.924  -9.815  32.956  0.00  0.00     0.002 A 
ATOM     11  C   UNL d   1      59.415  -9.817  33.596  0.00  0.00     0.002 A 
ATOM     12  O   UNL d   1      59.507  -9.811  30.458  0.00  0.00    -0.245 OA
ATOM     13  C   UNL d   1      58.446  -9.810  29.177  0.00  0.00     0.085 A 
ATOM     14  C   UNL d   1      57.339  -9.813  30.074  0.00  0.00     0.085 A 
ATOM     15  C   UNL d   1      60.750  -9.814  33.072  0.00  0.00     0.000 C 
ATOM     16  C   UNL d   1      59.720  -9.818  34.380  0.00  0.00     0.000 C 
ATOM     17  C   UNL d   1      57.925  -9.809  28.537  0.00  0.00     0.019 A 
ATOM     18  C   UNL d   1      56.813  -9.812  29.428  0.00  0.00     0.019 A 
ATOM     19  C   UNL d   1      57.122  -9.810  28.660  0.00  0.00     0.003 A 
ENDROOT
TORSDOF 0
ENDMDL
MODEL 6
REMARK VINA RESULT:      -3.2      9.409     10.187
REMARK  0 active torsions:
REMARK  status: ('A' for Active; 'I' for Inactive)
REMARK       I    between atoms: C_2  and  N_1 
REMARK       I    between atoms: N_7  and  C_2 
ROOT
ATOM      1  N   UNL d   1      59.309  -9.792  33.046  0.00  0.00    -0.241 N 
ATOM      2  C   UNL d   1      58.490  -9.804  32.829  0.00  0.00     0.341 C 
ATOM      3  C   UNL d   1      59.630  -9.789  33.790  0.00  0.00     0.087 A 
ATOM      4  C   UNL d   1      59.918  -9.782  32.503  0.00  0.00     0.186 A 
ATOM      5  N   UNL d   1      60.626  -9.773  32.921  0.00  0.00    -0.224 NA
ATOM      6  C   UNL d   1      60.444  -9.777  33.721  0.00  0.00     0.099 A 
ATOM      7  N   UNL d   1      58.259  -9.805  32.038  0.00  0.00    -0.257 N 
ATOM      8  C   UNL d   1      59.274  -9.796  34.532  0.00  0.00     0.019 A 
ATOM      9  C   UNL d   1      60.927  -9.772  34.396  0.00  0.00     0.021 A 
ATOM     10  C   UNL d   1      59.748  -9.791  35.201  0.00  0.00     0.002 A 
ATOM     11  C   UNL d   1      60.564  -9.779  35.145  0.00  0.00     0.002 A 
ATOM     12  O   UNL d   1      57.926  -9.813  33.442  0.00  0.00    -0.245 OA
ATOM     13  C   UNL d   1      57.472  -9.816  31.842  0.00  0.00     0.085 A 
ATOM     14  C   UNL d   1      58.839  -9.796  31.438  0.00  0.00     0.085 A 
ATOM     15  C   UNL d   1      59.376  -9.798  35.948  0.00  0.00     0.000 C 
ATOM     16  C   UNL d   1      61.037  -9.774  35.840  0.00  0.00     0.000 C 
ATOM     17  C   UNL d   1      57.241  -9.818  31.050  0.00  0.00     0.019 A 
ATOM     18  C   UNL d   1      58.605  -9.797  30.639  0.00  0.00     0.019 A 
ATOM     19  C   UNL d   1      57.797  -9.808  30.458  0.00  0.00     0.003 A 
ENDROOT
TORSDOF 0
ENDMDL
MODEL 7
REMARK VINA RESULT:      -3.1      9.414      9.896
REMARK  0 active torsions:
REMARK  status: ('A' for Active; 'I' for Inactive)
REMARK       I    between atoms: C_2  and  N_1 
REMARK       I    between atoms: N_7  and  C_2 
ROOT
ATOM      1  N   UNL d   1      58.780  -9.816  31.617  0.00  0.00    -0.241 N 
ATOM      2  C   UNL d   1      57.952  -9.815  31.436  0.00  0.00     0.341 C 
ATOM      3  C   UNL d   1      59.133  -9.815  32.346  0.00  0.00     0.087 A 
ATOM      4  C   UNL d   1      59.365  -9.817  31.049  0.00  0.00     0.186 A 
ATOM      5  N   UNL d   1      60.091  -9.817  31.435  0.00  0.00    -0.224 NA
ATOM      6  C   UNL d   1      59.943  -9.816  32.243  0.00  0.00     0.099 A 
ATOM      7  N   UNL d   1      57.687  -9.816  30.656  0.00  0.00    -0.257 N 
ATOM      8  C   UNL d   1      58.810  -9.814  33.104  0.00  0.00     0.019 A 
ATOM      9  C   UNL d   1      60.456  -9.815  32.896  0.00  0.00     0.021 A 
ATOM     10  C   UNL d   1      59.313  -9.813  33.752  0.00  0.00     0.002 A 
ATOM     11  C   UNL d   1      60.125  -9.814  33.660  0.00  0.00     0.002 A 
ATOM     12  O   UNL d   1      57.416  -9.814  32.073  0.00  0.00    -0.245 OA
ATOM     13  C   UNL d   1      56.893  -9.815  30.495  0.00  0.00     0.085 A 
ATOM     14  C   UNL d   1      58.240  -9.817  30.032  0.00  0.00     0.085 A 
ATOM     15  C   UNL d   1      58.973  -9.812  34.514  0.00  0.00     0.000 C 
ATOM     16  C   UNL d   1      60.628  -9.814  34.334  0.00  0.00     0.000 C 
ATOM     17  C   UNL d   1      56.627  -9.816  29.714  0.00  0.00     0.019 A 
ATOM     18  C   UNL d   1      57.972  -9.818  29.243  0.00  0.00     0.019 A 
ATOM     19  C   UNL d   1      57.157  -9.817  29.098  0.00  0.00     0.003 A 
ENDROOT
TORSDOF 0
ENDMDL
MODEL 8
REMARK VINA RESULT:      -3.1      9.388      9.741
REMARK  0 active torsions:
REMARK  status: ('A' for Active; 'I' for Inactive)
REMARK       I    between atoms: C_2  and  N_1 
REMARK       I    between atoms: N_7  and  C_2 
ROOT
ATOM      1  N   UNL d   1      58.900  -9.777  32.488  0.00  0.00    -0.241 N 
ATOM      2  C   UNL d   1      59.705  -9.791  32.749  0.00  0.00     0.341 C 
ATOM      3  C   UNL d   1      58.619  -9.781  31.728  0.00  0.00     0.087 A 
ATOM      4  C   UNL d   1      58.262  -9.757  32.997  0.00  0.00     0.186 A 
ATOM      5  N   UNL d   1      57.577  -9.748  32.541  0.00  0.00    -0.224 NA
ATOM      6  C   UNL d   1      57.803  -9.763  31.752  0.00  0.00     0.099 A 
ATOM      7  N   UNL d   1      59.893  -9.784  33.551  0.00  0.00    -0.257 N 
ATOM      8  C   UNL d   1      59.014  -9.798  31.006  0.00  0.00     0.019 A 
ATOM      9  C   UNL d   1      57.357  -9.762  31.052  0.00  0.00     0.021 A 
ATOM     10  C   UNL d   1      58.578  -9.798  30.312  0.00  0.00     0.002 A 
ATOM     11  C   UNL d   1      57.760  -9.780  30.324  0.00  0.00     0.002 A 
ATOM     12  O   UNL d   1      60.301  -9.811  32.168  0.00  0.00    -0.245 OA
ATOM     13  C   UNL d   1      60.668  -9.798  33.790  0.00  0.00     0.085 A 
ATOM     14  C   UNL d   1      59.282  -9.764  34.119  0.00  0.00     0.085 A 
ATOM     15  C   UNL d   1      58.990  -9.816  29.587  0.00  0.00     0.000 C 
ATOM     16  C   UNL d   1      57.325  -9.780  29.604  0.00  0.00     0.000 C 
ATOM     17  C   UNL d   1      60.856  -9.792  34.593  0.00  0.00     0.019 A 
ATOM     18  C   UNL d   1      59.472  -9.758  34.930  0.00  0.00     0.019 A 
ATOM     19  C   UNL d   1      60.269  -9.772  35.154  0.00  0.00     0.003 A 
ENDROOT
TORSDOF 0
ENDMDL
