MODEL 1
REMARK VINA RESULT:      -4.7      0.000      0.000
REMARK  2 active torsions:
REMARK  status: ('A' for Active; 'I' for Inactive)
REMARK    1  A    between atoms: C_7  and  C_4 
REMARK    2  A    between atoms: O_13  and  C_11 
ROOT
ATOM      1  N   UNL d   1      58.013  -0.291  29.785  0.00  0.00    -0.211 NA
ATOM      2  C   UNL d   1      58.640  -0.269  29.236  0.00  0.00     0.140 A 
ATOM      3  C   UNL d   1      59.371   0.032  29.463  0.00  0.00     0.051 A 
ATOM      4  C   UNL d   1      58.133  -0.008  30.554  0.00  0.00     0.183 A 
ATOM      5  C   UNL d   1      59.486   0.311  30.229  0.00  0.00     0.104 A 
ATOM      6  O   UNL d   1      58.867   0.292  30.776  0.00  0.00    -0.289 OA
ATOM      7  S   UNL d   1      58.529  -0.548  28.468  0.00  0.00    -0.057 SA
ATOM      8  C   UNL d   1      59.996   0.055  28.923  0.00  0.00     0.004 A 
ATOM      9  C   UNL d   1      60.214   0.613  30.461  0.00  0.00     0.025 A 
ATOM     10  C   UNL d   1      60.735   0.358  29.147  0.00  0.00     0.000 A 
ATOM     11  C   UNL d   1      60.839   0.635  29.917  0.00  0.00     0.002 A 
ENDROOT
BRANCH   4  12
ATOM     12  C   UNL d   1      57.510  -0.033  31.089  0.00  0.00     0.043 A 
ATOM     13  C   UNL d   1      57.251  -0.740  31.401  0.00  0.00     0.028 A 
ATOM     14  C   UNL d   1      56.630  -0.758  31.934  0.00  0.00     0.094 A 
ATOM     15  C   UNL d   1      56.259  -0.057  32.161  0.00  0.00     0.024 A 
ATOM     16  C   UNL d   1      56.521   0.662  31.845  0.00  0.00     0.002 A 
ATOM     17  C   UNL d   1      57.144   0.682  31.309  0.00  0.00     0.004 A 
BRANCH  14  18
ATOM     18  O   UNL d   1      56.371  -1.475  32.247  0.00  0.00    -0.328 OA
ATOM     19  C   UNL d   1      55.973  -1.493  32.968  0.00  0.00     0.181 C 
ENDBRANCH  14  18
ENDBRANCH   4  12
TORSDOF 2
ENDMDL
MODEL 2
REMARK VINA RESULT:      -4.6      1.347      1.909
REMARK  2 active torsions:
REMARK  status: ('A' for Active; 'I' for Inactive)
REMARK    1  A    between atoms: C_7  and  C_4 
REMARK    2  A    between atoms: O_13  and  C_11 
ROOT
ATOM      1  N   UNL d   1      58.320   0.229  31.514  0.00  0.00    -0.211 NA
ATOM      2  C   UNL d   1      58.900   0.455  30.959  0.00  0.00     0.140 A 
ATOM      3  C   UNL d   1      58.721   0.456  30.156  0.00  0.00     0.051 A 
ATOM      4  C   UNL d   1      57.567   0.008  31.249  0.00  0.00     0.183 A 
ATOM      5  C   UNL d   1      57.970   0.234  29.898  0.00  0.00     0.104 A 
ATOM      6  O   UNL d   1      57.392   0.010  30.444  0.00  0.00    -0.289 OA
ATOM      7  S   UNL d   1      59.652   0.677  31.214  0.00  0.00    -0.057 SA
ATOM      8  C   UNL d   1      59.292   0.678  29.603  0.00  0.00     0.004 A 
ATOM      9  C   UNL d   1      57.785   0.233  29.098  0.00  0.00     0.025 A 
ATOM     10  C   UNL d   1      59.116   0.681  28.793  0.00  0.00     0.000 A 
ATOM     11  C   UNL d   1      58.361   0.457  28.546  0.00  0.00     0.002 A 
ENDROOT
BRANCH   4  12
ATOM     12  C   UNL d   1      57.000  -0.213  31.801  0.00  0.00     0.043 A 
ATOM     13  C   UNL d   1      56.533   0.343  32.171  0.00  0.00     0.028 A 
ATOM     14  C   UNL d   1      55.970   0.117  32.720  0.00  0.00     0.094 A 
ATOM     15  C   UNL d   1      55.870  -0.681  32.905  0.00  0.00     0.024 A 
ATOM     16  C   UNL d   1      56.344  -1.247  32.531  0.00  0.00     0.002 A 
ATOM     17  C   UNL d   1      56.910  -1.022  31.979  0.00  0.00     0.004 A 
BRANCH  14  18
ATOM     18  O   UNL d   1      55.500   0.682  33.091  0.00  0.00    -0.328 OA
ATOM     19  C   UNL d   1      55.195   0.539  33.843  0.00  0.00     0.181 C 
ENDBRANCH  14  18
ENDBRANCH   4  12
TORSDOF 2
ENDMDL
MODEL 3
REMARK VINA RESULT:      -4.5      2.207      4.330
REMARK  2 active torsions:
REMARK  status: ('A' for Active; 'I' for Inactive)
REMARK    1  A    between atoms: C_7  and  C_4 
REMARK    2  A    between atoms: O_13  and  C_11 
ROOT
ATOM      1  N   UNL d   1      57.528   0.357  32.755  0.00  0.00    -0.211 NA
ATOM      2  C   UNL d   1      57.210   0.518  33.509  0.00  0.00     0.140 A 
ATOM      3  C   UNL d   1      56.394   0.520  33.616  0.00  0.00     0.051 A 
ATOM      4  C   UNL d   1      57.019   0.200  32.122  0.00  0.00     0.183 A 
ATOM      5  C   UNL d   1      55.891   0.363  32.982  0.00  0.00     0.104 A 
ATOM      6  O   UNL d   1      56.203   0.203  32.234  0.00  0.00    -0.289 OA
ATOM      7  S   UNL d   1      57.709   0.676  34.146  0.00  0.00    -0.057 SA
ATOM      8  C   UNL d   1      56.073   0.678  34.360  0.00  0.00     0.004 A 
ATOM      9  C   UNL d   1      55.076   0.363  33.084  0.00  0.00     0.025 A 
ATOM     10  C   UNL d   1      55.251   0.681  34.474  0.00  0.00     0.000 A 
ATOM     11  C   UNL d   1      54.758   0.523  33.832  0.00  0.00     0.002 A 
ENDROOT
BRANCH   4  12
ATOM     12  C   UNL d   1      57.340   0.042  31.383  0.00  0.00     0.043 A 
ATOM     13  C   UNL d   1      57.487  -0.723  31.142  0.00  0.00     0.028 A 
ATOM     14  C   UNL d   1      57.807  -0.874  30.404  0.00  0.00     0.094 A 
ATOM     15  C   UNL d   1      57.985  -0.250  29.894  0.00  0.00     0.024 A 
ATOM     16  C   UNL d   1      57.836   0.527  30.137  0.00  0.00     0.002 A 
ATOM     17  C   UNL d   1      57.515   0.681  30.878  0.00  0.00     0.004 A 
BRANCH  14  18
ATOM     18  O   UNL d   1      57.954  -1.648  30.165  0.00  0.00    -0.328 OA
ATOM     19  C   UNL d   1      58.506  -1.802  29.573  0.00  0.00     0.181 C 
ENDBRANCH  14  18
ENDBRANCH   4  12
TORSDOF 2
ENDMDL
MODEL 4
REMARK VINA RESULT:      -2.8      2.375      3.138
REMARK  2 active torsions:
REMARK  status: ('A' for Active; 'I' for Inactive)
REMARK    1  A    between atoms: C_7  and  C_4 
REMARK    2  A    between atoms: O_13  and  C_11 
ROOT
ATOM      1  N   UNL d   1      58.450  -2.193  28.851  0.00  0.00    -0.211 NA
ATOM      2  C   UNL d   1      58.736  -2.963  28.709  0.00  0.00     0.140 A 
ATOM      3  C   UNL d   1      59.534  -3.130  28.823  0.00  0.00     0.051 A 
ATOM      4  C   UNL d   1      58.972  -1.603  29.105  0.00  0.00     0.183 A 
ATOM      5  C   UNL d   1      60.050  -2.539  29.077  0.00  0.00     0.104 A 
ATOM      6  O   UNL d   1      59.770  -1.775  29.218  0.00  0.00    -0.289 OA
ATOM      7  S   UNL d   1      58.223  -3.556  28.455  0.00  0.00    -0.057 SA
ATOM      8  C   UNL d   1      59.823  -3.890  28.684  0.00  0.00     0.004 A 
ATOM      9  C   UNL d   1      60.847  -2.700  29.192  0.00  0.00     0.025 A 
ATOM     10  C   UNL d   1      60.626  -4.064  28.798  0.00  0.00     0.000 A 
ATOM     11  C   UNL d   1      61.133  -3.465  29.052  0.00  0.00     0.002 A 
ENDROOT
BRANCH   4  12
ATOM     12  C   UNL d   1      58.682  -0.847  29.243  0.00  0.00     0.043 A 
ATOM     13  C   UNL d   1      58.199  -0.690  29.881  0.00  0.00     0.028 A 
ATOM     14  C   UNL d   1      57.913   0.065  30.013  0.00  0.00     0.094 A 
ATOM     15  C   UNL d   1      58.113   0.678  29.498  0.00  0.00     0.024 A 
ATOM     16  C   UNL d   1      58.603   0.521  28.850  0.00  0.00     0.002 A 
ATOM     17  C   UNL d   1      58.891  -0.237  28.716  0.00  0.00     0.004 A 
BRANCH  14  18
ATOM     18  O   UNL d   1      57.426   0.218  30.659  0.00  0.00    -0.328 OA
ATOM     19  C   UNL d   1      57.701   0.675  31.287  0.00  0.00     0.181 C 
ENDBRANCH  14  18
ENDBRANCH   4  12
TORSDOF 2
ENDMDL
MODEL 5
REMARK VINA RESULT:      -2.7      1.768      3.805
REMARK  2 active torsions:
REMARK  status: ('A' for Active; 'I' for Inactive)
REMARK    1  A    between atoms: C_7  and  C_4 
REMARK    2  A    between atoms: O_13  and  C_11 
ROOT
ATOM      1  N   UNL d   1      58.519  -0.178  31.017  0.00  0.00    -0.211 NA
ATOM      2  C   UNL d   1      58.259   0.155  31.736  0.00  0.00     0.140 A 
ATOM      3  C   UNL d   1      57.519  -0.045  32.035  0.00  0.00     0.051 A 
ATOM      4  C   UNL d   1      58.029  -0.707  30.610  0.00  0.00     0.183 A 
ATOM      5  C   UNL d   1      57.034  -0.572  31.626  0.00  0.00     0.104 A 
ATOM      6  O   UNL d   1      57.289  -0.904  30.913  0.00  0.00    -0.289 OA
ATOM      7  S   UNL d   1      58.741   0.682  32.148  0.00  0.00    -0.057 SA
ATOM      8  C   UNL d   1      57.256   0.281  32.746  0.00  0.00     0.004 A 
ATOM      9  C   UNL d   1      56.294  -0.775  31.920  0.00  0.00     0.025 A 
ATOM     10  C   UNL d   1      56.511   0.083  33.052  0.00  0.00     0.000 A 
ATOM     11  C   UNL d   1      56.034  -0.446  32.634  0.00  0.00     0.002 A 
ENDROOT
BRANCH   4  12
ATOM     12  C   UNL d   1      58.292  -1.030  29.903  0.00  0.00     0.043 A 
ATOM     13  C   UNL d   1      58.563  -1.798  29.865  0.00  0.00     0.028 A 
ATOM     14  C   UNL d   1      58.824  -2.115  29.158  0.00  0.00     0.094 A 
ATOM     15  C   UNL d   1      58.815  -1.657  28.471  0.00  0.00     0.024 A 
ATOM     16  C   UNL d   1      58.540  -0.877  28.507  0.00  0.00     0.002 A 
ATOM     17  C   UNL d   1      58.278  -0.557  29.217  0.00  0.00     0.004 A 
BRANCH  14  18
ATOM     18  O   UNL d   1      59.096  -2.891  29.124  0.00  0.00    -0.328 OA
ATOM     19  C   UNL d   1      58.952  -3.354  28.458  0.00  0.00     0.181 C 
ENDBRANCH  14  18
ENDBRANCH   4  12
TORSDOF 2
ENDMDL
