MODEL 1
REMARK VINA RESULT:      -3.6      0.000      0.000
REMARK  2 active torsions:
REMARK  status: ('A' for Active; 'I' for Inactive)
REMARK    1  A    between atoms: N_14  and  C_4 
REMARK    2  A    between atoms: C_9  and  C_5 
ROOT
ATOM      1  C   UNL d   1      57.609  -0.323  31.454  0.00  0.00     0.060 A 
ATOM      2  C   UNL d   1      56.963  -0.828  31.538  0.00  0.00     0.197 A 
ATOM      3  C   UNL d   1      57.847   0.169  32.074  0.00  0.00     0.043 A 
ATOM      4  C   UNL d   1      58.037  -0.297  30.743  0.00  0.00     0.090 A 
ATOM      5  C   UNL d   1      58.685   0.209  30.659  0.00  0.00     0.082 A 
ATOM      6  C   UNL d   1      57.445   0.168  32.794  0.00  0.00     0.196 A 
ATOM      7  C   UNL d   1      56.560  -0.828  32.258  0.00  0.00     0.042 A 
ATOM      8  C   UNL d   1      56.798  -0.337  32.878  0.00  0.00     0.042 A 
ATOM      9  C   UNL d   1      58.511   0.682  31.977  0.00  0.00     0.004 A 
ATOM     10  C   UNL d   1      58.905   0.665  31.234  0.00  0.00     0.008 A 
ATOM     11  O   UNL d   1      56.744  -1.307  30.910  0.00  0.00    -0.286 OA
ATOM     12  O   UNL d   1      57.706   0.682  33.417  0.00  0.00    -0.287 OA
ATOM     13  C   UNL d   1      55.892  -1.344  32.358  0.00  0.00     0.003 A 
ATOM     14  C   UNL d   1      56.374  -0.347  33.614  0.00  0.00     0.003 A 
ATOM     15  C   UNL d   1      55.727  -0.852  33.698  0.00  0.00     0.000 A 
ATOM     16  C   UNL d   1      55.489  -1.344  33.078  0.00  0.00     0.000 A 
ENDROOT
BRANCH   5  17
ATOM     17  C   UNL d   1      59.129   0.261  29.975  0.00  0.00     0.212 C 
ATOM     18  O   UNL d   1      59.877  -0.093  29.912  0.00  0.00    -0.644 OA
ATOM     19  O   UNL d   1      58.860   0.667  29.311  0.00  0.00    -0.644 OA
ENDBRANCH   5  17
BRANCH   4  20
ATOM     20  N   UNL d   1      57.815  -0.791  30.090  0.00  0.00    -0.242 NA
ATOM     21  C   UNL d   1      58.208  -1.484  29.927  0.00  0.00     0.119 C 
ENDBRANCH   4  20
TORSDOF 2
ENDMDL
MODEL 2
REMARK VINA RESULT:      -2.7      1.068      3.337
REMARK  2 active torsions:
REMARK  status: ('A' for Active; 'I' for Inactive)
REMARK    1  A    between atoms: N_14  and  C_4 
REMARK    2  A    between atoms: C_9  and  C_5 
ROOT
ATOM      1  C   UNL d   1      57.529  -0.586  31.209  0.00  0.00     0.060 A 
ATOM      2  C   UNL d   1      57.564  -1.225  30.690  0.00  0.00     0.197 A 
ATOM      3  C   UNL d   1      58.075   0.032  31.161  0.00  0.00     0.043 A 
ATOM      4  C   UNL d   1      56.941  -0.548  31.795  0.00  0.00     0.090 A 
ATOM      5  C   UNL d   1      56.906   0.093  32.316  0.00  0.00     0.082 A 
ATOM      6  C   UNL d   1      58.672   0.027  30.591  0.00  0.00     0.196 A 
ATOM      7  C   UNL d   1      58.161  -1.230  30.120  0.00  0.00     0.042 A 
ATOM      8  C   UNL d   1      58.707  -0.613  30.071  0.00  0.00     0.042 A 
ATOM      9  C   UNL d   1      58.029   0.682  31.699  0.00  0.00     0.004 A 
ATOM     10  C   UNL d   1      57.413   0.665  32.271  0.00  0.00     0.008 A 
ATOM     11  O   UNL d   1      57.012  -1.826  30.756  0.00  0.00    -0.286 OA
ATOM     12  O   UNL d   1      59.223   0.672  30.559  0.00  0.00    -0.287 OA
ATOM     13  C   UNL d   1      58.209  -1.883  29.578  0.00  0.00     0.003 A 
ATOM     14  C   UNL d   1      59.316  -0.631  29.479  0.00  0.00     0.003 A 
ATOM     15  C   UNL d   1      59.352  -1.271  28.959  0.00  0.00     0.000 A 
ATOM     16  C   UNL d   1      58.805  -1.888  29.008  0.00  0.00     0.000 A 
ENDROOT
BRANCH   5  17
ATOM     17  C   UNL d   1      56.343   0.164  32.904  0.00  0.00     0.212 C 
ATOM     18  O   UNL d   1      56.505  -0.043  33.691  0.00  0.00    -0.644 OA
ATOM     19  O   UNL d   1      55.584   0.444  32.748  0.00  0.00    -0.644 OA
ENDBRANCH   5  17
BRANCH   4  20
ATOM     20  N   UNL d   1      56.367  -1.168  31.868  0.00  0.00    -0.242 NA
ATOM     21  C   UNL d   1      56.263  -1.573  32.565  0.00  0.00     0.119 C 
ENDBRANCH   4  20
TORSDOF 2
ENDMDL
MODEL 3
REMARK VINA RESULT:      -1.8      1.203      3.837
REMARK  2 active torsions:
REMARK  status: ('A' for Active; 'I' for Inactive)
REMARK    1  A    between atoms: N_14  and  C_4 
REMARK    2  A    between atoms: C_9  and  C_5 
ROOT
ATOM      1  C   UNL d   1      57.975  -0.416  30.923  0.00  0.00     0.060 A 
ATOM      2  C   UNL d   1      58.626  -0.031  30.594  0.00  0.00     0.197 A 
ATOM      3  C   UNL d   1      57.708  -1.136  30.619  0.00  0.00     0.043 A 
ATOM      4  C   UNL d   1      57.571  -0.086  31.571  0.00  0.00     0.090 A 
ATOM      5  C   UNL d   1      56.919  -0.471  31.900  0.00  0.00     0.082 A 
ATOM      6  C   UNL d   1      58.085  -1.491  29.977  0.00  0.00     0.196 A 
ATOM      7  C   UNL d   1      59.003  -0.386  29.952  0.00  0.00     0.042 A 
ATOM      8  C   UNL d   1      58.736  -1.106  29.648  0.00  0.00     0.042 A 
ATOM      9  C   UNL d   1      57.039  -1.520  30.964  0.00  0.00     0.004 A 
ATOM     10  C   UNL d   1      56.671  -1.139  31.618  0.00  0.00     0.008 A 
ATOM     11  O   UNL d   1      58.874   0.682  30.912  0.00  0.00    -0.286 OA
ATOM     12  O   UNL d   1      57.793  -2.231  29.680  0.00  0.00    -0.287 OA
ATOM     13  C   UNL d   1      59.675  -0.002  29.603  0.00  0.00     0.003 A 
ATOM     14  C   UNL d   1      59.134  -1.461  28.986  0.00  0.00     0.003 A 
ATOM     15  C   UNL d   1      59.786  -1.077  28.656  0.00  0.00     0.000 A 
ATOM     16  C   UNL d   1      60.053  -0.357  28.961  0.00  0.00     0.000 A 
ENDROOT
BRANCH   5  17
ATOM     17  C   UNL d   1      56.498  -0.178  32.536  0.00  0.00     0.212 C 
ATOM     18  O   UNL d   1      55.991   0.475  32.461  0.00  0.00    -0.644 OA
ATOM     19  O   UNL d   1      56.553  -0.513  33.287  0.00  0.00    -0.644 OA
ENDBRANCH   5  17
BRANCH   4  20
ATOM     20  N   UNL d   1      57.823   0.652  31.904  0.00  0.00    -0.242 NA
ATOM     21  C   UNL d   1      58.294   0.682  32.566  0.00  0.00     0.119 C 
ENDBRANCH   4  20
TORSDOF 2
ENDMDL
MODEL 4
REMARK VINA RESULT:      -1.0      1.322      2.162
REMARK  2 active torsions:
REMARK  status: ('A' for Active; 'I' for Inactive)
REMARK    1  A    between atoms: N_14  and  C_4 
REMARK    2  A    between atoms: C_9  and  C_5 
ROOT
ATOM      1  C   UNL d   1      58.695   0.263  30.902  0.00  0.00     0.060 A 
ATOM      2  C   UNL d   1      58.799   0.468  31.694  0.00  0.00     0.197 A 
ATOM      3  C   UNL d   1      57.949   0.065  30.609  0.00  0.00     0.043 A 
ATOM      4  C   UNL d   1      59.341   0.250  30.379  0.00  0.00     0.090 A 
ATOM      5  C   UNL d   1      59.237   0.045  29.586  0.00  0.00     0.082 A 
ATOM      6  C   UNL d   1      57.286   0.067  31.099  0.00  0.00     0.196 A 
ATOM      7  C   UNL d   1      58.136   0.470  32.185  0.00  0.00     0.042 A 
ATOM      8  C   UNL d   1      57.389   0.272  31.892  0.00  0.00     0.042 A 
ATOM      9  C   UNL d   1      57.854  -0.143  29.795  0.00  0.00     0.004 A 
ATOM     10  C   UNL d   1      58.544  -0.138  29.314  0.00  0.00     0.008 A 
ATOM     11  O   UNL d   1      59.548   0.660  31.964  0.00  0.00    -0.286 OA
ATOM     12  O   UNL d   1      56.528  -0.139  30.777  0.00  0.00    -0.287 OA
ATOM     13  C   UNL d   1      58.228   0.679  33.003  0.00  0.00     0.003 A 
ATOM     14  C   UNL d   1      56.715   0.279  32.409  0.00  0.00     0.003 A 
ATOM     15  C   UNL d   1      56.819   0.484  33.201  0.00  0.00     0.000 A 
ATOM     16  C   UNL d   1      57.565   0.681  33.495  0.00  0.00     0.000 A 
ENDROOT
BRANCH   5  17
ATOM     17  C   UNL d   1      59.848   0.022  29.044  0.00  0.00     0.212 C 
ATOM     18  O   UNL d   1      60.305  -0.661  28.930  0.00  0.00    -0.644 OA
ATOM     19  O   UNL d   1      60.043   0.674  28.580  0.00  0.00    -0.644 OA
ENDBRANCH   5  17
BRANCH   4  20
ATOM     20  N   UNL d   1      60.119   0.449  30.653  0.00  0.00    -0.242 NA
ATOM     21  C   UNL d   1      60.704  -0.112  30.717  0.00  0.00     0.119 C 
ENDBRANCH   4  20
TORSDOF 2
ENDMDL
MODEL 5
REMARK VINA RESULT:      -0.8      2.726      4.297
REMARK  2 active torsions:
REMARK  status: ('A' for Active; 'I' for Inactive)
REMARK    1  A    between atoms: N_14  and  C_4 
REMARK    2  A    between atoms: C_9  and  C_5 
ROOT
ATOM      1  C   UNL d   1      59.392  -2.191  29.185  0.00  0.00     0.060 A 
ATOM      2  C   UNL d   1      58.764  -1.754  29.491  0.00  0.00     0.197 A 
ATOM      3  C   UNL d   1      60.122  -1.836  29.031  0.00  0.00     0.043 A 
ATOM      4  C   UNL d   1      59.306  -3.002  29.024  0.00  0.00     0.090 A 
ATOM      5  C   UNL d   1      59.936  -3.439  28.718  0.00  0.00     0.082 A 
ATOM      6  C   UNL d   1      60.242  -1.034  29.179  0.00  0.00     0.196 A 
ATOM      7  C   UNL d   1      58.884  -0.951  29.639  0.00  0.00     0.042 A 
ATOM      8  C   UNL d   1      59.613  -0.596  29.485  0.00  0.00     0.042 A 
ATOM      9  C   UNL d   1      60.759  -2.294  28.718  0.00  0.00     0.004 A 
ATOM     10  C   UNL d   1      60.612  -3.110  28.575  0.00  0.00     0.008 A 
ATOM     11  O   UNL d   1      58.049  -2.127  29.636  0.00  0.00    -0.286 OA
ATOM     12  O   UNL d   1      61.000  -0.688  29.014  0.00  0.00    -0.287 OA
ATOM     13  C   UNL d   1      58.245  -0.489  29.954  0.00  0.00     0.003 A 
ATOM     14  C   UNL d   1      59.723   0.232  29.643  0.00  0.00     0.003 A 
ATOM     15  C   UNL d   1      59.094   0.669  29.949  0.00  0.00     0.000 A 
ATOM     16  C   UNL d   1      58.365   0.314  30.103  0.00  0.00     0.000 A 
ENDROOT
BRANCH   5  17
ATOM     17  C   UNL d   1      59.888  -4.238  28.547  0.00  0.00     0.212 C 
ATOM     18  O   UNL d   1      59.158  -4.621  28.455  0.00  0.00    -0.644 OA
ATOM     19  O   UNL d   1      60.561  -4.704  28.457  0.00  0.00    -0.644 OA
ENDBRANCH   5  17
BRANCH   4  20
ATOM     20  N   UNL d   1      58.568  -3.393  29.172  0.00  0.00    -0.242 NA
ATOM     21  C   UNL d   1      58.031  -3.529  28.577  0.00  0.00     0.119 C 
ENDBRANCH   4  20
TORSDOF 2
ENDMDL
MODEL 6
REMARK VINA RESULT:      -0.6      1.729      2.982
REMARK  2 active torsions:
REMARK  status: ('A' for Active; 'I' for Inactive)
REMARK    1  A    between atoms: N_14  and  C_4 
REMARK    2  A    between atoms: C_9  and  C_5 
ROOT
ATOM      1  C   UNL d   1      56.439   0.088  33.424  0.00  0.00     0.060 A 
ATOM      2  C   UNL d   1      56.746   0.253  34.171  0.00  0.00     0.197 A 
ATOM      3  C   UNL d   1      55.623   0.053  33.298  0.00  0.00     0.043 A 
ATOM      4  C   UNL d   1      56.944  -0.047  32.779  0.00  0.00     0.090 A 
ATOM      5  C   UNL d   1      56.636  -0.212  32.030  0.00  0.00     0.082 A 
ATOM      6  C   UNL d   1      55.093   0.183  33.916  0.00  0.00     0.196 A 
ATOM      7  C   UNL d   1      56.216   0.382  34.790  0.00  0.00     0.042 A 
ATOM      8  C   UNL d   1      55.400   0.347  34.665  0.00  0.00     0.042 A 
ATOM      9  C   UNL d   1      55.319  -0.116  32.528  0.00  0.00     0.004 A 
ATOM     10  C   UNL d   1      55.879  -0.244  31.914  0.00  0.00     0.008 A 
ATOM     11  O   UNL d   1      57.558   0.282  34.274  0.00  0.00    -0.286 OA
ATOM     12  O   UNL d   1      54.258   0.142  33.765  0.00  0.00    -0.287 OA
ATOM     13  C   UNL d   1      56.518   0.553  35.565  0.00  0.00     0.003 A 
ATOM     14  C   UNL d   1      54.865   0.483  35.311  0.00  0.00     0.003 A 
ATOM     15  C   UNL d   1      55.172   0.647  36.059  0.00  0.00     0.000 A 
ATOM     16  C   UNL d   1      55.988   0.682  36.184  0.00  0.00     0.000 A 
ENDROOT
BRANCH   5  17
ATOM     17  C   UNL d   1      57.101  -0.350  31.373  0.00  0.00     0.212 C 
ATOM     18  O   UNL d   1      57.392   0.270  30.905  0.00  0.00    -0.644 OA
ATOM     19  O   UNL d   1      57.308  -1.112  31.138  0.00  0.00    -0.644 OA
ENDBRANCH   5  17
BRANCH   4  20
ATOM     20  N   UNL d   1      57.786  -0.018  32.879  0.00  0.00    -0.242 NA
ATOM     21  C   UNL d   1      58.198   0.680  32.818  0.00  0.00     0.119 C 
ENDBRANCH   4  20
TORSDOF 2
ENDMDL
