MODEL 1
REMARK VINA RESULT:      75.2      0.000      0.000
REMARK  7 active torsions:
REMARK  status: ('A' for Active; 'I' for Inactive)
REMARK    1  A    between atoms: C_25  and  N_5 
REMARK    2  A    between atoms: C_11  and  C_6 
REMARK       I    between atoms: N_19  and  C_11 
REMARK    3  A    between atoms: N_15  and  C_28 
REMARK    4  A    between atoms: C_27  and  N_19 
REMARK    5  A    between atoms: C_26  and  C_25 
REMARK    6  A    between atoms: C_28  and  C_26 
REMARK    7  A    between atoms: C_29  and  C_27 
ROOT
ATOM      1  C   UNL d   1      46.324 -17.603  42.352  0.00  0.00     0.155 A 
ATOM      2  C   UNL d   1      46.204 -18.326  41.974  0.00  0.00     0.091 A 
ATOM      3  N   UNL d   1      46.383 -17.574  43.173  0.00  0.00    -0.210 NA
ATOM      4  N   UNL d   1      46.203 -18.984  43.236  0.00  0.00    -0.258 N 
ATOM      5  N   UNL d   1      46.385 -16.909  41.911  0.00  0.00    -0.274 N 
ATOM      6  C   UNL d   1      46.204 -17.667  40.702  0.00  0.00     0.094 A 
ATOM      7  C   UNL d   1      46.143 -19.021  42.420  0.00  0.00     0.269 A 
ATOM      8  C   UNL d   1      46.326 -16.935  41.084  0.00  0.00     0.175 A 
ATOM      9  C   UNL d   1      46.323 -18.259  43.609  0.00  0.00     0.152 A 
ATOM     10  C   UNL d   1      46.143 -18.362  41.148  0.00  0.00     0.016 A 
ATOM     11  C   UNL d   1      46.143 -19.673  43.690  0.00  0.00     0.084 A 
ATOM     12  C   UNL d   1      46.384 -18.222  44.435  0.00  0.00     0.038 A 
ATOM     13  N   UNL d   1      46.387 -16.242  40.642  0.00  0.00    -0.128 N 
ATOM     14  C   UNL d   1      46.203 -19.637  44.506  0.00  0.00     0.018 A 
ATOM     15  C   UNL d   1      46.323 -18.911  44.879  0.00  0.00     0.005 A 
ATOM     16  O   UNL d   1      46.022 -19.745  42.043  0.00  0.00    -0.266 OA
ATOM     17  C   UNL d   1      46.144 -20.317  44.954  0.00  0.00     0.002 C 
ENDROOT
BRANCH   6  18
ATOM     18  C   UNL d   1      46.145 -17.700  39.888  0.00  0.00     0.282 C 
ATOM     19  N   UNL d   1      45.576 -17.238  39.494  0.00  0.00    -0.206 NA
ATOM     20  O   UNL d   1      46.645 -18.187  39.448  0.00  0.00    -0.265 OA
BRANCH  19  21
ATOM     21  C   UNL d   1      45.515 -17.270  38.675  0.00  0.00     0.102 C 
BRANCH  21  22
ATOM     22  C   UNL d   1      44.998 -16.755  38.276  0.00  0.00     0.019 A 
ATOM     23  C   UNL d   1      45.136 -16.579  37.481  0.00  0.00     0.002 A 
ATOM     24  C   UNL d   1      44.628 -16.068  37.073  0.00  0.00     0.000 A 
ATOM     25  C   UNL d   1      43.979 -15.733  37.468  0.00  0.00     0.000 A 
ATOM     26  C   UNL d   1      43.848 -15.917  38.272  0.00  0.00     0.000 A 
ATOM     27  C   UNL d   1      44.358 -16.426  38.670  0.00  0.00     0.002 A 
ENDBRANCH  21  22
ENDBRANCH  19  21
ENDBRANCH   6  18
BRANCH   5  28
ATOM     28  C   UNL d   1      46.506 -16.187  42.292  0.00  0.00     0.085 C 
BRANCH  28  29
ATOM     29  C   UNL d   1      45.968 -15.927  42.859  0.00  0.00     0.038 C 
BRANCH  29  30
ATOM     30  C   UNL d   1      46.239 -15.564  43.554  0.00  0.00     0.083 C 
BRANCH  30  31
ATOM     31  N   UNL d   1      45.974 -14.810  43.757  0.00  0.00    -0.285 N 
ATOM     32  C   UNL d   1      46.007 -14.148  43.278  0.00  0.00     0.183 A 
ATOM     33  N   UNL d   1      45.675 -13.509  43.717  0.00  0.00    -0.222 NA
ATOM     34  C   UNL d   1      45.452 -13.792  44.442  0.00  0.00     0.120 A 
ATOM     35  C   UNL d   1      45.634 -14.597  44.473  0.00  0.00     0.102 A 
ENDBRANCH  30  31
ENDBRANCH  29  30
ENDBRANCH  28  29
ENDBRANCH   5  28
TORSDOF 7
ENDMDL
