MODEL 1
REMARK VINA RESULT:      14.0      0.000      0.000
REMARK  2 active torsions:
REMARK  status: ('A' for Active; 'I' for Inactive)
REMARK    1  A    between atoms: C_6  and  C_2 
REMARK    2  A    between atoms: O_13  and  C_10 
ROOT
ATOM      1  C   UNL d   1      58.764  49.699  50.484  0.00  0.00     0.026 A 
ATOM      2  C   UNL d   1      58.982  49.706  51.285  0.00  0.00     0.004 A 
ATOM      3  C   UNL d   1      59.351  49.691  49.916  0.00  0.00     0.004 A 
ATOM      4  C   UNL d   1      60.350  49.699  50.921  0.00  0.00     0.094 A 
ATOM      5  C   UNL d   1      59.767  49.706  51.510  0.00  0.00     0.024 A 
ATOM      6  C   UNL d   1      60.157  49.691  50.136  0.00  0.00     0.024 A 
ENDROOT
BRANCH   1   7
ATOM      7  C   UNL d   1      57.969  49.699  50.265  0.00  0.00     0.135 A 
ATOM      8  S   UNL d   1      57.677  49.703  49.496  0.00  0.00    -0.024 SA
ATOM      9  C   UNL d   1      56.864  49.701  49.531  0.00  0.00     0.236 A 
ATOM     10  N   UNL d   1      56.633  49.695  50.325  0.00  0.00    -0.119 NA
ATOM     11  N   UNL d   1      56.352  49.705  48.883  0.00  0.00    -0.118 N 
ATOM     12  N   UNL d   1      57.323  49.694  50.783  0.00  0.00    -0.139 NA
ENDBRANCH   1   7
BRANCH   4  13
ATOM     13  O   UNL d   1      61.140  49.699  51.149  0.00  0.00    -0.328 OA
ATOM     14  C   UNL d   1      61.391  49.234  51.780  0.00  0.00     0.181 C 
ENDBRANCH   4  13
TORSDOF 2
ENDMDL
