MODEL 1
REMARK VINA RESULT:      -2.7      0.000      0.000
REMARK  4 active torsions:
REMARK  status: ('A' for Active; 'I' for Inactive)
REMARK    1  A    between atoms: C_6  and  C_1 
REMARK    2  A    between atoms: C_7  and  C_5 
REMARK    3  A    between atoms: O_15  and  C_12 
REMARK    4  A    between atoms: C_16  and  O_15 
ROOT
ATOM      1  C   UNL d   1      33.039  20.250 -22.078  0.00  0.00     0.020 A 
ATOM      2  C   UNL d   1      32.816  20.344 -21.277  0.00  0.00     0.004 A 
ATOM      3  C   UNL d   1      33.241  20.912 -22.527  0.00  0.00     0.004 A 
ATOM      4  C   UNL d   1      33.007  21.768 -21.404  0.00  0.00     0.100 A 
ATOM      5  C   UNL d   1      32.800  21.097 -20.943  0.00  0.00     0.025 A 
ATOM      6  C   UNL d   1      33.225  21.665 -22.193  0.00  0.00     0.025 A 
ENDROOT
BRANCH   1   7
ATOM      7  C   UNL d   1      33.055  19.495 -22.416  0.00  0.00     0.105 A 
ATOM      8  C   UNL d   1      32.774  18.989 -23.648  0.00  0.00     0.048 A 
ATOM      9  C   UNL d   1      32.961  18.262 -23.387  0.00  0.00     0.169 A 
ATOM     10  N   UNL d   1      33.194  18.151 -22.643  0.00  0.00    -0.142 NA
ATOM     11  N   UNL d   1      33.239  18.774 -22.162  0.00  0.00    -0.148 NA
BRANCH   9  12
ATOM     12  C   UNL d   1      32.910  17.646 -23.884  0.00  0.00     0.231 C 
ATOM     13  O   UNL d   1      32.756  17.771 -24.648  0.00  0.00    -0.643 OA
ATOM     14  O   UNL d   1      33.019  16.880 -23.598  0.00  0.00    -0.643 OA
ENDBRANCH   9  12
ENDBRANCH   1   7
BRANCH   4  15
ATOM     15  O   UNL d   1      32.988  22.526 -21.058  0.00  0.00    -0.305 OA
BRANCH  15  16
ATOM     16  C   UNL d   1      32.277  22.946 -21.042  0.00  0.00     0.123 C 
ATOM     17  C   UNL d   1      32.242  23.689 -20.671  0.00  0.00     0.029 C 
ENDBRANCH  15  16
ENDBRANCH   4  15
TORSDOF 4
ENDMDL
MODEL 2
REMARK VINA RESULT:      -2.4      1.145      4.624
REMARK  4 active torsions:
REMARK  status: ('A' for Active; 'I' for Inactive)
REMARK    1  A    between atoms: C_6  and  C_1 
REMARK    2  A    between atoms: C_7  and  C_5 
REMARK    3  A    between atoms: O_15  and  C_12 
REMARK    4  A    between atoms: C_16  and  O_15 
ROOT
ATOM      1  C   UNL d   1      33.075  19.217 -22.870  0.00  0.00     0.020 A 
ATOM      2  C   UNL d   1      32.860  19.166 -23.677  0.00  0.00     0.004 A 
ATOM      3  C   UNL d   1      33.241  18.528 -22.446  0.00  0.00     0.004 A 
ATOM      4  C   UNL d   1      32.986  17.731 -23.608  0.00  0.00     0.100 A 
ATOM      5  C   UNL d   1      32.816  18.429 -24.043  0.00  0.00     0.025 A 
ATOM      6  C   UNL d   1      33.196  17.791 -22.813  0.00  0.00     0.025 A 
ENDROOT
BRANCH   1   7
ATOM      7  C   UNL d   1      33.120  19.956 -22.500  0.00  0.00     0.105 A 
ATOM      8  C   UNL d   1      33.048  20.389 -21.212  0.00  0.00     0.048 A 
ATOM      9  C   UNL d   1      33.151  21.136 -21.463  0.00  0.00     0.169 A 
ATOM     10  N   UNL d   1      33.238  21.294 -22.230  0.00  0.00    -0.142 NA
ATOM     11  N   UNL d   1      33.222  20.696 -22.744  0.00  0.00    -0.148 NA
BRANCH   9  12
ATOM     12  C   UNL d   1      33.165  21.726 -20.933  0.00  0.00     0.231 C 
ATOM     13  O   UNL d   1      33.239  21.559 -20.164  0.00  0.00    -0.643 OA
ATOM     14  O   UNL d   1      33.103  22.507 -21.188  0.00  0.00    -0.643 OA
ENDBRANCH   9  12
ENDBRANCH   1   7
BRANCH   4  15
ATOM     15  O   UNL d   1      32.939  16.990 -23.986  0.00  0.00    -0.305 OA
BRANCH  15  16
ATOM     16  C   UNL d   1      32.254  16.535 -23.902  0.00  0.00     0.123 C 
ATOM     17  C   UNL d   1      32.202  15.791 -24.267  0.00  0.00     0.029 C 
ENDBRANCH  15  16
ENDBRANCH   4  15
TORSDOF 4
ENDMDL
MODEL 3
REMARK VINA RESULT:      -2.3      1.951      2.659
REMARK  4 active torsions:
REMARK  status: ('A' for Active; 'I' for Inactive)
REMARK    1  A    between atoms: C_6  and  C_1 
REMARK    2  A    between atoms: C_7  and  C_5 
REMARK    3  A    between atoms: O_15  and  C_12 
REMARK    4  A    between atoms: C_16  and  O_15 
ROOT
ATOM      1  C   UNL d   1      33.127  21.949 -20.454  0.00  0.00     0.020 A 
ATOM      2  C   UNL d   1      33.241  21.676 -19.672  0.00  0.00     0.004 A 
ATOM      3  C   UNL d   1      32.982  22.750 -20.591  0.00  0.00     0.004 A 
ATOM      4  C   UNL d   1      33.060  23.022 -19.187  0.00  0.00     0.100 A 
ATOM      5  C   UNL d   1      33.208  22.208 -19.044  0.00  0.00     0.025 A 
ATOM      6  C   UNL d   1      32.948  23.283 -19.963  0.00  0.00     0.025 A 
ENDROOT
BRANCH   1   7
ATOM      7  C   UNL d   1      33.160  21.417 -21.087  0.00  0.00     0.105 A 
ATOM      8  C   UNL d   1      33.143  20.061 -21.202  0.00  0.00     0.048 A 
ATOM      9  C   UNL d   1      33.197  20.132 -21.992  0.00  0.00     0.169 A 
ATOM     10  N   UNL d   1      33.233  20.843 -22.329  0.00  0.00    -0.142 NA
ATOM     11  N   UNL d   1      33.213  21.483 -21.869  0.00  0.00    -0.148 NA
BRANCH   9  12
ATOM     12  C   UNL d   1      33.215  19.479 -22.440  0.00  0.00     0.231 C 
ATOM     13  O   UNL d   1      33.218  18.767 -22.096  0.00  0.00    -0.643 OA
ATOM     14  O   UNL d   1      33.231  19.546 -23.262  0.00  0.00    -0.643 OA
ENDBRANCH   9  12
ENDBRANCH   1   7
BRANCH   4  15
ATOM     15  O   UNL d   1      33.028  23.554 -18.547  0.00  0.00    -0.305 OA
BRANCH  15  16
ATOM     16  C   UNL d   1      32.563  23.368 -17.889  0.00  0.00     0.123 C 
ATOM     17  C   UNL d   1      32.741  23.699 -17.148  0.00  0.00     0.029 C 
ENDBRANCH  15  16
ENDBRANCH   4  15
TORSDOF 4
ENDMDL
MODEL 4
REMARK VINA RESULT:      -2.2      2.582      5.250
REMARK  4 active torsions:
REMARK  status: ('A' for Active; 'I' for Inactive)
REMARK    1  A    between atoms: C_6  and  C_1 
REMARK    2  A    between atoms: C_7  and  C_5 
REMARK    3  A    between atoms: O_15  and  C_12 
REMARK    4  A    between atoms: C_16  and  O_15 
ROOT
ATOM      1  C   UNL d   1      32.904  21.875 -20.651  0.00  0.00     0.020 A 
ATOM      2  C   UNL d   1      33.017  22.145 -21.435  0.00  0.00     0.004 A 
ATOM      3  C   UNL d   1      32.904  21.065 -20.493  0.00  0.00     0.004 A 
ATOM      4  C   UNL d   1      33.128  20.776 -21.878  0.00  0.00     0.100 A 
ATOM      5  C   UNL d   1      33.128  21.600 -22.043  0.00  0.00     0.025 A 
ATOM      6  C   UNL d   1      33.016  20.520 -21.101  0.00  0.00     0.025 A 
ENDROOT
BRANCH   1   7
ATOM      7  C   UNL d   1      32.792  22.420 -20.039  0.00  0.00     0.105 A 
ATOM      8  C   UNL d   1      32.830  22.356 -18.680  0.00  0.00     0.048 A 
ATOM      9  C   UNL d   1      32.657  23.131 -18.644  0.00  0.00     0.169 A 
ATOM     10  N   UNL d   1      32.552  23.550 -19.302  0.00  0.00    -0.142 NA
ATOM     11  N   UNL d   1      32.621  23.186 -19.998  0.00  0.00    -0.148 NA
BRANCH   9  12
ATOM     12  C   UNL d   1      32.590  23.482 -17.935  0.00  0.00     0.231 C 
ATOM     13  O   UNL d   1      33.241  23.702 -17.545  0.00  0.00    -0.643 OA
ATOM     14  O   UNL d   1      31.843  23.613 -17.612  0.00  0.00    -0.643 OA
ENDBRANCH   9  12
ENDBRANCH   1   7
BRANCH   4  15
ATOM     15  O   UNL d   1      33.241  20.232 -22.498  0.00  0.00    -0.305 OA
BRANCH  15  16
ATOM     16  C   UNL d   1      32.986  19.451 -22.403  0.00  0.00     0.123 C 
ATOM     17  C   UNL d   1      33.064  18.910 -23.029  0.00  0.00     0.029 C 
ENDBRANCH  15  16
ENDBRANCH   4  15
TORSDOF 4
ENDMDL
MODEL 5
REMARK VINA RESULT:      -2.2      3.603      5.566
REMARK  4 active torsions:
REMARK  status: ('A' for Active; 'I' for Inactive)
REMARK    1  A    between atoms: C_6  and  C_1 
REMARK    2  A    between atoms: C_7  and  C_5 
REMARK    3  A    between atoms: O_15  and  C_12 
REMARK    4  A    between atoms: C_16  and  O_15 
ROOT
ATOM      1  C   UNL d   1      32.958  22.921 -20.047  0.00  0.00     0.020 A 
ATOM      2  C   UNL d   1      33.075  23.533 -20.604  0.00  0.00     0.004 A 
ATOM      3  C   UNL d   1      32.937  22.135 -20.300  0.00  0.00     0.004 A 
ATOM      4  C   UNL d   1      33.146  22.548 -21.655  0.00  0.00     0.100 A 
ATOM      5  C   UNL d   1      33.168  23.348 -21.402  0.00  0.00     0.025 A 
ATOM      6  C   UNL d   1      33.030  21.950 -21.098  0.00  0.00     0.025 A 
ENDROOT
BRANCH   1   7
ATOM      7  C   UNL d   1      32.865  23.104 -19.245  0.00  0.00     0.105 A 
ATOM      8  C   UNL d   1      33.204  22.495 -18.076  0.00  0.00     0.048 A 
ATOM      9  C   UNL d   1      32.879  23.098 -17.674  0.00  0.00     0.169 A 
ATOM     10  N   UNL d   1      32.548  23.702 -18.054  0.00  0.00    -0.142 NA
ATOM     11  N   UNL d   1      32.544  23.698 -18.843  0.00  0.00    -0.148 NA
BRANCH   9  12
ATOM     12  C   UNL d   1      32.891  23.087 -16.881  0.00  0.00     0.231 C 
ATOM     13  O   UNL d   1      32.568  23.684 -16.476  0.00  0.00    -0.643 OA
ATOM     14  O   UNL d   1      33.240  22.453 -16.485  0.00  0.00    -0.643 OA
ENDBRANCH   9  12
ENDBRANCH   1   7
BRANCH   4  15
ATOM     15  O   UNL d   1      33.241  22.369 -22.463  0.00  0.00    -0.305 OA
BRANCH  15  16
ATOM     16  C   UNL d   1      32.823  22.806 -23.026  0.00  0.00     0.123 C 
ATOM     17  C   UNL d   1      32.988  22.707 -23.835  0.00  0.00     0.029 C 
ENDBRANCH  15  16
ENDBRANCH   4  15
TORSDOF 4
ENDMDL
MODEL 6
REMARK VINA RESULT:      -2.1      0.957      1.355
REMARK  4 active torsions:
REMARK  status: ('A' for Active; 'I' for Inactive)
REMARK    1  A    between atoms: C_6  and  C_1 
REMARK    2  A    between atoms: C_7  and  C_5 
REMARK    3  A    between atoms: O_15  and  C_12 
REMARK    4  A    between atoms: C_16  and  O_15 
ROOT
ATOM      1  C   UNL d   1      33.200  19.387 -22.682  0.00  0.00     0.020 A 
ATOM      2  C   UNL d   1      33.228  19.309 -21.850  0.00  0.00     0.004 A 
ATOM      3  C   UNL d   1      33.185  20.139 -23.023  0.00  0.00     0.004 A 
ATOM      4  C   UNL d   1      33.226  20.746 -21.726  0.00  0.00     0.100 A 
ATOM      5  C   UNL d   1      33.241  19.983 -21.376  0.00  0.00     0.025 A 
ATOM      6  C   UNL d   1      33.198  20.813 -22.548  0.00  0.00     0.025 A 
ENDROOT
BRANCH   1   7
ATOM      7  C   UNL d   1      33.187  18.713 -23.161  0.00  0.00     0.105 A 
ATOM      8  C   UNL d   1      33.071  17.376 -22.931  0.00  0.00     0.048 A 
ATOM      9  C   UNL d   1      33.121  17.242 -23.713  0.00  0.00     0.169 A 
ATOM     10  N   UNL d   1      33.204  17.841 -24.218  0.00  0.00    -0.142 NA
ATOM     11  N   UNL d   1      33.236  18.575 -23.933  0.00  0.00    -0.148 NA
BRANCH   9  12
ATOM     12  C   UNL d   1      33.087  16.497 -23.983  0.00  0.00     0.231 C 
ATOM     13  O   UNL d   1      32.993  15.901 -23.474  0.00  0.00    -0.643 OA
ATOM     14  O   UNL d   1      33.150  16.352 -24.792  0.00  0.00    -0.643 OA
ENDBRANCH   9  12
ENDBRANCH   1   7
BRANCH   4  15
ATOM     15  O   UNL d   1      33.239  21.422 -21.240  0.00  0.00    -0.305 OA
BRANCH  15  16
ATOM     16  C   UNL d   1      32.528  21.722 -20.944  0.00  0.00     0.123 C 
ATOM     17  C   UNL d   1      32.530  22.406 -20.472  0.00  0.00     0.029 C 
ENDBRANCH  15  16
ENDBRANCH   4  15
TORSDOF 4
ENDMDL
MODEL 7
REMARK VINA RESULT:      -1.1      3.609      4.383
REMARK  4 active torsions:
REMARK  status: ('A' for Active; 'I' for Inactive)
REMARK    1  A    between atoms: C_6  and  C_1 
REMARK    2  A    between atoms: C_7  and  C_5 
REMARK    3  A    between atoms: O_15  and  C_12 
REMARK    4  A    between atoms: C_16  and  O_15 
ROOT
ATOM      1  C   UNL d   1      32.987  22.611 -19.813  0.00  0.00     0.020 A 
ATOM      2  C   UNL d   1      33.105  21.865 -19.455  0.00  0.00     0.004 A 
ATOM      3  C   UNL d   1      32.955  23.290 -19.344  0.00  0.00     0.004 A 
ATOM      4  C   UNL d   1      33.155  22.505 -18.163  0.00  0.00     0.100 A 
ATOM      5  C   UNL d   1      33.188  21.812 -18.636  0.00  0.00     0.025 A 
ATOM      6  C   UNL d   1      33.038  23.238 -18.526  0.00  0.00     0.025 A 
ENDROOT
BRANCH   1   7
ATOM      7  C   UNL d   1      32.903  22.667 -20.634  0.00  0.00     0.105 A 
ATOM      8  C   UNL d   1      32.122  23.403 -21.471  0.00  0.00     0.048 A 
ATOM      9  C   UNL d   1      32.465  23.048 -22.094  0.00  0.00     0.169 A 
ATOM     10  N   UNL d   1      33.025  22.505 -21.989  0.00  0.00    -0.142 NA
ATOM     11  N   UNL d   1      33.240  22.319 -21.254  0.00  0.00    -0.148 NA
BRANCH   9  12
ATOM     12  C   UNL d   1      32.237  23.247 -22.828  0.00  0.00     0.231 C 
ATOM     13  O   UNL d   1      32.664  23.008 -23.448  0.00  0.00    -0.643 OA
ATOM     14  O   UNL d   1      31.558  23.701 -22.937  0.00  0.00    -0.643 OA
ENDBRANCH   9  12
ENDBRANCH   1   7
BRANCH   4  15
ATOM     15  O   UNL d   1      33.239  22.444 -17.337  0.00  0.00    -0.305 OA
BRANCH  15  16
ATOM     16  C   UNL d   1      33.113  23.111 -16.866  0.00  0.00     0.123 C 
ATOM     17  C   UNL d   1      33.195  23.059 -16.041  0.00  0.00     0.029 C 
ENDBRANCH  15  16
ENDBRANCH   4  15
TORSDOF 4
ENDMDL
MODEL 8
REMARK VINA RESULT:      -0.9      2.204      5.066
REMARK  4 active torsions:
REMARK  status: ('A' for Active; 'I' for Inactive)
REMARK    1  A    between atoms: C_6  and  C_1 
REMARK    2  A    between atoms: C_7  and  C_5 
REMARK    3  A    between atoms: O_15  and  C_12 
REMARK    4  A    between atoms: C_16  and  O_15 
ROOT
ATOM      1  C   UNL d   1      31.726  17.909 -24.027  0.00  0.00     0.020 A 
ATOM      2  C   UNL d   1      31.201  18.073 -24.657  0.00  0.00     0.004 A 
ATOM      3  C   UNL d   1      31.789  17.140 -23.735  0.00  0.00     0.004 A 
ATOM      4  C   UNL d   1      30.817  16.683 -24.683  0.00  0.00     0.100 A 
ATOM      5  C   UNL d   1      30.750  17.465 -24.983  0.00  0.00     0.025 A 
ATOM      6  C   UNL d   1      31.338  16.531 -24.061  0.00  0.00     0.025 A 
ENDROOT
BRANCH   1   7
ATOM      7  C   UNL d   1      32.180  18.518 -23.698  0.00  0.00     0.105 A 
ATOM      8  C   UNL d   1      32.158  19.204 -22.523  0.00  0.00     0.048 A 
ATOM      9  C   UNL d   1      32.786  19.628 -22.764  0.00  0.00     0.169 A 
ATOM     10  N   UNL d   1      33.110  19.498 -23.470  0.00  0.00    -0.142 NA
ATOM     11  N   UNL d   1      32.801  18.940 -23.933  0.00  0.00    -0.148 NA
BRANCH   9  12
ATOM     12  C   UNL d   1      33.085  20.186 -22.286  0.00  0.00     0.231 C 
ATOM     13  O   UNL d   1      33.231  20.908 -22.571  0.00  0.00    -0.643 OA
ATOM     14  O   UNL d   1      33.241  20.007 -21.497  0.00  0.00    -0.643 OA
ENDBRANCH   9  12
ENDBRANCH   1   7
BRANCH   4  15
ATOM     15  O   UNL d   1      30.357  16.074 -25.017  0.00  0.00    -0.305 OA
BRANCH  15  16
ATOM     16  C   UNL d   1      29.903  15.592 -24.523  0.00  0.00     0.123 C 
ATOM     17  C   UNL d   1      29.088  15.506 -24.663  0.00  0.00     0.029 C 
ENDBRANCH  15  16
ENDBRANCH   4  15
TORSDOF 4
ENDMDL
MODEL 9
REMARK VINA RESULT:       0.0      4.655      6.216
REMARK  4 active torsions:
REMARK  status: ('A' for Active; 'I' for Inactive)
REMARK    1  A    between atoms: C_6  and  C_1 
REMARK    2  A    between atoms: C_7  and  C_5 
REMARK    3  A    between atoms: O_15  and  C_12 
REMARK    4  A    between atoms: C_16  and  O_15 
ROOT
ATOM      1  C   UNL d   1      29.533  16.092 -24.176  0.00  0.00     0.020 A 
ATOM      2  C   UNL d   1      29.080  16.770 -24.366  0.00  0.00     0.004 A 
ATOM      3  C   UNL d   1      29.174  15.453 -23.797  0.00  0.00     0.004 A 
ATOM      4  C   UNL d   1      27.918  16.142 -23.786  0.00  0.00     0.100 A 
ATOM      5  C   UNL d   1      28.279  16.795 -24.172  0.00  0.00     0.025 A 
ATOM      6  C   UNL d   1      28.373  15.478 -23.603  0.00  0.00     0.025 A 
ENDROOT
BRANCH   1   7
ATOM      7  C   UNL d   1      30.337  16.065 -24.369  0.00  0.00     0.105 A 
ATOM      8  C   UNL d   1      31.432  16.794 -24.020  0.00  0.00     0.048 A 
ATOM      9  C   UNL d   1      31.881  16.332 -24.486  0.00  0.00     0.169 A 
ATOM     10  N   UNL d   1      31.561  15.738 -24.892  0.00  0.00    -0.142 NA
ATOM     11  N   UNL d   1      30.785  15.611 -24.828  0.00  0.00    -0.148 NA
BRANCH   9  12
ATOM     12  C   UNL d   1      32.660  16.473 -24.539  0.00  0.00     0.231 C 
ATOM     13  O   UNL d   1      33.173  15.971 -24.209  0.00  0.00    -0.643 OA
ATOM     14  O   UNL d   1      32.928  17.143 -24.937  0.00  0.00    -0.643 OA
ENDBRANCH   9  12
ENDBRANCH   1   7
BRANCH   4  15
ATOM     15  O   UNL d   1      27.108  16.174 -23.593  0.00  0.00    -0.305 OA
BRANCH  15  16
ATOM     16  C   UNL d   1      26.748  15.517 -23.246  0.00  0.00     0.123 C 
ATOM     17  C   UNL d   1      25.970  15.573 -22.961  0.00  0.00     0.029 C 
ENDBRANCH  15  16
ENDBRANCH   4  15
TORSDOF 4
ENDMDL
