MODEL 1
REMARK VINA RESULT:      42.4      0.000      0.000
REMARK  6 active torsions:
REMARK  status: ('A' for Active; 'I' for Inactive)
REMARK    1  A    between atoms: C_5  and  C_1 
REMARK       I    between atoms: N_10  and  C_5 
REMARK    2  A    between atoms: C_9  and  C_6 
REMARK    3  A    between atoms: C_17  and  N_7 
REMARK    4  A    between atoms: O_23  and  C_8 
REMARK    5  A    between atoms: O_25  and  C_12 
REMARK    6  A    between atoms: C_18  and  C_17 
ROOT
ATOM      1  C   UNL d   1     -54.765-101.751 -41.096  0.00  0.00     0.316 C 
ATOM      2  N   UNL d   1     -54.811-100.361 -42.658  0.00  0.00    -0.143 NA
ATOM      3  N   UNL d   1     -54.821-100.627 -41.471  0.00  0.00    -0.104 NA
ATOM      4  O   UNL d   1     -54.720-102.359 -41.641  0.00  0.00    -0.262 OA
ENDROOT
BRANCH   1   5
ATOM      5  C   UNL d   1     -54.773-101.912 -40.290  0.00  0.00     0.164 A 
ATOM      6  C   UNL d   1     -54.773-101.307 -39.748  0.00  0.00     0.047 A 
ATOM      7  C   UNL d   1     -54.787-102.250 -38.690  0.00  0.00     0.105 A 
ATOM      8  N   UNL d   1     -54.787-102.861 -39.241  0.00  0.00    -0.148 NA
ATOM      9  N   UNL d   1     -54.780-102.697 -40.033  0.00  0.00    -0.143 NA
BRANCH   7  10
ATOM     10  C   UNL d   1     -54.793-102.209 -37.871  0.00  0.00     0.019 A 
ATOM     11  C   UNL d   1     -54.875-102.880 -37.424  0.00  0.00     0.002 A 
ATOM     12  C   UNL d   1     -54.881-102.842 -36.609  0.00  0.00     0.011 A 
ATOM     13  C   UNL d   1     -54.804-102.114 -36.243  0.00  0.00     0.058 A 
ATOM     14  C   UNL d   1     -54.721-101.435 -36.684  0.00  0.00     0.011 A 
ATOM     15 CL   UNL d   1     -54.809-102.068 -35.422  0.00  0.00    -0.082 Cl
ATOM     16  C   UNL d   1     -54.715-101.476 -37.503  0.00  0.00     0.002 A 
ENDBRANCH   7  10
ENDBRANCH   1   5
BRANCH   2  17
ATOM     17  C   UNL d   1     -54.851 -99.561 -42.922  0.00  0.00     0.122 C 
BRANCH  17  18
ATOM     18  C   UNL d   1     -55.213 -99.359 -43.710  0.00  0.00     0.023 A 
ATOM     19  C   UNL d   1     -56.080 -99.544 -43.861  0.00  0.00     0.028 A 
ATOM     20  C   UNL d   1     -56.442 -99.340 -44.658  0.00  0.00     0.116 A 
ATOM     21  C   UNL d   1     -55.943 -98.954 -45.301  0.00  0.00     0.116 A 
ATOM     22  C   UNL d   1     -55.087 -98.775 -45.141  0.00  0.00     0.026 A 
ATOM     23  C   UNL d   1     -54.714 -98.977 -44.343  0.00  0.00     0.004 A 
BRANCH  20  24
ATOM     24  O   UNL d   1     -57.308 -99.524 -44.809  0.00  0.00    -0.326 OA
ATOM     25  C   UNL d   1     -57.929 -99.230 -44.243  0.00  0.00     0.181 C 
ENDBRANCH  20  24
BRANCH  21  26
ATOM     26  O   UNL d   1     -56.315 -98.755 -46.089  0.00  0.00    -0.326 OA
ATOM     27  C   UNL d   1     -57.204 -98.758 -46.164  0.00  0.00     0.181 C 
ENDBRANCH  21  26
ENDBRANCH  17  18
ENDBRANCH   2  17
TORSDOF 6
ENDMDL
MODEL 2
REMARK VINA RESULT:      43.5      1.132      1.629
REMARK  6 active torsions:
REMARK  status: ('A' for Active; 'I' for Inactive)
REMARK    1  A    between atoms: C_5  and  C_1 
REMARK       I    between atoms: N_10  and  C_5 
REMARK    2  A    between atoms: C_9  and  C_6 
REMARK    3  A    between atoms: C_17  and  N_7 
REMARK    4  A    between atoms: O_23  and  C_8 
REMARK    5  A    between atoms: O_25  and  C_12 
REMARK    6  A    between atoms: C_18  and  C_17 
ROOT
ATOM      1  C   UNL d   1     -55.012-101.357 -42.011  0.00  0.00     0.316 C 
ATOM      2  N   UNL d   1     -55.539 -99.911 -43.426  0.00  0.00    -0.143 NA
ATOM      3  N   UNL d   1     -55.444-100.284 -42.272  0.00  0.00    -0.104 NA
ATOM      4  O   UNL d   1     -54.774-101.857 -42.613  0.00  0.00    -0.262 OA
ENDROOT
BRANCH   1   5
ATOM      5  C   UNL d   1     -54.955-101.593 -41.226  0.00  0.00     0.164 A 
ATOM      6  C   UNL d   1     -55.050-101.054 -40.625  0.00  0.00     0.047 A 
ATOM      7  C   UNL d   1     -54.837-102.079 -39.668  0.00  0.00     0.105 A 
ATOM      8  N   UNL d   1     -54.741-102.623 -40.279  0.00  0.00    -0.148 NA
ATOM      9  N   UNL d   1     -54.799-102.385 -41.050  0.00  0.00    -0.143 NA
BRANCH   7  10
ATOM     10  C   UNL d   1     -54.817-102.119 -38.849  0.00  0.00     0.019 A 
ATOM     11  C   UNL d   1     -54.879-102.830 -38.468  0.00  0.00     0.002 A 
ATOM     12  C   UNL d   1     -54.859-102.873 -37.653  0.00  0.00     0.011 A 
ATOM     13  C   UNL d   1     -54.776-102.183 -37.221  0.00  0.00     0.058 A 
ATOM     14  C   UNL d   1     -54.713-101.464 -37.595  0.00  0.00     0.011 A 
ATOM     15 CL   UNL d   1     -54.755-102.218 -36.399  0.00  0.00    -0.082 Cl
ATOM     16  C   UNL d   1     -54.733-101.424 -38.414  0.00  0.00     0.002 A 
ENDBRANCH   7  10
ENDBRANCH   1   5
BRANCH   2  17
ATOM     17  C   UNL d   1     -55.847 -99.146 -43.609  0.00  0.00     0.122 C 
BRANCH  17  18
ATOM     18  C   UNL d   1     -56.687 -99.049 -43.889  0.00  0.00     0.023 A 
ATOM     19  C   UNL d   1     -57.357 -99.050 -43.289  0.00  0.00     0.028 A 
ATOM     20  C   UNL d   1     -58.204 -98.952 -43.576  0.00  0.00     0.116 A 
ATOM     21  C   UNL d   1     -58.381 -98.854 -44.453  0.00  0.00     0.116 A 
ATOM     22  C   UNL d   1     -57.710 -98.854 -45.037  0.00  0.00     0.026 A 
ATOM     23  C   UNL d   1     -56.856 -98.952 -44.759  0.00  0.00     0.004 A 
BRANCH  20  24
ATOM     24  O   UNL d   1     -58.874 -98.952 -42.978  0.00  0.00    -0.326 OA
ATOM     25  C   UNL d   1     -59.718 -98.923 -43.257  0.00  0.00     0.181 C 
ENDBRANCH  20  24
BRANCH  21  26
ATOM     26  O   UNL d   1     -59.227 -98.757 -44.725  0.00  0.00    -0.326 OA
ATOM     27  C   UNL d   1     -59.432 -98.926 -45.576  0.00  0.00     0.181 C 
ENDBRANCH  21  26
ENDBRANCH  17  18
ENDBRANCH   2  17
TORSDOF 6
ENDMDL
