MODEL 1
REMARK VINA RESULT:       1.7      0.000      0.000
REMARK  1 active torsions:
REMARK  status: ('A' for Active; 'I' for Inactive)
REMARK    1  A    between atoms: C_13  and  C_7 
ROOT
ATOM      1  C   UNL d   1     -41.251-120.972 -52.213  0.00  0.00     0.120 A 
ATOM      2  C   UNL d   1     -41.413-121.361 -51.504  0.00  0.00     0.058 A 
ATOM      3  N   UNL d   1     -41.123-120.177 -52.039  0.00  0.00    -0.195 NA
ATOM      4  S   UNL d   1     -41.243-121.389 -52.915  0.00  0.00    -0.072 SA
ATOM      5  C   UNL d   1     -41.395-122.193 -52.914  0.00  0.00     0.009 A 
ATOM      6  C   UNL d   1     -41.557-122.585 -52.205  0.00  0.00    -0.015 A 
ATOM      7  C   UNL d   1     -41.565-122.164 -51.503  0.00  0.00     0.005 A 
ATOM      8  C   UNL d   1     -41.205-120.071 -51.222  0.00  0.00     0.311 A 
ATOM      9  S   UNL d   1     -41.385-120.812 -50.896  0.00  0.00    -0.024 SA
ATOM     10  C   UNL d   1     -41.710-123.396 -52.206  0.00  0.00     0.045 A 
ATOM     11  C   UNL d   1     -41.385-122.613 -53.625  0.00  0.00     0.050 A 
ATOM     12  C   UNL d   1     -41.515-122.775 -52.827  0.00  0.00     0.018 A 
ATOM     13  O   UNL d   1     -41.123-119.361 -50.806  0.00  0.00    -0.258 OA
ATOM     14  C   UNL d   1     -41.701-123.816 -52.917  0.00  0.00    -0.026 A 
ATOM     15  C   UNL d   1     -41.538-123.424 -53.625  0.00  0.00    -0.026 A 
ENDROOT
BRANCH   7  16
ATOM     16  C   UNL d   1     -41.726-122.551 -50.797  0.00  0.00     0.001 A 
ATOM     17  C   UNL d   1     -41.125-122.977 -50.413  0.00  0.00     0.003 A 
ATOM     18  C   UNL d   1     -41.286-123.361 -49.711  0.00  0.00     0.042 A 
ATOM     19  C   UNL d   1     -42.048-123.329 -49.377  0.00  0.00     0.196 A 
ATOM     20  C   UNL d   1     -42.642-122.900 -49.769  0.00  0.00     0.042 A 
ATOM     21  O   UNL d   1     -42.208-123.717 -48.668  0.00  0.00    -0.287 OA
ATOM     22  C   UNL d   1     -42.476-122.516 -50.473  0.00  0.00     0.003 A 
ENDBRANCH   7  16
TORSDOF 1
ENDMDL
