MODEL 1
REMARK VINA RESULT:      -7.6      0.000      0.000
REMARK  6 active torsions:
REMARK  status: ('A' for Active; 'I' for Inactive)
REMARK    1  A    between atoms: S_5  and  C_2 
REMARK    2  A    between atoms: C_15  and  S_5 
REMARK    3  A    between atoms: N_11  and  C_8 
REMARK    4  A    between atoms: C_16  and  N_11 
REMARK    5  A    between atoms: C_17  and  N_12 
REMARK    6  A    between atoms: C_24  and  C_17 
ROOT
ATOM      1  C   UNL d   1      53.396  32.690  54.066  0.00  0.00     0.197 A 
ATOM      2  C   UNL d   1      53.775  33.216  54.562  0.00  0.00     0.227 A 
ATOM      3  N   UNL d   1      53.712  31.939  54.205  0.00  0.00    -0.192 N 
ATOM      4  N   UNL d   1      52.798  32.788  53.500  0.00  0.00    -0.206 NA
ATOM      5  N   UNL d   1      54.322  32.801  55.006  0.00  0.00    -0.115 NA
ATOM      6  N   UNL d   1      54.286  32.003  54.785  0.00  0.00    -0.058 NA
ATOM      7  C   UNL d   1      52.522  32.140  53.077  0.00  0.00     0.166 A 
ATOM      8  C   UNL d   1      52.838  31.389  53.215  0.00  0.00     0.054 A 
ATOM      9  C   UNL d   1      53.430  31.288  53.776  0.00  0.00     0.089 A 
ATOM     10  C   UNL d   1      52.559  30.739  52.790  0.00  0.00     0.005 A 
ATOM     11  C   UNL d   1      53.748  30.533  53.915  0.00  0.00     0.019 A 
ATOM     12  C   UNL d   1      52.876  29.984  52.929  0.00  0.00     0.000 A 
ATOM     13  C   UNL d   1      53.471  29.885  53.492  0.00  0.00     0.002 A 
ENDROOT
BRANCH   7  14
ATOM     14  N   UNL d   1      51.922  32.250  52.512  0.00  0.00    -0.227 NA
BRANCH  14  15
ATOM     15  C   UNL d   1      51.425  32.915  52.551  0.00  0.00     0.086 A 
ATOM     16  C   UNL d   1      50.794  32.930  53.088  0.00  0.00     0.038 A 
ATOM     17  C   UNL d   1      50.301  33.593  53.124  0.00  0.00     0.082 A 
ATOM     18  N   UNL d   1      50.440  34.238  52.622  0.00  0.00    -0.302 N 
ATOM     19  C   UNL d   1      51.067  34.219  52.090  0.00  0.00     0.082 A 
ATOM     20  C   UNL d   1      51.560  33.556  52.055  0.00  0.00     0.038 A 
BRANCH  18  21
ATOM     21  C   UNL d   1      49.951  34.900  52.655  0.00  0.00     0.080 C 
BRANCH  21  22
ATOM     22  C   UNL d   1      49.267  34.928  52.193  0.00  0.00     0.018 A 
ATOM     23  C   UNL d   1      48.564  35.202  52.520  0.00  0.00     0.002 A 
ATOM     24  C   UNL d   1      47.879  35.233  52.067  0.00  0.00     0.000 A 
ATOM     25  C   UNL d   1      47.897  34.984  51.268  0.00  0.00     0.000 A 
ATOM     26  C   UNL d   1      48.605  34.711  50.949  0.00  0.00     0.000 A 
ATOM     27  C   UNL d   1      49.291  34.680  51.405  0.00  0.00     0.002 A 
ENDBRANCH  21  22
ENDBRANCH  18  21
ENDBRANCH  14  15
ENDBRANCH   7  14
BRANCH   2  28
ATOM     28  S   UNL d   1      53.632  34.029  54.609  0.00  0.00     0.231 S 
ATOM     29  O   UNL d   1      53.096  33.899  55.226  0.00  0.00    -0.215 OA
ATOM     30  O   UNL d   1      54.165  34.167  53.995  0.00  0.00    -0.215 OA
BRANCH  28  31
ATOM     31  C   UNL d   1      53.484  34.838  54.663  0.00  0.00     0.090 A 
ATOM     32  C   UNL d   1      53.845  35.354  54.141  0.00  0.00     0.011 A 
ATOM     33  C   UNL d   1      53.699  36.165  54.191  0.00  0.00     0.001 A 
ATOM     34  C   UNL d   1      53.189  36.456  54.769  0.00  0.00     0.000 A 
ATOM     35  C   UNL d   1      52.830  35.937  55.289  0.00  0.00     0.001 A 
ATOM     36  C   UNL d   1      52.976  35.132  55.237  0.00  0.00     0.011 A 
ENDBRANCH  28  31
ENDBRANCH   2  28
TORSDOF 6
ENDMDL
MODEL 2
REMARK VINA RESULT:      -7.0      1.001      3.327
REMARK  6 active torsions:
REMARK  status: ('A' for Active; 'I' for Inactive)
REMARK    1  A    between atoms: S_5  and  C_2 
REMARK    2  A    between atoms: C_15  and  S_5 
REMARK    3  A    between atoms: N_11  and  C_8 
REMARK    4  A    between atoms: C_16  and  N_11 
REMARK    5  A    between atoms: C_17  and  N_12 
REMARK    6  A    between atoms: C_24  and  C_17 
ROOT
ATOM      1  C   UNL d   1      53.430  33.230  54.200  0.00  0.00     0.197 A 
ATOM      2  C   UNL d   1      53.622  32.464  54.409  0.00  0.00     0.227 A 
ATOM      3  N   UNL d   1      53.691  33.730  54.804  0.00  0.00    -0.192 N 
ATOM      4  N   UNL d   1      53.050  33.548  53.536  0.00  0.00    -0.206 NA
ATOM      5  N   UNL d   1      53.998  32.484  55.136  0.00  0.00    -0.115 NA
ATOM      6  N   UNL d   1      54.043  33.273  55.385  0.00  0.00    -0.058 NA
ATOM      7  C   UNL d   1      52.933  34.360  53.478  0.00  0.00     0.166 A 
ATOM      8  C   UNL d   1      53.194  34.860  54.082  0.00  0.00     0.054 A 
ATOM      9  C   UNL d   1      53.572  34.548  54.742  0.00  0.00     0.089 A 
ATOM     10  C   UNL d   1      53.076  35.675  54.023  0.00  0.00     0.005 A 
ATOM     11  C   UNL d   1      53.834  35.051  55.349  0.00  0.00     0.019 A 
ATOM     12  C   UNL d   1      53.338  36.178  54.630  0.00  0.00     0.000 A 
ATOM     13  C   UNL d   1      53.717  35.862  55.292  0.00  0.00     0.002 A 
ENDROOT
BRANCH   7  14
ATOM     14  N   UNL d   1      52.551  34.668  52.808  0.00  0.00    -0.227 NA
BRANCH  14  15
ATOM     15  C   UNL d   1      51.762  34.465  52.643  0.00  0.00     0.086 A 
ATOM     16  C   UNL d   1      51.176  34.578  53.218  0.00  0.00     0.038 A 
ATOM     17  C   UNL d   1      50.392  34.375  53.050  0.00  0.00     0.082 A 
ATOM     18  N   UNL d   1      50.197  34.060  52.309  0.00  0.00    -0.302 N 
ATOM     19  C   UNL d   1      50.781  33.950  51.742  0.00  0.00     0.082 A 
ATOM     20  C   UNL d   1      51.565  34.153  51.909  0.00  0.00     0.038 A 
BRANCH  18  21
ATOM     21  C   UNL d   1      49.417  33.857  52.139  0.00  0.00     0.080 C 
BRANCH  21  22
ATOM     22  C   UNL d   1      48.901  34.427  51.837  0.00  0.00     0.018 A 
ATOM     23  C   UNL d   1      48.750  34.455  51.028  0.00  0.00     0.002 A 
ATOM     24  C   UNL d   1      48.238  35.019  50.720  0.00  0.00     0.000 A 
ATOM     25  C   UNL d   1      47.868  35.568  51.232  0.00  0.00     0.000 A 
ATOM     26  C   UNL d   1      48.025  35.534  52.039  0.00  0.00     0.000 A 
ATOM     27  C   UNL d   1      48.539  34.967  52.347  0.00  0.00     0.002 A 
ENDBRANCH  21  22
ENDBRANCH  18  21
ENDBRANCH  14  15
ENDBRANCH   7  14
BRANCH   2  28
ATOM     28  S   UNL d   1      53.464  31.785  53.966  0.00  0.00     0.231 S 
ATOM     29  O   UNL d   1      52.749  31.687  54.371  0.00  0.00    -0.215 OA
ATOM     30  O   UNL d   1      54.174  31.875  53.558  0.00  0.00    -0.215 OA
BRANCH  28  31
ATOM     31  C   UNL d   1      53.298  31.106  53.528  0.00  0.00     0.090 A 
ATOM     32  C   UNL d   1      53.691  30.409  53.694  0.00  0.00     0.011 A 
ATOM     33  C   UNL d   1      53.528  29.727  53.258  0.00  0.00     0.001 A 
ATOM     34  C   UNL d   1      52.968  29.749  52.653  0.00  0.00     0.000 A 
ATOM     35  C   UNL d   1      52.578  30.449  52.490  0.00  0.00     0.001 A 
ATOM     36  C   UNL d   1      52.742  31.125  52.925  0.00  0.00     0.011 A 
ENDBRANCH  28  31
ENDBRANCH   2  28
TORSDOF 6
ENDMDL
MODEL 3
REMARK VINA RESULT:      -6.3      1.588      4.872
REMARK  6 active torsions:
REMARK  status: ('A' for Active; 'I' for Inactive)
REMARK    1  A    between atoms: S_5  and  C_2 
REMARK    2  A    between atoms: C_15  and  S_5 
REMARK    3  A    between atoms: N_11  and  C_8 
REMARK    4  A    between atoms: C_16  and  N_11 
REMARK    5  A    between atoms: C_17  and  N_12 
REMARK    6  A    between atoms: C_24  and  C_17 
ROOT
ATOM      1  C   UNL d   1      53.005  34.343  53.873  0.00  0.00     0.197 A 
ATOM      2  C   UNL d   1      52.320  34.774  53.768  0.00  0.00     0.227 A 
ATOM      3  N   UNL d   1      53.448  34.710  54.467  0.00  0.00    -0.192 N 
ATOM      4  N   UNL d   1      53.294  33.658  53.508  0.00  0.00    -0.206 NA
ATOM      5  N   UNL d   1      52.332  35.405  54.290  0.00  0.00    -0.115 NA
ATOM      6  N   UNL d   1      53.035  35.367  54.728  0.00  0.00    -0.058 NA
ATOM      7  C   UNL d   1      54.019  33.344  53.735  0.00  0.00     0.166 A 
ATOM      8  C   UNL d   1      54.462  33.712  54.329  0.00  0.00     0.054 A 
ATOM      9  C   UNL d   1      54.178  34.391  54.694  0.00  0.00     0.089 A 
ATOM     10  C   UNL d   1      55.189  33.395  54.556  0.00  0.00     0.005 A 
ATOM     11  C   UNL d   1      54.623  34.760  55.291  0.00  0.00     0.019 A 
ATOM     12  C   UNL d   1      55.634  33.764  55.153  0.00  0.00     0.000 A 
ATOM     13  C   UNL d   1      55.347  34.447  55.518  0.00  0.00     0.002 A 
ENDROOT
BRANCH   7  14
ATOM     14  N   UNL d   1      54.299  32.656  53.362  0.00  0.00    -0.227 NA
BRANCH  14  15
ATOM     15  C   UNL d   1      53.896  31.935  53.451  0.00  0.00     0.086 A 
ATOM     16  C   UNL d   1      53.611  31.533  52.785  0.00  0.00     0.038 A 
ATOM     17  C   UNL d   1      53.211  30.815  52.878  0.00  0.00     0.082 A 
ATOM     18  N   UNL d   1      53.096  30.503  53.637  0.00  0.00    -0.302 N 
ATOM     19  C   UNL d   1      53.380  30.905  54.295  0.00  0.00     0.082 A 
ATOM     20  C   UNL d   1      53.780  31.622  54.202  0.00  0.00     0.038 A 
BRANCH  18  21
ATOM     21  C   UNL d   1      52.697  29.789  53.734  0.00  0.00     0.080 C 
BRANCH  21  22
ATOM     22  C   UNL d   1      53.008  29.210  54.234  0.00  0.00     0.018 A 
ATOM     23  C   UNL d   1      52.780  29.187  55.025  0.00  0.00     0.002 A 
ATOM     24  C   UNL d   1      53.085  28.614  55.529  0.00  0.00     0.000 A 
ATOM     25  C   UNL d   1      53.631  28.051  55.236  0.00  0.00     0.000 A 
ATOM     26  C   UNL d   1      53.854  28.081  54.445  0.00  0.00     0.000 A 
ATOM     27  C   UNL d   1      53.546  28.657  53.940  0.00  0.00     0.002 A 
ENDBRANCH  21  22
ENDBRANCH  18  21
ENDBRANCH  14  15
ENDBRANCH   7  14
BRANCH   2  28
ATOM     28  S   UNL d   1      51.717  34.606  53.229  0.00  0.00     0.231 S 
ATOM     29  O   UNL d   1      51.312  34.184  53.815  0.00  0.00    -0.215 OA
ATOM     30  O   UNL d   1      52.114  35.024  52.640  0.00  0.00    -0.215 OA
BRANCH  28  31
ATOM     31  C   UNL d   1      51.111  34.433  52.698  0.00  0.00     0.090 A 
ATOM     32  C   UNL d   1      50.333  34.443  52.950  0.00  0.00     0.011 A 
ATOM     33  C   UNL d   1      49.723  34.271  52.420  0.00  0.00     0.001 A 
ATOM     34  C   UNL d   1      49.898  34.088  51.636  0.00  0.00     0.000 A 
ATOM     35  C   UNL d   1      50.678  34.079  51.389  0.00  0.00     0.001 A 
ATOM     36  C   UNL d   1      51.281  34.250  51.916  0.00  0.00     0.011 A 
ENDBRANCH  28  31
ENDBRANCH   2  28
TORSDOF 6
ENDMDL
MODEL 4
REMARK VINA RESULT:      -5.7      1.280      4.508
REMARK  6 active torsions:
REMARK  status: ('A' for Active; 'I' for Inactive)
REMARK    1  A    between atoms: S_5  and  C_2 
REMARK    2  A    between atoms: C_15  and  S_5 
REMARK    3  A    between atoms: N_11  and  C_8 
REMARK    4  A    between atoms: C_16  and  N_11 
REMARK    5  A    between atoms: C_17  and  N_12 
REMARK    6  A    between atoms: C_24  and  C_17 
ROOT
ATOM      1  C   UNL d   1      52.149  34.302  53.695  0.00  0.00     0.197 A 
ATOM      2  C   UNL d   1      52.647  34.685  54.215  0.00  0.00     0.227 A 
ATOM      3  N   UNL d   1      51.487  34.783  53.576  0.00  0.00    -0.192 N 
ATOM      4  N   UNL d   1      52.204  33.572  53.305  0.00  0.00    -0.206 NA
ATOM      5  N   UNL d   1      52.303  35.398  54.421  0.00  0.00    -0.115 NA
ATOM      6  N   UNL d   1      51.579  35.462  54.023  0.00  0.00    -0.058 NA
ATOM      7  C   UNL d   1      51.602  33.328  52.802  0.00  0.00     0.166 A 
ATOM      8  C   UNL d   1      50.940  33.809  52.683  0.00  0.00     0.054 A 
ATOM      9  C   UNL d   1      50.882  34.533  53.068  0.00  0.00     0.089 A 
ATOM     10  C   UNL d   1      50.336  33.562  52.178  0.00  0.00     0.005 A 
ATOM     11  C   UNL d   1      50.217  35.017  52.948  0.00  0.00     0.019 A 
ATOM     12  C   UNL d   1      49.671  34.045  52.058  0.00  0.00     0.000 A 
ATOM     13  C   UNL d   1      49.615  34.772  52.445  0.00  0.00     0.002 A 
ENDROOT
BRANCH   7  14
ATOM     14  N   UNL d   1      51.667  32.594  52.417  0.00  0.00    -0.227 NA
BRANCH  14  15
ATOM     15  C   UNL d   1      52.195  32.017  52.698  0.00  0.00     0.086 A 
ATOM     16  C   UNL d   1      51.951  31.477  53.277  0.00  0.00     0.038 A 
ATOM     17  C   UNL d   1      52.479  30.904  53.554  0.00  0.00     0.082 A 
ATOM     18  N   UNL d   1      53.250  30.874  53.252  0.00  0.00    -0.302 N 
ATOM     19  C   UNL d   1      53.489  31.412  52.678  0.00  0.00     0.082 A 
ATOM     20  C   UNL d   1      52.961  31.985  52.401  0.00  0.00     0.038 A 
BRANCH  18  21
ATOM     21  C   UNL d   1      53.779  30.306  53.525  0.00  0.00     0.080 C 
BRANCH  21  22
ATOM     22  C   UNL d   1      53.561  29.807  54.146  0.00  0.00     0.018 A 
ATOM     23  C   UNL d   1      53.368  29.022  53.991  0.00  0.00     0.002 A 
ATOM     24  C   UNL d   1      53.149  28.519  54.603  0.00  0.00     0.000 A 
ATOM     25  C   UNL d   1      53.123  28.807  55.389  0.00  0.00     0.000 A 
ATOM     26  C   UNL d   1      53.317  29.594  55.535  0.00  0.00     0.000 A 
ATOM     27  C   UNL d   1      53.536  30.097  54.919  0.00  0.00     0.002 A 
ENDBRANCH  21  22
ENDBRANCH  18  21
ENDBRANCH  14  15
ENDBRANCH   7  14
BRANCH   2  28
ATOM     28  S   UNL d   1      53.374  34.404  54.489  0.00  0.00     0.231 S 
ATOM     29  O   UNL d   1      52.995  34.056  55.137  0.00  0.00    -0.215 OA
ATOM     30  O   UNL d   1      53.759  34.749  53.847  0.00  0.00    -0.215 OA
BRANCH  28  31
ATOM     31  C   UNL d   1      54.096  34.120  54.770  0.00  0.00     0.090 A 
ATOM     32  C   UNL d   1      54.121  33.688  55.463  0.00  0.00     0.011 A 
ATOM     33  C   UNL d   1      54.842  33.401  55.747  0.00  0.00     0.001 A 
ATOM     34  C   UNL d   1      55.537  33.551  55.331  0.00  0.00     0.000 A 
ATOM     35  C   UNL d   1      55.507  33.985  54.638  0.00  0.00     0.001 A 
ATOM     36  C   UNL d   1      54.790  34.268  54.358  0.00  0.00     0.011 A 
ENDBRANCH  28  31
ENDBRANCH   2  28
TORSDOF 6
ENDMDL
