MODEL 1
REMARK VINA RESULT:      -5.1      0.000      0.000
REMARK  6 active torsions:
REMARK  status: ('A' for Active; 'I' for Inactive)
REMARK    1  A    between atoms: N_2  and  S_1 
REMARK    2  A    between atoms: C_6  and  S_1 
REMARK    3  A    between atoms: C_4  and  N_2 
REMARK    4  A    between atoms: C_5  and  C_3 
REMARK    5  A    between atoms: O_12  and  C_5 
REMARK    6  A    between atoms: C_18  and  O_12 
ROOT
ATOM      1  C   UNL d   1      58.824  -0.372  29.736  0.00  0.00     0.082 A 
ATOM      2  C   UNL d   1      58.334  -0.171  30.361  0.00  0.00     0.099 A 
ATOM      3  C   UNL d   1      59.581  -0.046  29.686  0.00  0.00     0.007 A 
ATOM      4  C   UNL d   1      58.600   0.357  30.935  0.00  0.00     0.020 A 
ATOM      5  C   UNL d   1      59.843   0.480  30.261  0.00  0.00     0.000 A 
ATOM      6  C   UNL d   1      59.352   0.682  30.885  0.00  0.00     0.002 A 
ENDROOT
BRANCH   2   7
ATOM      7  N   UNL d   1      57.563  -0.497  30.420  0.00  0.00    -0.158 NA
BRANCH   7   8
ATOM      8  S   UNL d   1      57.126  -0.367  31.104  0.00  0.00     0.285 S 
ATOM      9  O   UNL d   1      57.209  -1.183  31.320  0.00  0.00    -0.198 OA
ATOM     10  O   UNL d   1      57.031   0.428  30.917  0.00  0.00    -0.198 OA
BRANCH   8  11
ATOM     11  C   UNL d   1      56.683  -0.255  31.805  0.00  0.00     0.105 A 
ATOM     12  C   UNL d   1      56.542  -0.902  32.305  0.00  0.00     0.013 A 
ATOM     13  C   UNL d   1      56.105  -0.792  32.997  0.00  0.00     0.001 A 
ATOM     14  C   UNL d   1      55.821  -0.038  33.171  0.00  0.00     0.000 A 
ATOM     15  C   UNL d   1      55.957   0.608  32.681  0.00  0.00     0.001 A 
ATOM     16  C   UNL d   1      55.382   0.093  33.859  0.00  0.00     0.000 C 
ATOM     17  C   UNL d   1      56.394   0.498  31.988  0.00  0.00     0.013 A 
ENDBRANCH   8  11
ENDBRANCH   7   8
ENDBRANCH   2   7
BRANCH   1  18
ATOM     18  C   UNL d   1      58.550  -0.919  29.140  0.00  0.00     0.302 C 
ATOM     19  O   UNL d   1      58.130  -0.643  28.499  0.00  0.00    -0.259 OA
BRANCH  18  20
ATOM     20  O   UNL d   1      58.707  -1.732  29.206  0.00  0.00    -0.271 OA
BRANCH  20  21
ATOM     21  C   UNL d   1      58.884  -2.173  28.518  0.00  0.00     0.126 C 
ATOM     22  C   UNL d   1      58.982  -2.981  28.566  0.00  0.00     0.029 C 
ENDBRANCH  20  21
ENDBRANCH  18  20
ENDBRANCH   1  18
TORSDOF 6
ENDMDL
MODEL 2
REMARK VINA RESULT:      -2.8      1.595      4.548
REMARK  6 active torsions:
REMARK  status: ('A' for Active; 'I' for Inactive)
REMARK    1  A    between atoms: N_2  and  S_1 
REMARK    2  A    between atoms: C_6  and  S_1 
REMARK    3  A    between atoms: C_4  and  N_2 
REMARK    4  A    between atoms: C_5  and  C_3 
REMARK    5  A    between atoms: O_12  and  C_5 
REMARK    6  A    between atoms: C_18  and  O_12 
ROOT
ATOM      1  C   UNL d   1      55.839  -0.401  32.997  0.00  0.00     0.082 A 
ATOM      2  C   UNL d   1      56.367  -0.357  32.373  0.00  0.00     0.099 A 
ATOM      3  C   UNL d   1      55.606  -1.137  33.288  0.00  0.00     0.007 A 
ATOM      4  C   UNL d   1      56.663  -1.050  32.039  0.00  0.00     0.020 A 
ATOM      5  C   UNL d   1      55.904  -1.826  32.952  0.00  0.00     0.000 A 
ATOM      6  C   UNL d   1      56.432  -1.783  32.328  0.00  0.00     0.002 A 
ENDROOT
BRANCH   2   7
ATOM      7  N   UNL d   1      56.609   0.388  32.071  0.00  0.00    -0.158 NA
BRANCH   7   8
ATOM      8  S   UNL d   1      57.196   0.413  31.496  0.00  0.00     0.285 S 
ATOM      9  O   UNL d   1      56.641   0.161  30.908  0.00  0.00    -0.198 OA
ATOM     10  O   UNL d   1      57.754   0.660  32.047  0.00  0.00    -0.198 OA
BRANCH   8  11
ATOM     11  C   UNL d   1      57.780   0.433  30.896  0.00  0.00     0.105 A 
ATOM     12  C   UNL d   1      57.546   0.510  30.104  0.00  0.00     0.013 A 
ATOM     13  C   UNL d   1      58.122   0.530  29.511  0.00  0.00     0.001 A 
ATOM     14  C   UNL d   1      58.916   0.472  29.728  0.00  0.00     0.000 A 
ATOM     15  C   UNL d   1      59.154   0.396  30.511  0.00  0.00     0.001 A 
ATOM     16  C   UNL d   1      59.506   0.490  29.150  0.00  0.00     0.000 C 
ATOM     17  C   UNL d   1      58.578   0.376  31.103  0.00  0.00     0.013 A 
ENDBRANCH   8  11
ENDBRANCH   7   8
ENDBRANCH   2   7
BRANCH   1  18
ATOM     18  C   UNL d   1      55.531   0.317  33.345  0.00  0.00     0.302 C 
ATOM     19  O   UNL d   1      54.883   0.682  33.013  0.00  0.00    -0.259 OA
BRANCH  18  20
ATOM     20  O   UNL d   1      55.886   0.648  34.018  0.00  0.00    -0.271 OA
BRANCH  20  21
ATOM     21  C   UNL d   1      55.460   0.672  34.737  0.00  0.00     0.126 C 
ATOM     22  C   UNL d   1      55.859   0.668  35.448  0.00  0.00     0.029 C 
ENDBRANCH  20  21
ENDBRANCH  18  20
ENDBRANCH   1  18
TORSDOF 6
ENDMDL
