MODEL 1
REMARK VINA RESULT:      -3.2      0.000      0.000
REMARK  1 active torsions:
REMARK  status: ('A' for Active; 'I' for Inactive)
REMARK    1  A    between atoms: C_7  and  C_2 
ROOT
ATOM      1  C   UNL d   1      30.037  16.576 -23.822  0.00  0.00     0.074 A 
ATOM      2  C   UNL d   1      30.429  17.137 -24.281  0.00  0.00     0.088 A 
ATOM      3  C   UNL d   1      29.214  16.574 -23.788  0.00  0.00     0.088 A 
ATOM      4  C   UNL d   1      29.174  17.696 -24.672  0.00  0.00     0.221 A 
ATOM      5  N   UNL d   1      28.781  17.134 -24.212  0.00  0.00    -0.217 NA
ATOM      6  N   UNL d   1      29.998  17.698 -24.706  0.00  0.00    -0.217 NA
ATOM      7  C   UNL d   1      30.468  16.023 -23.402  0.00  0.00     0.199 A 
ATOM      8  S   UNL d   1      28.742  18.257 -25.097  0.00  0.00    -0.037 SA
ATOM      9  O   UNL d   1      31.292  16.024 -23.437  0.00  0.00    -0.286 OA
ATOM     10  C   UNL d   1      28.820  16.019 -23.333  0.00  0.00     0.019 A 
ATOM     11  C   UNL d   1      30.076  15.454 -22.938  0.00  0.00     0.042 A 
ATOM     12  C   UNL d   1      29.253  15.453 -22.903  0.00  0.00     0.005 A 
ENDROOT
BRANCH   2  13
ATOM     13  C   UNL d   1      31.253  17.139 -24.315  0.00  0.00     0.021 A 
ATOM     14  C   UNL d   1      31.684  17.674 -23.857  0.00  0.00     0.043 A 
ATOM     15  C   UNL d   1      32.503  17.675 -23.891  0.00  0.00     0.196 A 
ATOM     16  O   UNL d   1      32.934  18.210 -23.433  0.00  0.00    -0.287 OA
ATOM     17  C   UNL d   1      32.897  17.142 -24.384  0.00  0.00     0.042 A 
ATOM     18  C   UNL d   1      32.465  16.609 -24.841  0.00  0.00     0.003 A 
ATOM     19  C   UNL d   1      31.646  16.607 -24.807  0.00  0.00     0.002 A 
ENDBRANCH   2  13
TORSDOF 1
ENDMDL
MODEL 2
REMARK VINA RESULT:      -2.8      1.976      3.428
REMARK  1 active torsions:
REMARK  status: ('A' for Active; 'I' for Inactive)
REMARK    1  A    between atoms: C_7  and  C_2 
ROOT
ATOM      1  C   UNL d   1      31.390  16.958 -24.348  0.00  0.00     0.074 A 
ATOM      2  C   UNL d   1      31.087  16.254 -24.043  0.00  0.00     0.088 A 
ATOM      3  C   UNL d   1      32.177  17.161 -24.210  0.00  0.00     0.088 A 
ATOM      4  C   UNL d   1      32.357  15.958 -23.461  0.00  0.00     0.221 A 
ATOM      5  N   UNL d   1      32.661  16.662 -23.767  0.00  0.00    -0.217 NA
ATOM      6  N   UNL d   1      31.571  15.754 -23.599  0.00  0.00    -0.217 NA
ATOM      7  C   UNL d   1      30.908  17.450 -24.787  0.00  0.00     0.199 A 
ATOM      8  S   UNL d   1      32.842  15.457 -23.017  0.00  0.00    -0.037 SA
ATOM      9  O   UNL d   1      30.120  17.246 -24.925  0.00  0.00    -0.286 OA
ATOM     10  C   UNL d   1      32.482  17.858 -24.511  0.00  0.00     0.019 A 
ATOM     11  C   UNL d   1      31.210  18.161 -25.096  0.00  0.00     0.042 A 
ATOM     12  C   UNL d   1      31.996  18.365 -24.958  0.00  0.00     0.005 A 
ENDROOT
BRANCH   2  13
ATOM     13  C   UNL d   1      30.300  16.050 -24.181  0.00  0.00     0.021 A 
ATOM     14  C   UNL d   1      29.729  16.198 -23.604  0.00  0.00     0.043 A 
ATOM     15  C   UNL d   1      28.946  15.995 -23.741  0.00  0.00     0.196 A 
ATOM     16  O   UNL d   1      28.374  16.143 -23.164  0.00  0.00    -0.287 OA
ATOM     17  C   UNL d   1      28.730  15.643 -24.456  0.00  0.00     0.042 A 
ATOM     18  C   UNL d   1      29.302  15.496 -25.032  0.00  0.00     0.003 A 
ATOM     19  C   UNL d   1      30.084  15.699 -24.895  0.00  0.00     0.002 A 
ENDBRANCH   2  13
TORSDOF 1
ENDMDL
MODEL 3
REMARK VINA RESULT:      -2.5      1.471      2.036
REMARK  1 active torsions:
REMARK  status: ('A' for Active; 'I' for Inactive)
REMARK    1  A    between atoms: C_7  and  C_2 
ROOT
ATOM      1  C   UNL d   1      29.788  16.894 -24.291  0.00  0.00     0.074 A 
ATOM      2  C   UNL d   1      30.088  16.206 -23.950  0.00  0.00     0.088 A 
ATOM      3  C   UNL d   1      28.999  17.103 -24.172  0.00  0.00     0.088 A 
ATOM      4  C   UNL d   1      28.811  15.934 -23.372  0.00  0.00     0.221 A 
ATOM      5  N   UNL d   1      28.510  16.623 -23.713  0.00  0.00    -0.217 NA
ATOM      6  N   UNL d   1      29.599  15.726 -23.490  0.00  0.00    -0.217 NA
ATOM      7  C   UNL d   1      30.275  17.367 -24.746  0.00  0.00     0.199 A 
ATOM      8  S   UNL d   1      28.322  15.454 -22.911  0.00  0.00    -0.037 SA
ATOM      9  O   UNL d   1      31.064  17.159 -24.865  0.00  0.00    -0.286 OA
ATOM     10  C   UNL d   1      28.697  17.784 -24.508  0.00  0.00     0.019 A 
ATOM     11  C   UNL d   1      29.976  18.063 -25.092  0.00  0.00     0.042 A 
ATOM     12  C   UNL d   1      29.188  18.271 -24.973  0.00  0.00     0.005 A 
ENDROOT
BRANCH   2  13
ATOM     13  C   UNL d   1      30.877  15.997 -24.069  0.00  0.00     0.021 A 
ATOM     14  C   UNL d   1      31.432  16.126 -23.472  0.00  0.00     0.043 A 
ATOM     15  C   UNL d   1      32.216  15.919 -23.590  0.00  0.00     0.196 A 
ATOM     16  O   UNL d   1      32.772  16.047 -22.993  0.00  0.00    -0.287 OA
ATOM     17  C   UNL d   1      32.451  15.581 -24.306  0.00  0.00     0.042 A 
ATOM     18  C   UNL d   1      31.895  15.453 -24.903  0.00  0.00     0.003 A 
ATOM     19  C   UNL d   1      31.111  15.661 -24.784  0.00  0.00     0.002 A 
ENDBRANCH   2  13
TORSDOF 1
ENDMDL
MODEL 4
REMARK VINA RESULT:      -1.3      2.164      2.872
REMARK  1 active torsions:
REMARK  status: ('A' for Active; 'I' for Inactive)
REMARK    1  A    between atoms: C_7  and  C_2 
ROOT
ATOM      1  C   UNL d   1      31.819  17.136 -23.958  0.00  0.00     0.074 A 
ATOM      2  C   UNL d   1      32.518  17.368 -23.587  0.00  0.00     0.088 A 
ATOM      3  C   UNL d   1      31.593  16.343 -23.953  0.00  0.00     0.088 A 
ATOM      4  C   UNL d   1      32.767  16.014 -23.207  0.00  0.00     0.221 A 
ATOM      5  N   UNL d   1      32.067  15.782 -23.577  0.00  0.00    -0.217 NA
ATOM      6  N   UNL d   1      32.992  16.807 -23.212  0.00  0.00    -0.217 NA
ATOM      7  C   UNL d   1      31.352  17.695 -24.329  0.00  0.00     0.199 A 
ATOM      8  S   UNL d   1      33.241  15.452 -22.831  0.00  0.00    -0.037 SA
ATOM      9  O   UNL d   1      31.577  18.488 -24.334  0.00  0.00    -0.286 OA
ATOM     10  C   UNL d   1      30.901  16.108 -24.319  0.00  0.00     0.019 A 
ATOM     11  C   UNL d   1      30.645  17.465 -24.704  0.00  0.00     0.042 A 
ATOM     12  C   UNL d   1      30.420  16.672 -24.699  0.00  0.00     0.005 A 
ENDROOT
BRANCH   2  13
ATOM     13  C   UNL d   1      32.743  18.161 -23.593  0.00  0.00     0.021 A 
ATOM     14  C   UNL d   1      32.701  18.606 -22.899  0.00  0.00     0.043 A 
ATOM     15  C   UNL d   1      32.926  19.395 -22.904  0.00  0.00     0.196 A 
ATOM     16  O   UNL d   1      32.884  19.840 -22.210  0.00  0.00    -0.287 OA
ATOM     17  C   UNL d   1      33.193  19.744 -23.603  0.00  0.00     0.042 A 
ATOM     18  C   UNL d   1      33.235  19.298 -24.295  0.00  0.00     0.003 A 
ATOM     19  C   UNL d   1      33.011  18.509 -24.290  0.00  0.00     0.002 A 
ENDBRANCH   2  13
TORSDOF 1
ENDMDL
MODEL 5
REMARK VINA RESULT:      -0.7      5.348      6.443
REMARK  1 active torsions:
REMARK  status: ('A' for Active; 'I' for Inactive)
REMARK    1  A    between atoms: C_7  and  C_2 
ROOT
ATOM      1  C   UNL d   1      32.764  21.357 -21.718  0.00  0.00     0.074 A 
ATOM      2  C   UNL d   1      32.766  22.176 -21.814  0.00  0.00     0.088 A 
ATOM      3  C   UNL d   1      32.921  20.866 -22.361  0.00  0.00     0.088 A 
ATOM      4  C   UNL d   1      33.082  22.014 -23.197  0.00  0.00     0.221 A 
ATOM      5  N   UNL d   1      33.080  21.194 -23.101  0.00  0.00    -0.217 NA
ATOM      6  N   UNL d   1      32.925  22.505 -22.554  0.00  0.00    -0.217 NA
ATOM      7  C   UNL d   1      32.606  21.035 -20.983  0.00  0.00     0.199 A 
ATOM      8  S   UNL d   1      33.241  22.342 -23.938  0.00  0.00    -0.037 SA
ATOM      9  O   UNL d   1      32.449  21.526 -20.339  0.00  0.00    -0.286 OA
ATOM     10  C   UNL d   1      32.920  20.054 -22.270  0.00  0.00     0.019 A 
ATOM     11  C   UNL d   1      32.603  20.209 -20.882  0.00  0.00     0.042 A 
ATOM     12  C   UNL d   1      32.760  19.719 -21.525  0.00  0.00     0.005 A 
ENDROOT
BRANCH   2  13
ATOM     13  C   UNL d   1      32.609  22.667 -21.170  0.00  0.00     0.021 A 
ATOM     14  C   UNL d   1      31.840  22.933 -21.033  0.00  0.00     0.043 A 
ATOM     15  C   UNL d   1      31.683  23.421 -20.393  0.00  0.00     0.196 A 
ATOM     16  O   UNL d   1      30.914  23.688 -20.255  0.00  0.00    -0.287 OA
ATOM     17  C   UNL d   1      32.295  23.646 -19.886  0.00  0.00     0.042 A 
ATOM     18  C   UNL d   1      33.063  23.380 -20.024  0.00  0.00     0.003 A 
ATOM     19  C   UNL d   1      33.220  22.891 -20.664  0.00  0.00     0.002 A 
ENDBRANCH   2  13
TORSDOF 1
ENDMDL
