MODEL 1
REMARK VINA RESULT:      -4.3      0.000      0.000
REMARK  1 active torsions:
REMARK  status: ('A' for Active; 'I' for Inactive)
REMARK    1  A    between atoms: C_7  and  C_1 
ROOT
ATOM      1  C   UNL d   1      57.425   0.216  32.028  0.00  0.00     0.062 A 
ATOM      2  C   UNL d   1      56.655   0.066  32.272  0.00  0.00     0.202 A 
ATOM      3  C   UNL d   1      56.409   0.209  33.036  0.00  0.00     0.101 A 
ATOM      4  C   UNL d   1      57.971   0.524  32.580  0.00  0.00     0.103 A 
ATOM      5  C   UNL d   1      56.956   0.517  33.588  0.00  0.00     0.109 A 
ATOM      6  O   UNL d   1      57.734   0.675  33.363  0.00  0.00    -0.307 OA
ATOM      7  C   UNL d   1      55.657   0.059  33.263  0.00  0.00     0.204 A 
ATOM      8  C   UNL d   1      56.736   0.668  34.354  0.00  0.00     0.067 A 
ATOM      9  C   UNL d   1      55.409   0.201  34.029  0.00  0.00     0.084 A 
ATOM     10  O   UNL d   1      56.112  -0.241  31.722  0.00  0.00    -0.286 OA
ATOM     11  C   UNL d   1      55.955   0.510  34.582  0.00  0.00     0.201 A 
ATOM     12  O   UNL d   1      55.114  -0.248  32.714  0.00  0.00    -0.286 OA
ATOM     13  C   UNL d   1      58.753   0.682  32.352  0.00  0.00     0.027 C 
ATOM     14  O   UNL d   1      55.723   0.660  35.360  0.00  0.00    -0.286 OA
ENDROOT
BRANCH   1  15
ATOM     15  C   UNL d   1      57.661   0.066  31.248  0.00  0.00     0.007 A 
ATOM     16  C   UNL d   1      57.877  -0.688  31.043  0.00  0.00     0.027 A 
ATOM     17  C   UNL d   1      58.111  -0.835  30.267  0.00  0.00     0.123 A 
ATOM     18  O   UNL d   1      58.306  -1.623  30.173  0.00  0.00    -0.303 OA
ATOM     19  C   UNL d   1      58.123  -0.235  29.721  0.00  0.00     0.123 A 
ATOM     20  C   UNL d   1      58.563  -2.003  29.501  0.00  0.00     0.125 A 
ATOM     21  C   UNL d   1      58.690  -1.686  28.753  0.00  0.00     0.053 A 
ATOM     22  C   UNL d   1      58.586  -0.901  28.500  0.00  0.00     0.125 A 
ATOM     23  O   UNL d   1      58.334  -0.258  28.932  0.00  0.00    -0.303 OA
ATOM     24  C   UNL d   1      57.902   0.530  29.936  0.00  0.00     0.027 A 
ATOM     25  C   UNL d   1      57.666   0.679  30.717  0.00  0.00     0.002 A 
ENDBRANCH   1  15
TORSDOF 1
ENDMDL
MODEL 2
REMARK VINA RESULT:      -4.0      1.299      4.305
REMARK  1 active torsions:
REMARK  status: ('A' for Active; 'I' for Inactive)
REMARK    1  A    between atoms: C_7  and  C_1 
ROOT
ATOM      1  C   UNL d   1      58.108   0.125  31.096  0.00  0.00     0.062 A 
ATOM      2  C   UNL d   1      58.119  -0.107  30.308  0.00  0.00     0.202 A 
ATOM      3  C   UNL d   1      58.787  -0.038  29.847  0.00  0.00     0.101 A 
ATOM      4  C   UNL d   1      58.805   0.441  31.433  0.00  0.00     0.103 A 
ATOM      5  C   UNL d   1      59.484   0.278  30.184  0.00  0.00     0.109 A 
ATOM      6  O   UNL d   1      59.494   0.518  30.974  0.00  0.00    -0.307 OA
ATOM      7  C   UNL d   1      58.786  -0.268  29.080  0.00  0.00     0.204 A 
ATOM      8  C   UNL d   1      60.162   0.357  29.746  0.00  0.00     0.067 A 
ATOM      9  C   UNL d   1      59.456  -0.199  28.616  0.00  0.00     0.084 A 
ATOM     10  O   UNL d   1      57.426  -0.422  29.973  0.00  0.00    -0.286 OA
ATOM     11  C   UNL d   1      60.152   0.118  28.953  0.00  0.00     0.201 A 
ATOM     12  O   UNL d   1      58.094  -0.582  28.745  0.00  0.00    -0.286 OA
ATOM     13  C   UNL d   1      58.814   0.681  32.227  0.00  0.00     0.027 C 
ATOM     14  O   UNL d   1      60.838   0.195  28.500  0.00  0.00    -0.286 OA
ENDROOT
BRANCH   1  15
ATOM     15  C   UNL d   1      57.421   0.049  31.553  0.00  0.00     0.007 A 
ATOM     16  C   UNL d   1      57.278  -0.655  31.928  0.00  0.00     0.027 A 
ATOM     17  C   UNL d   1      56.594  -0.729  32.382  0.00  0.00     0.123 A 
ATOM     18  O   UNL d   1      56.551  -1.475  32.713  0.00  0.00    -0.303 OA
ATOM     19  C   UNL d   1      56.077  -0.107  32.449  0.00  0.00     0.123 A 
ATOM     20  C   UNL d   1      55.972  -1.781  33.195  0.00  0.00     0.125 A 
ATOM     21  C   UNL d   1      55.289  -1.412  33.469  0.00  0.00     0.053 A 
ATOM     22  C   UNL d   1      55.024  -0.639  33.319  0.00  0.00     0.125 A 
ATOM     23  O   UNL d   1      55.376  -0.061  32.865  0.00  0.00    -0.303 OA
ATOM     24  C   UNL d   1      56.230   0.606  32.065  0.00  0.00     0.027 A 
ATOM     25  C   UNL d   1      56.917   0.682  31.608  0.00  0.00     0.002 A 
ENDBRANCH   1  15
TORSDOF 1
ENDMDL
MODEL 3
REMARK VINA RESULT:      -3.0      1.274      1.904
REMARK  1 active torsions:
REMARK  status: ('A' for Active; 'I' for Inactive)
REMARK    1  A    between atoms: C_7  and  C_1 
ROOT
ATOM      1  C   UNL d   1      57.580  -0.567  30.812  0.00  0.00     0.062 A 
ATOM      2  C   UNL d   1      57.148  -0.962  31.389  0.00  0.00     0.202 A 
ATOM      3  C   UNL d   1      56.664  -0.567  31.912  0.00  0.00     0.101 A 
ATOM      4  C   UNL d   1      57.519   0.265  30.762  0.00  0.00     0.103 A 
ATOM      5  C   UNL d   1      56.603   0.265  31.861  0.00  0.00     0.109 A 
ATOM      6  O   UNL d   1      57.028   0.681  31.288  0.00  0.00    -0.307 OA
ATOM      7  C   UNL d   1      56.248  -0.962  32.470  0.00  0.00     0.204 A 
ATOM      8  C   UNL d   1      56.128   0.681  32.369  0.00  0.00     0.067 A 
ATOM      9  C   UNL d   1      55.761  -0.567  32.995  0.00  0.00     0.084 A 
ATOM     10  O   UNL d   1      57.209  -1.790  31.440  0.00  0.00    -0.286 OA
ATOM     11  C   UNL d   1      55.700   0.266  32.944  0.00  0.00     0.201 A 
ATOM     12  O   UNL d   1      56.308  -1.789  32.521  0.00  0.00    -0.286 OA
ATOM     13  C   UNL d   1      57.947   0.681  30.186  0.00  0.00     0.027 C 
ATOM     14  O   UNL d   1      55.214   0.682  33.466  0.00  0.00    -0.286 OA
ENDROOT
BRANCH   1  15
ATOM     15  C   UNL d   1      58.068  -0.983  30.288  0.00  0.00     0.007 A 
ATOM     16  C   UNL d   1      58.858  -0.804  30.265  0.00  0.00     0.027 A 
ATOM     17  C   UNL d   1      59.342  -1.218  29.742  0.00  0.00     0.123 A 
ATOM     18  O   UNL d   1      60.115  -0.958  29.802  0.00  0.00    -0.303 OA
ATOM     19  C   UNL d   1      59.031  -1.793  29.262  0.00  0.00     0.123 A 
ATOM     20  C   UNL d   1      60.768  -1.214  29.391  0.00  0.00     0.125 A 
ATOM     21  C   UNL d   1      60.809  -1.798  28.813  0.00  0.00     0.053 A 
ATOM     22  C   UNL d   1      60.195  -2.269  28.510  0.00  0.00     0.125 A 
ATOM     23  O   UNL d   1      59.406  -2.265  28.711  0.00  0.00    -0.303 OA
ATOM     24  C   UNL d   1      58.226  -1.970  29.291  0.00  0.00     0.027 A 
ATOM     25  C   UNL d   1      57.738  -1.554  29.816  0.00  0.00     0.002 A 
ENDBRANCH   1  15
TORSDOF 1
ENDMDL
MODEL 4
REMARK VINA RESULT:      -1.5      1.073      4.670
REMARK  1 active torsions:
REMARK  status: ('A' for Active; 'I' for Inactive)
REMARK    1  A    between atoms: C_7  and  C_1 
ROOT
ATOM      1  C   UNL d   1      56.959  -0.663  32.036  0.00  0.00     0.062 A 
ATOM      2  C   UNL d   1      57.519  -0.224  31.625  0.00  0.00     0.202 A 
ATOM      3  C   UNL d   1      57.850  -0.491  30.929  0.00  0.00     0.101 A 
ATOM      4  C   UNL d   1      56.723  -1.404  31.730  0.00  0.00     0.103 A 
ATOM      5  C   UNL d   1      57.613  -1.232  30.623  0.00  0.00     0.109 A 
ATOM      6  O   UNL d   1      57.052  -1.688  31.021  0.00  0.00    -0.307 OA
ATOM      7  C   UNL d   1      58.395  -0.055  30.536  0.00  0.00     0.204 A 
ATOM      8  C   UNL d   1      57.928  -1.519  29.933  0.00  0.00     0.067 A 
ATOM      9  C   UNL d   1      58.727  -0.321  29.838  0.00  0.00     0.084 A 
ATOM     10  O   UNL d   1      57.754   0.513  31.929  0.00  0.00    -0.286 OA
ATOM     11  C   UNL d   1      58.491  -1.062  29.533  0.00  0.00     0.201 A 
ATOM     12  O   UNL d   1      58.630   0.682  30.840  0.00  0.00    -0.286 OA
ATOM     13  C   UNL d   1      56.159  -1.861  32.131  0.00  0.00     0.027 C 
ATOM     14  O   UNL d   1      58.816  -1.347  28.829  0.00  0.00    -0.286 OA
ENDROOT
BRANCH   1  15
ATOM     15  C   UNL d   1      56.632  -0.379  32.742  0.00  0.00     0.007 A 
ATOM     16  C   UNL d   1      55.838  -0.218  32.767  0.00  0.00     0.027 A 
ATOM     17  C   UNL d   1      55.514   0.064  33.471  0.00  0.00     0.123 A 
ATOM     18  O   UNL d   1      54.712   0.191  33.384  0.00  0.00    -0.303 OA
ATOM     19  C   UNL d   1      55.984   0.177  34.122  0.00  0.00     0.123 A 
ATOM     20  C   UNL d   1      54.181   0.465  33.936  0.00  0.00     0.125 A 
ATOM     21  C   UNL d   1      54.324   0.682  34.717  0.00  0.00     0.053 A 
ATOM     22  C   UNL d   1      55.044   0.673  35.132  0.00  0.00     0.125 A 
ATOM     23  O   UNL d   1      55.780   0.448  34.866  0.00  0.00    -0.303 OA
ATOM     24  C   UNL d   1      56.791   0.011  34.089  0.00  0.00     0.027 A 
ATOM     25  C   UNL d   1      57.118  -0.273  33.382  0.00  0.00     0.002 A 
ENDBRANCH   1  15
TORSDOF 1
ENDMDL
