MODEL 1
REMARK VINA RESULT:      40.9      0.000      0.000
REMARK  4 active torsions:
REMARK  status: ('A' for Active; 'I' for Inactive)
REMARK    1  A    between atoms: C_8  and  C_2 
REMARK    2  A    between atoms: O_6  and  C_8 
REMARK    3  A    between atoms: C_7  and  O_6 
REMARK    4  A    between atoms: O_10  and  C_9 
ROOT
ATOM      1  C   UNL d   1     -50.918  26.108  33.317  0.00  0.00     0.161 C 
ENDROOT
BRANCH   1   2
ATOM      2  O   UNL d   1     -50.752  26.591  33.883  0.00  0.00    -0.300 OA
BRANCH   2   3
ATOM      3  C   UNL d   1     -50.344  27.321  33.725  0.00  0.00     0.122 A 
ATOM      4  C   UNL d   1     -49.551  27.362  33.811  0.00  0.00     0.117 A 
ATOM      5  C   UNL d   1     -49.163  28.078  33.654  0.00  0.00     0.026 A 
ATOM      6  C   UNL d   1     -49.599  28.735  33.412  0.00  0.00     0.002 A 
ATOM      7  C   UNL d   1     -50.438  28.700  33.319  0.00  0.00     0.002 A 
ATOM      8  C   UNL d   1     -50.804  27.963  33.484  0.00  0.00     0.027 A 
BRANCH   4   9
ATOM      9  O   UNL d   1     -49.117  26.707  34.051  0.00  0.00    -0.326 OA
ATOM     10  C   UNL d   1     -48.416  26.796  34.434  0.00  0.00     0.181 C 
ENDBRANCH   4   9
ENDBRANCH   2   3
ENDBRANCH   1   2
BRANCH   1  11
ATOM     11  C   UNL d   1     -51.623  25.722  33.332  0.00  0.00     0.188 A 
ATOM     12  N   UNL d   1     -52.441  25.632  33.355  0.00  0.00    -0.224 NA
ATOM     13  C   UNL d   1     -52.619  24.844  33.347  0.00  0.00     0.101 A 
ATOM     14  C   UNL d   1     -51.909  24.426  33.319  0.00  0.00     0.101 A 
ATOM     15  C   UNL d   1     -53.310  24.422  33.361  0.00  0.00     0.021 A 
ATOM     16  C   UNL d   1     -51.915  23.601  33.306  0.00  0.00     0.021 A 
ATOM     17  N   UNL d   1     -51.305  24.963  33.310  0.00  0.00    -0.224 NA
ATOM     18  C   UNL d   1     -52.634  23.194  33.321  0.00  0.00     0.002 A 
ATOM     19  C   UNL d   1     -53.344  23.613  33.349  0.00  0.00     0.002 A 
ENDBRANCH   1  11
TORSDOF 4
ENDMDL
