MODEL 1
REMARK VINA RESULT:      32.8      0.000      0.000
REMARK  5 active torsions:
REMARK  status: ('A' for Active; 'I' for Inactive)
REMARK    1  A    between atoms: C_7  and  N_1 
REMARK    2  A    between atoms: C_15  and  C_5 
REMARK    3  A    between atoms: C_14  and  C_6 
REMARK    4  A    between atoms: C_8  and  C_7 
REMARK       I    between atoms: N_11  and  C_8 
REMARK    5  A    between atoms: C_13  and  N_11 
ROOT
ATOM      1  N   UNL d   1     -57.351 -98.774 -44.326  0.00  0.00    -0.235 N 
ATOM      2  C   UNL d   1     -57.737 -98.792 -45.061  0.00  0.00     0.273 A 
ATOM      3  C   UNL d   1     -57.799 -98.775 -43.625  0.00  0.00     0.273 A 
ATOM      4  S   UNL d   1     -59.002 -98.811 -44.402  0.00  0.00    -0.077 SA
ATOM      5  C   UNL d   1     -58.624 -98.793 -43.672  0.00  0.00     0.086 A 
ATOM      6  C   UNL d   1     -58.555 -98.811 -45.090  0.00  0.00     0.086 A 
ATOM      7  O   UNL d   1     -57.417 -98.756 -42.895  0.00  0.00    -0.266 OA
ATOM      8  O   UNL d   1     -57.293 -98.792 -45.761  0.00  0.00    -0.266 OA
ENDROOT
BRANCH   1   9
ATOM      9  C   UNL d   1     -56.525 -98.755 -44.296  0.00  0.00     0.148 C 
BRANCH   9  10
ATOM     10  C   UNL d   1     -56.093 -99.430 -44.490  0.00  0.00     0.297 C 
ATOM     11  N   UNL d   1     -56.207-100.128 -44.065  0.00  0.00    -0.207 NA
ATOM     12  O   UNL d   1     -55.548 -99.401 -45.112  0.00  0.00    -0.264 OA
BRANCH  11  13
ATOM     13  C   UNL d   1     -55.775-100.803 -44.259  0.00  0.00     0.085 A 
ATOM     14  C   UNL d   1     -55.141-100.750 -44.773  0.00  0.00     0.019 A 
ATOM     15  C   UNL d   1     -54.714-101.426 -44.963  0.00  0.00     0.002 A 
ATOM     16  C   UNL d   1     -54.916-102.158 -44.642  0.00  0.00     0.000 A 
ATOM     17  C   UNL d   1     -55.560-102.208 -44.120  0.00  0.00     0.002 A 
ATOM     18  C   UNL d   1     -55.983-101.532 -43.934  0.00  0.00     0.019 A 
ENDBRANCH  11  13
ENDBRANCH   9  10
ENDBRANCH   1   9
BRANCH   6  19
ATOM     19  C   UNL d   1     -58.942 -98.829 -45.828  0.00  0.00     0.011 C 
ATOM     20  C   UNL d   1     -59.764 -98.756 -45.867  0.00  0.00     0.001 C 
ENDBRANCH   6  19
BRANCH   5  21
ATOM     21  C   UNL d   1     -59.068 -98.794 -42.975  0.00  0.00     0.011 C 
ATOM     22  C   UNL d   1     -59.889 -98.884 -43.011  0.00  0.00     0.001 C 
ENDBRANCH   5  21
TORSDOF 5
ENDMDL
