MODEL 1
REMARK VINA RESULT:      -8.1      0.000      0.000
REMARK  2 active torsions:
REMARK  status: ('A' for Active; 'I' for Inactive)
REMARK    1  A    between atoms: C_3  and  C_1 
REMARK       I    between atoms: N_7  and  C_3 
REMARK    2  A    between atoms: C_11  and  N_7 
ROOT
ATOM      1  C   UNL d   1     -48.724  13.768  22.857  0.00  0.00     0.121 A 
ATOM      2  C   UNL d   1     -49.339  13.232  22.975  0.00  0.00     0.305 A 
ATOM      3  C   UNL d   1     -48.848  14.584  22.980  0.00  0.00     0.012 A 
ATOM      4  O   UNL d   1     -50.071  13.518  23.216  0.00  0.00    -0.273 OA
ATOM      5  C   UNL d   1     -49.586  14.838  23.219  0.00  0.00     0.023 A 
ATOM      6  C   UNL d   1     -50.202  14.301  23.337  0.00  0.00     0.103 A 
ATOM      7  O   UNL d   1     -49.230  12.435  22.859  0.00  0.00    -0.259 OA
ATOM      8  C   UNL d   1     -49.713  15.656  23.343  0.00  0.00     0.002 A 
ATOM      9  C   UNL d   1     -50.936  14.590  23.579  0.00  0.00     0.025 A 
ATOM     10  C   UNL d   1     -50.446  15.903  23.579  0.00  0.00     0.000 A 
ATOM     11  C   UNL d   1     -51.061  15.366  23.698  0.00  0.00     0.002 A 
ENDROOT
BRANCH   1  12
ATOM     12  C   UNL d   1     -47.976  13.503  22.614  0.00  0.00     0.284 C 
ATOM     13  N   UNL d   1     -47.315  13.590  23.102  0.00  0.00    -0.208 NA
ATOM     14  O   UNL d   1     -47.847  13.142  21.884  0.00  0.00    -0.265 OA
BRANCH  13  15
ATOM     15  C   UNL d   1     -46.582  13.327  22.857  0.00  0.00     0.085 A 
ATOM     16  C   UNL d   1     -46.089  13.811  22.416  0.00  0.00     0.019 A 
ATOM     17  C   UNL d   1     -45.348  13.549  22.166  0.00  0.00     0.002 A 
ATOM     18  C   UNL d   1     -45.105  12.782  22.369  0.00  0.00     0.000 A 
ATOM     19  C   UNL d   1     -45.584  12.275  22.812  0.00  0.00     0.002 A 
ATOM     20  C   UNL d   1     -44.385  12.516  22.131  0.00  0.00     0.000 C 
ATOM     21  C   UNL d   1     -46.326  12.552  23.056  0.00  0.00     0.019 A 
ENDBRANCH  13  15
ENDBRANCH   1  12
TORSDOF 2
ENDMDL
MODEL 2
REMARK VINA RESULT:      -8.0      0.990      1.246
REMARK  2 active torsions:
REMARK  status: ('A' for Active; 'I' for Inactive)
REMARK    1  A    between atoms: C_3  and  C_1 
REMARK       I    between atoms: N_7  and  C_3 
REMARK    2  A    between atoms: C_11  and  N_7 
ROOT
ATOM      1  C   UNL d   1     -48.964  13.384  22.710  0.00  0.00     0.121 A 
ATOM      2  C   UNL d   1     -49.649  13.106  22.344  0.00  0.00     0.305 A 
ATOM      3  C   UNL d   1     -48.951  14.143  23.056  0.00  0.00     0.012 A 
ATOM      4  O   UNL d   1     -50.312  13.591  22.330  0.00  0.00    -0.273 OA
ATOM      5  C   UNL d   1     -49.626  14.601  23.026  0.00  0.00     0.023 A 
ATOM      6  C   UNL d   1     -50.311  14.323  22.660  0.00  0.00     0.103 A 
ATOM      7  O   UNL d   1     -49.674  12.369  22.004  0.00  0.00    -0.259 OA
ATOM      8  C   UNL d   1     -49.615  15.364  23.373  0.00  0.00     0.002 A 
ATOM      9  C   UNL d   1     -50.976  14.811  22.647  0.00  0.00     0.025 A 
ATOM     10  C   UNL d   1     -50.285  15.813  23.341  0.00  0.00     0.000 A 
ATOM     11  C   UNL d   1     -50.971  15.535  22.975  0.00  0.00     0.002 A 
ENDROOT
BRANCH   1  12
ATOM     12  C   UNL d   1     -48.281  12.914  22.737  0.00  0.00     0.284 C 
ATOM     13  N   UNL d   1     -47.966  12.662  23.458  0.00  0.00    -0.208 NA
ATOM     14  O   UNL d   1     -47.881  12.671  22.058  0.00  0.00    -0.265 OA
BRANCH  13  15
ATOM     15  C   UNL d   1     -47.294  12.198  23.477  0.00  0.00     0.085 A 
ATOM     16  C   UNL d   1     -46.560  12.518  23.304  0.00  0.00     0.019 A 
ATOM     17  C   UNL d   1     -45.879  12.054  23.322  0.00  0.00     0.002 A 
ATOM     18  C   UNL d   1     -45.946  11.251  23.519  0.00  0.00     0.000 A 
ATOM     19  C   UNL d   1     -46.676  10.905  23.698  0.00  0.00     0.002 A 
ATOM     20  C   UNL d   1     -45.289  10.789  23.540  0.00  0.00     0.000 C 
ATOM     21  C   UNL d   1     -47.352  11.384  23.676  0.00  0.00     0.019 A 
ENDBRANCH  13  15
ENDBRANCH   1  12
TORSDOF 2
ENDMDL
MODEL 3
REMARK VINA RESULT:      -7.6      1.081      1.700
REMARK  2 active torsions:
REMARK  status: ('A' for Active; 'I' for Inactive)
REMARK    1  A    between atoms: C_3  and  C_1 
REMARK       I    between atoms: N_7  and  C_3 
REMARK    2  A    between atoms: C_11  and  N_7 
ROOT
ATOM      1  C   UNL d   1     -48.385  13.792  22.881  0.00  0.00     0.121 A 
ATOM      2  C   UNL d   1     -48.180  14.570  22.699  0.00  0.00     0.305 A 
ATOM      3  C   UNL d   1     -49.170  13.602  23.090  0.00  0.00     0.012 A 
ATOM      4  O   UNL d   1     -48.763  15.148  22.728  0.00  0.00    -0.273 OA
ATOM      5  C   UNL d   1     -49.727  14.198  23.110  0.00  0.00     0.023 A 
ATOM      6  C   UNL d   1     -49.522  14.976  22.928  0.00  0.00     0.103 A 
ATOM      7  O   UNL d   1     -47.419  14.768  22.494  0.00  0.00    -0.259 OA
ATOM      8  C   UNL d   1     -50.516  14.009  23.319  0.00  0.00     0.002 A 
ATOM      9  C   UNL d   1     -50.110  15.555  22.958  0.00  0.00     0.025 A 
ATOM     10  C   UNL d   1     -51.063  14.603  23.338  0.00  0.00     0.000 A 
ATOM     11  C   UNL d   1     -50.859  15.381  23.156  0.00  0.00     0.002 A 
ENDROOT
BRANCH   1  12
ATOM     12  C   UNL d   1     -47.813  13.191  22.858  0.00  0.00     0.284 C 
ATOM     13  N   UNL d   1     -47.519  12.857  23.554  0.00  0.00    -0.208 NA
ATOM     14  O   UNL d   1     -47.507  12.895  22.152  0.00  0.00    -0.265 OA
BRANCH  13  15
ATOM     15  C   UNL d   1     -46.957  12.266  23.525  0.00  0.00     0.085 A 
ATOM     16  C   UNL d   1     -47.154  11.491  23.698  0.00  0.00     0.019 A 
ATOM     17  C   UNL d   1     -46.590  10.890  23.669  0.00  0.00     0.002 A 
ATOM     18  C   UNL d   1     -45.811  11.084  23.460  0.00  0.00     0.000 A 
ATOM     19  C   UNL d   1     -45.586  11.859  23.281  0.00  0.00     0.002 A 
ATOM     20  C   UNL d   1     -45.252  10.507  23.429  0.00  0.00     0.000 C 
ATOM     21  C   UNL d   1     -46.165  12.451  23.314  0.00  0.00     0.019 A 
ENDBRANCH  13  15
ENDBRANCH   1  12
TORSDOF 2
ENDMDL
MODEL 4
REMARK VINA RESULT:      -6.5      9.276     10.053
REMARK  2 active torsions:
REMARK  status: ('A' for Active; 'I' for Inactive)
REMARK    1  A    between atoms: C_3  and  C_1 
REMARK       I    between atoms: N_7  and  C_3 
REMARK    2  A    between atoms: C_11  and  N_7 
ROOT
ATOM      1  C   UNL d   1     -38.862  14.101  20.212  0.00  0.00     0.121 A 
ATOM      2  C   UNL d   1     -38.250  13.553  20.131  0.00  0.00     0.305 A 
ATOM      3  C   UNL d   1     -39.168  14.281  20.967  0.00  0.00     0.012 A 
ATOM      4  O   UNL d   1     -37.952  13.193  20.807  0.00  0.00    -0.273 OA
ATOM      5  C   UNL d   1     -38.851  13.906  21.619  0.00  0.00     0.023 A 
ATOM      6  C   UNL d   1     -38.239  13.359  21.539  0.00  0.00     0.103 A 
ATOM      7  O   UNL d   1     -37.944  13.370  19.401  0.00  0.00    -0.259 OA
ATOM      8  C   UNL d   1     -39.156  14.086  22.379  0.00  0.00     0.002 A 
ATOM      9  C   UNL d   1     -37.940  12.998  22.218  0.00  0.00     0.025 A 
ATOM     10  C   UNL d   1     -38.839  13.712  23.021  0.00  0.00     0.000 A 
ATOM     11  C   UNL d   1     -38.227  13.165  22.940  0.00  0.00     0.002 A 
ENDROOT
BRANCH   1  12
ATOM     12  C   UNL d   1     -39.180  14.477  19.545  0.00  0.00     0.284 C 
ATOM     13  N   UNL d   1     -39.966  14.357  19.321  0.00  0.00    -0.208 NA
ATOM     14  O   UNL d   1     -38.739  14.988  19.070  0.00  0.00    -0.265 OA
BRANCH  13  15
ATOM     15  C   UNL d   1     -40.272  14.731  18.663  0.00  0.00     0.085 A 
ATOM     16  C   UNL d   1     -40.290  14.353  17.937  0.00  0.00     0.019 A 
ATOM     17  C   UNL d   1     -40.597  14.727  17.269  0.00  0.00     0.002 A 
ATOM     18  C   UNL d   1     -40.892  15.498  17.344  0.00  0.00     0.000 A 
ATOM     19  C   UNL d   1     -40.886  15.901  18.066  0.00  0.00     0.002 A 
ATOM     20  C   UNL d   1     -41.195  15.873  16.700  0.00  0.00     0.000 C 
ATOM     21  C   UNL d   1     -40.573  15.512  18.727  0.00  0.00     0.019 A 
ENDBRANCH  13  15
ENDBRANCH   1  12
TORSDOF 2
ENDMDL
MODEL 5
REMARK VINA RESULT:      -6.5      8.447     10.067
REMARK  2 active torsions:
REMARK  status: ('A' for Active; 'I' for Inactive)
REMARK    1  A    between atoms: C_3  and  C_1 
REMARK       I    between atoms: N_7  and  C_3 
REMARK    2  A    between atoms: C_11  and  N_7 
ROOT
ATOM      1  C   UNL d   1     -40.001  14.994  18.599  0.00  0.00     0.121 A 
ATOM      2  C   UNL d   1     -40.593  15.567  18.643  0.00  0.00     0.305 A 
ATOM      3  C   UNL d   1     -39.659  14.690  19.296  0.00  0.00     0.012 A 
ATOM      4  O   UNL d   1     -40.835  15.828  19.384  0.00  0.00    -0.273 OA
ATOM      5  C   UNL d   1     -39.920  14.969  20.017  0.00  0.00     0.023 A 
ATOM      6  C   UNL d   1     -40.512  15.542  20.061  0.00  0.00     0.103 A 
ATOM      7  O   UNL d   1     -40.934  15.871  17.972  0.00  0.00    -0.259 OA
ATOM      8  C   UNL d   1     -39.577  14.664  20.719  0.00  0.00     0.002 A 
ATOM      9  C   UNL d   1     -40.754  15.802  20.806  0.00  0.00     0.025 A 
ATOM     10  C   UNL d   1     -39.839  14.944  21.430  0.00  0.00     0.000 A 
ATOM     11  C   UNL d   1     -40.432  15.516  21.474  0.00  0.00     0.002 A 
ENDROOT
BRANCH   1  12
ATOM     12  C   UNL d   1     -39.741  14.715  17.863  0.00  0.00     0.284 C 
ATOM     13  N   UNL d   1     -38.939  14.728  17.662  0.00  0.00    -0.208 NA
ATOM     14  O   UNL d   1     -40.255  14.412  17.294  0.00  0.00    -0.265 OA
BRANCH  13  15
ATOM     15  C   UNL d   1     -38.690  14.452  16.935  0.00  0.00     0.085 A 
ATOM     16  C   UNL d   1     -38.592  14.964  16.304  0.00  0.00     0.019 A 
ATOM     17  C   UNL d   1     -38.340  14.690  15.568  0.00  0.00     0.002 A 
ATOM     18  C   UNL d   1     -38.186  13.880  15.474  0.00  0.00     0.000 A 
ATOM     19  C   UNL d   1     -38.277  13.343  16.096  0.00  0.00     0.002 A 
ATOM     20  C   UNL d   1     -37.940  13.601  14.762  0.00  0.00     0.000 C 
ATOM     21  C   UNL d   1     -38.531  13.634  16.830  0.00  0.00     0.019 A 
ENDBRANCH  13  15
ENDBRANCH   1  12
TORSDOF 2
ENDMDL
MODEL 6
REMARK VINA RESULT:      -6.2      8.283     10.879
REMARK  2 active torsions:
REMARK  status: ('A' for Active; 'I' for Inactive)
REMARK    1  A    between atoms: C_3  and  C_1 
REMARK       I    between atoms: N_7  and  C_3 
REMARK    2  A    between atoms: C_11  and  N_7 
ROOT
ATOM      1  C   UNL d   1     -39.234  14.251  17.521  0.00  0.00     0.121 A 
ATOM      2  C   UNL d   1     -39.001  13.471  17.386  0.00  0.00     0.305 A 
ATOM      3  C   UNL d   1     -39.083  14.839  16.949  0.00  0.00     0.012 A 
ATOM      4  O   UNL d   1     -38.620  13.290  16.681  0.00  0.00    -0.273 OA
ATOM      5  C   UNL d   1     -38.702  14.629  16.259  0.00  0.00     0.023 A 
ATOM      6  C   UNL d   1     -38.469  13.849  16.123  0.00  0.00     0.103 A 
ATOM      7  O   UNL d   1     -39.143  12.889  17.934  0.00  0.00    -0.259 OA
ATOM      8  C   UNL d   1     -38.549  15.218  15.684  0.00  0.00     0.002 A 
ATOM      9  C   UNL d   1     -38.087  13.669  15.415  0.00  0.00     0.025 A 
ATOM     10  C   UNL d   1     -38.173  15.005  15.002  0.00  0.00     0.000 A 
ATOM     11  C   UNL d   1     -37.940  14.225  14.866  0.00  0.00     0.002 A 
ENDROOT
BRANCH   1  12
ATOM     12  C   UNL d   1     -39.620  14.457  18.225  0.00  0.00     0.284 C 
ATOM     13  N   UNL d   1     -39.401  15.132  18.649  0.00  0.00    -0.208 NA
ATOM     14  O   UNL d   1     -40.237  14.011  18.542  0.00  0.00    -0.265 OA
BRANCH  13  15
ATOM     15  C   UNL d   1     -39.785  15.330  19.342  0.00  0.00     0.085 A 
ATOM     16  C   UNL d   1     -40.509  15.711  19.324  0.00  0.00     0.019 A 
ATOM     17  C   UNL d   1     -40.902  15.913  20.021  0.00  0.00     0.002 A 
ATOM     18  C   UNL d   1     -40.550  15.722  20.747  0.00  0.00     0.000 A 
ATOM     19  C   UNL d   1     -39.820  15.337  20.792  0.00  0.00     0.002 A 
ATOM     20  C   UNL d   1     -40.923  15.913  21.433  0.00  0.00     0.000 C 
ATOM     21  C   UNL d   1     -39.437  15.141  20.083  0.00  0.00     0.019 A 
ENDBRANCH  13  15
ENDBRANCH   1  12
TORSDOF 2
ENDMDL
MODEL 7
REMARK VINA RESULT:      -6.0      8.515      9.291
REMARK  2 active torsions:
REMARK  status: ('A' for Active; 'I' for Inactive)
REMARK    1  A    between atoms: C_3  and  C_1 
REMARK       I    between atoms: N_7  and  C_3 
REMARK    2  A    between atoms: C_11  and  N_7 
ROOT
ATOM      1  C   UNL d   1     -40.243  14.898  19.783  0.00  0.00     0.121 A 
ATOM      2  C   UNL d   1     -40.742  15.553  19.735  0.00  0.00     0.305 A 
ATOM      3  C   UNL d   1     -39.967  14.528  19.088  0.00  0.00     0.012 A 
ATOM      4  O   UNL d   1     -40.959  15.829  18.992  0.00  0.00    -0.273 OA
ATOM      5  C   UNL d   1     -40.200  14.826  18.365  0.00  0.00     0.023 A 
ATOM      6  C   UNL d   1     -40.700  15.481  18.316  0.00  0.00     0.103 A 
ATOM      7  O   UNL d   1     -41.017  15.922  20.404  0.00  0.00    -0.259 OA
ATOM      8  C   UNL d   1     -39.925  14.455  17.665  0.00  0.00     0.002 A 
ATOM      9  C   UNL d   1     -40.917  15.756  17.569  0.00  0.00     0.025 A 
ATOM     10  C   UNL d   1     -40.158  14.753  16.952  0.00  0.00     0.000 A 
ATOM     11  C   UNL d   1     -40.657  15.408  16.904  0.00  0.00     0.002 A 
ENDROOT
BRANCH   1  12
ATOM     12  C   UNL d   1     -40.010  14.601  20.521  0.00  0.00     0.284 C 
ATOM     13  N   UNL d   1     -39.225  14.655  20.774  0.00  0.00    -0.208 NA
ATOM     14  O   UNL d   1     -40.538  14.239  21.042  0.00  0.00    -0.265 OA
BRANCH  13  15
ATOM     15  C   UNL d   1     -39.003  14.361  21.502  0.00  0.00     0.085 A 
ATOM     16  C   UNL d   1     -38.852  13.562  21.602  0.00  0.00     0.019 A 
ATOM     17  C   UNL d   1     -38.627  13.260  22.336  0.00  0.00     0.002 A 
ATOM     18  C   UNL d   1     -38.556  13.780  22.978  0.00  0.00     0.000 A 
ATOM     19  C   UNL d   1     -38.703  14.590  22.903  0.00  0.00     0.002 A 
ATOM     20  C   UNL d   1     -38.338  13.498  23.698  0.00  0.00     0.000 C 
ATOM     21  C   UNL d   1     -38.928  14.879  22.159  0.00  0.00     0.019 A 
ENDBRANCH  13  15
ENDBRANCH   1  12
TORSDOF 2
ENDMDL
