MODEL 1
REMARK VINA RESULT:      -4.6      0.000      0.000
REMARK  2 active torsions:
REMARK  status: ('A' for Active; 'I' for Inactive)
REMARK    1  A    between atoms: N_6  and  C_4 
REMARK    2  A    between atoms: C_9  and  N_6 
ROOT
ATOM      1  S   UNL d   1      55.900  -1.290  32.910  0.00  0.00     0.216 S 
ATOM      2  C   UNL d   1      56.393  -0.831  32.431  0.00  0.00     0.121 A 
ATOM      3  C   UNL d   1      55.432  -0.780  33.332  0.00  0.00     0.142 A 
ATOM      4  C   UNL d   1      56.229  -0.032  32.558  0.00  0.00     0.132 A 
ATOM      5  C   UNL d   1      55.631  -0.007  33.119  0.00  0.00     0.225 A 
ATOM      6  O   UNL d   1      56.388  -1.804  32.469  0.00  0.00    -0.217 OA
ATOM      7  O   UNL d   1      55.519  -1.908  33.289  0.00  0.00    -0.217 OA
ATOM      8  O   UNL d   1      55.266   0.680  33.438  0.00  0.00    -0.284 OA
ENDROOT
BRANCH   4   9
ATOM      9  N   UNL d   1      56.523   0.656  32.257  0.00  0.00    -0.242 NA
BRANCH   9  10
ATOM     10  C   UNL d   1      57.147   0.662  31.729  0.00  0.00     0.082 A 
ATOM     11  C   UNL d   1      56.995   0.658  30.937  0.00  0.00     0.020 A 
ATOM     12  C   UNL d   1      57.642   0.665  30.395  0.00  0.00     0.013 A 
ATOM     13  C   UNL d   1      58.408   0.675  30.678  0.00  0.00     0.058 A 
ATOM     14  C   UNL d   1      58.573   0.680  31.478  0.00  0.00     0.013 A 
ATOM     15 CL   UNL d   1      59.046   0.682  30.128  0.00  0.00    -0.082 Cl
ATOM     16  C   UNL d   1      57.931   0.673  32.007  0.00  0.00     0.020 A 
ENDBRANCH   9  10
ENDBRANCH   4   9
TORSDOF 2
ENDMDL
MODEL 2
REMARK VINA RESULT:      -4.4      2.601      3.578
REMARK  2 active torsions:
REMARK  status: ('A' for Active; 'I' for Inactive)
REMARK    1  A    between atoms: N_6  and  C_4 
REMARK    2  A    between atoms: C_9  and  N_6 
ROOT
ATOM      1  S   UNL d   1      59.129   0.604  30.950  0.00  0.00     0.216 S 
ATOM      2  C   UNL d   1      58.429   0.594  31.390  0.00  0.00     0.121 A 
ATOM      3  C   UNL d   1      58.924   0.527  30.170  0.00  0.00     0.142 A 
ATOM      4  C   UNL d   1      57.787   0.511  30.877  0.00  0.00     0.132 A 
ATOM      5  C   UNL d   1      58.102   0.470  30.121  0.00  0.00     0.225 A 
ATOM      6  O   UNL d   1      59.326   0.682  31.758  0.00  0.00    -0.217 OA
ATOM      7  O   UNL d   1      59.912   0.636  30.712  0.00  0.00    -0.217 OA
ATOM      8  O   UNL d   1      57.675   0.384  29.401  0.00  0.00    -0.284 OA
ENDROOT
BRANCH   4   9
ATOM      9  N   UNL d   1      56.989   0.467  30.980  0.00  0.00    -0.242 NA
BRANCH   9  10
ATOM     10  C   UNL d   1      56.659   0.171  31.668  0.00  0.00     0.082 A 
ATOM     11  C   UNL d   1      56.354   0.682  32.212  0.00  0.00     0.020 A 
ATOM     12  C   UNL d   1      56.015   0.372  32.920  0.00  0.00     0.013 A 
ATOM     13  C   UNL d   1      56.001  -0.434  33.045  0.00  0.00     0.058 A 
ATOM     14  C   UNL d   1      56.308  -0.960  32.500  0.00  0.00     0.013 A 
ATOM     15 CL   UNL d   1      55.660  -0.732  33.755  0.00  0.00    -0.082 Cl
ATOM     16  C   UNL d   1      56.640  -0.650  31.804  0.00  0.00     0.020 A 
ENDBRANCH   9  10
ENDBRANCH   4   9
TORSDOF 2
ENDMDL
MODEL 3
REMARK VINA RESULT:      -4.0      1.745      2.189
REMARK  2 active torsions:
REMARK  status: ('A' for Active; 'I' for Inactive)
REMARK    1  A    between atoms: N_6  and  C_4 
REMARK    2  A    between atoms: C_9  and  N_6 
ROOT
ATOM      1  S   UNL d   1      55.813   0.659  34.990  0.00  0.00     0.216 S 
ATOM      2  C   UNL d   1      56.135   0.678  34.229  0.00  0.00     0.121 A 
ATOM      3  C   UNL d   1      55.007   0.638  34.909  0.00  0.00     0.142 A 
ATOM      4  C   UNL d   1      55.524   0.668  33.675  0.00  0.00     0.132 A 
ATOM      5  C   UNL d   1      54.826   0.643  34.104  0.00  0.00     0.225 A 
ATOM      6  O   UNL d   1      56.645   0.682  35.059  0.00  0.00    -0.217 OA
ATOM      7  O   UNL d   1      55.704   0.646  35.801  0.00  0.00    -0.217 OA
ATOM      8  O   UNL d   1      54.044   0.626  33.794  0.00  0.00    -0.284 OA
ENDROOT
BRANCH   4   9
ATOM      9  N   UNL d   1      55.497   0.677  32.869  0.00  0.00    -0.242 NA
BRANCH   9  10
ATOM     10  C   UNL d   1      56.040   0.266  32.415  0.00  0.00     0.082 A 
ATOM     11  C   UNL d   1      55.959  -0.531  32.327  0.00  0.00     0.020 A 
ATOM     12  C   UNL d   1      56.521  -0.951  31.858  0.00  0.00     0.013 A 
ATOM     13  C   UNL d   1      57.136  -0.548  31.504  0.00  0.00     0.058 A 
ATOM     14  C   UNL d   1      57.227   0.259  31.587  0.00  0.00     0.013 A 
ATOM     15 CL   UNL d   1      57.691  -0.978  31.038  0.00  0.00    -0.082 Cl
ATOM     16  C   UNL d   1      56.670   0.668  32.050  0.00  0.00     0.020 A 
ENDBRANCH   9  10
ENDBRANCH   4   9
TORSDOF 2
ENDMDL
MODEL 4
REMARK VINA RESULT:      -4.0      2.331      3.499
REMARK  2 active torsions:
REMARK  status: ('A' for Active; 'I' for Inactive)
REMARK    1  A    between atoms: N_6  and  C_4 
REMARK    2  A    between atoms: C_9  and  N_6 
ROOT
ATOM      1  S   UNL d   1      56.270  -1.316  32.339  0.00  0.00     0.216 S 
ATOM      2  C   UNL d   1      55.884  -0.857  32.908  0.00  0.00     0.121 A 
ATOM      3  C   UNL d   1      56.691  -0.809  31.867  0.00  0.00     0.142 A 
ATOM      4  C   UNL d   1      56.068  -0.062  32.786  0.00  0.00     0.132 A 
ATOM      5  C   UNL d   1      56.570  -0.039  32.139  0.00  0.00     0.225 A 
ATOM      6  O   UNL d   1      55.831  -1.827  32.832  0.00  0.00    -0.217 OA
ATOM      7  O   UNL d   1      56.553  -1.933  31.881  0.00  0.00    -0.217 OA
ATOM      8  O   UNL d   1      56.916   0.645  31.792  0.00  0.00    -0.284 OA
ENDROOT
BRANCH   4   9
ATOM      9  N   UNL d   1      55.862   0.625  33.156  0.00  0.00    -0.242 NA
BRANCH   9  10
ATOM     10  C   UNL d   1      55.634   0.639  33.941  0.00  0.00     0.082 A 
ATOM     11  C   UNL d   1      56.198   0.631  34.517  0.00  0.00     0.020 A 
ATOM     12  C   UNL d   1      55.959   0.646  35.326  0.00  0.00     0.013 A 
ATOM     13  C   UNL d   1      55.165   0.667  35.514  0.00  0.00     0.058 A 
ATOM     14  C   UNL d   1      54.585   0.676  34.938  0.00  0.00     0.013 A 
ATOM     15 CL   UNL d   1      54.937   0.682  36.325  0.00  0.00    -0.082 Cl
ATOM     16  C   UNL d   1      54.827   0.661  34.143  0.00  0.00     0.020 A 
ENDBRANCH   9  10
ENDBRANCH   4   9
TORSDOF 2
ENDMDL
MODEL 5
REMARK VINA RESULT:      -3.3      1.309      1.588
REMARK  2 active torsions:
REMARK  status: ('A' for Active; 'I' for Inactive)
REMARK    1  A    between atoms: N_6  and  C_4 
REMARK    2  A    between atoms: C_9  and  N_6 
ROOT
ATOM      1  S   UNL d   1      57.052   0.294  33.593  0.00  0.00     0.216 S 
ATOM      2  C   UNL d   1      57.272   0.299  32.796  0.00  0.00     0.121 A 
ATOM      3  C   UNL d   1      56.331  -0.073  33.640  0.00  0.00     0.142 A 
ATOM      4  C   UNL d   1      56.683  -0.067  32.349  0.00  0.00     0.132 A 
ATOM      5  C   UNL d   1      56.101  -0.296  32.879  0.00  0.00     0.225 A 
ATOM      6  O   UNL d   1      57.795   0.670  33.529  0.00  0.00    -0.217 OA
ATOM      7  O   UNL d   1      57.025   0.391  34.405  0.00  0.00    -0.217 OA
ATOM      8  O   UNL d   1      55.382  -0.693  32.699  0.00  0.00    -0.284 OA
ENDROOT
BRANCH   4   9
ATOM      9  N   UNL d   1      56.590  -0.223  31.563  0.00  0.00    -0.242 NA
BRANCH   9  10
ATOM     10  C   UNL d   1      57.205  -0.133  31.031  0.00  0.00     0.082 A 
ATOM     11  C   UNL d   1      57.341   0.591  30.702  0.00  0.00     0.020 A 
ATOM     12  C   UNL d   1      57.976   0.679  30.154  0.00  0.00     0.013 A 
ATOM     13  C   UNL d   1      58.441   0.036  29.965  0.00  0.00     0.058 A 
ATOM     14  C   UNL d   1      58.312  -0.701  30.292  0.00  0.00     0.013 A 
ATOM     15 CL   UNL d   1      59.073   0.136  29.416  0.00  0.00    -0.082 Cl
ATOM     16  C   UNL d   1      57.685  -0.783  30.832  0.00  0.00     0.020 A 
ENDBRANCH   9  10
ENDBRANCH   4   9
TORSDOF 2
ENDMDL
MODEL 6
REMARK VINA RESULT:      -3.2      2.617      3.551
REMARK  2 active torsions:
REMARK  status: ('A' for Active; 'I' for Inactive)
REMARK    1  A    between atoms: N_6  and  C_4 
REMARK    2  A    between atoms: C_9  and  N_6 
ROOT
ATOM      1  S   UNL d   1      58.689  -1.385  29.483  0.00  0.00     0.216 S 
ATOM      2  C   UNL d   1      58.168  -1.045  30.027  0.00  0.00     0.121 A 
ATOM      3  C   UNL d   1      58.989  -0.784  29.030  0.00  0.00     0.142 A 
ATOM      4  C   UNL d   1      58.146  -0.229  29.909  0.00  0.00     0.132 A 
ATOM      5  C   UNL d   1      58.659  -0.073  29.288  0.00  0.00     0.225 A 
ATOM      6  O   UNL d   1      58.372  -1.995  29.957  0.00  0.00    -0.217 OA
ATOM      7  O   UNL d   1      59.145  -1.905  29.045  0.00  0.00    -0.217 OA
ATOM      8  O   UNL d   1      58.833   0.679  28.954  0.00  0.00    -0.284 OA
ENDROOT
BRANCH   4   9
ATOM      9  N   UNL d   1      57.750   0.379  30.262  0.00  0.00    -0.242 NA
BRANCH   9  10
ATOM     10  C   UNL d   1      57.579   0.374  31.062  0.00  0.00     0.082 A 
ATOM     11  C   UNL d   1      56.877   0.069  31.315  0.00  0.00     0.020 A 
ATOM     12  C   UNL d   1      56.706   0.067  32.141  0.00  0.00     0.013 A 
ATOM     13  C   UNL d   1      57.248   0.371  32.669  0.00  0.00     0.058 A 
ATOM     14  C   UNL d   1      57.962   0.682  32.423  0.00  0.00     0.013 A 
ATOM     15 CL   UNL d   1      57.066   0.363  33.492  0.00  0.00    -0.082 Cl
ATOM     16  C   UNL d   1      58.126   0.682  31.608  0.00  0.00     0.020 A 
ENDBRANCH   9  10
ENDBRANCH   4   9
TORSDOF 2
ENDMDL
MODEL 7
REMARK VINA RESULT:      -2.7      3.541      4.364
REMARK  2 active torsions:
REMARK  status: ('A' for Active; 'I' for Inactive)
REMARK    1  A    between atoms: N_6  and  C_4 
REMARK    2  A    between atoms: C_9  and  N_6 
ROOT
ATOM      1  S   UNL d   1      57.913  -0.110  30.249  0.00  0.00     0.216 S 
ATOM      2  C   UNL d   1      58.198  -0.800  29.893  0.00  0.00     0.121 A 
ATOM      3  C   UNL d   1      58.112   0.509  29.766  0.00  0.00     0.142 A 
ATOM      4  C   UNL d   1      58.574  -0.605  29.186  0.00  0.00     0.132 A 
ATOM      5  C   UNL d   1      58.518   0.210  29.112  0.00  0.00     0.225 A 
ATOM      6  O   UNL d   1      57.715  -0.757  30.738  0.00  0.00    -0.217 OA
ATOM      7  O   UNL d   1      57.563   0.433  30.753  0.00  0.00    -0.217 OA
ATOM      8  O   UNL d   1      58.817   0.682  28.483  0.00  0.00    -0.284 OA
ENDROOT
BRANCH   4   9
ATOM      9  N   UNL d   1      58.949  -1.032  28.614  0.00  0.00    -0.242 NA
BRANCH   9  10
ATOM     10  C   UNL d   1      59.358  -1.719  28.788  0.00  0.00     0.082 A 
ATOM     11  C   UNL d   1      58.983  -2.430  28.725  0.00  0.00     0.020 A 
ATOM     12  C   UNL d   1      59.408  -3.135  28.906  0.00  0.00     0.013 A 
ATOM     13  C   UNL d   1      60.189  -3.090  29.141  0.00  0.00     0.058 A 
ATOM     14  C   UNL d   1      60.578  -2.375  29.207  0.00  0.00     0.013 A 
ATOM     15 CL   UNL d   1      60.604  -3.801  29.319  0.00  0.00    -0.082 Cl
ATOM     16  C   UNL d   1      60.154  -1.683  29.028  0.00  0.00     0.020 A 
ENDBRANCH   9  10
ENDBRANCH   4   9
TORSDOF 2
ENDMDL
