MODEL 1
REMARK VINA RESULT:      -5.8      0.000      0.000
REMARK  4 active torsions:
REMARK  status: ('A' for Active; 'I' for Inactive)
REMARK    1  A    between atoms: C_6  and  S_1 
REMARK    2  A    between atoms: N_12  and  S_1 
REMARK    3  A    between atoms: N_4  and  C_2 
REMARK       I    between atoms: C_7  and  N_4 
REMARK    4  A    between atoms: C_10  and  C_7 
ROOT
ATOM      1  C   UNL d   1      57.285  -0.281  31.055  0.00  0.00     0.197 A 
ATOM      2  N   UNL d   1      56.996  -0.981  31.380  0.00  0.00    -0.221 NA
ATOM      3  S   UNL d   1      57.065   0.344  31.547  0.00  0.00    -0.047 SA
ATOM      4  C   UNL d   1      55.881  -0.083  33.390  0.00  0.00     0.105 A 
ATOM      5  C   UNL d   1      56.635   0.026  32.182  0.00  0.00     0.051 A 
ATOM      6  C   UNL d   1      56.590  -0.792  32.083  0.00  0.00     0.090 A 
ATOM      7  C   UNL d   1      56.279   0.382  32.838  0.00  0.00     0.021 A 
ATOM      8  C   UNL d   1      55.837  -0.908  33.287  0.00  0.00     0.015 A 
ATOM      9  C   UNL d   1      56.191  -1.256  32.636  0.00  0.00     0.020 A 
ENDROOT
BRANCH   1  10
ATOM     10  N   UNL d   1      57.721  -0.216  30.357  0.00  0.00    -0.182 NA
ATOM     11  C   UNL d   1      58.516  -0.054  30.353  0.00  0.00     0.287 C 
ATOM     12  O   UNL d   1      58.916   0.052  31.061  0.00  0.00    -0.265 OA
BRANCH  11  13
ATOM     13  C   UNL d   1      58.929   0.005  29.656  0.00  0.00     0.087 A 
ATOM     14  S   UNL d   1      59.451   0.623  29.622  0.00  0.00    -0.082 SA
ATOM     15  C   UNL d   1      59.826   0.622  28.901  0.00  0.00     0.036 A 
ATOM     16  C   UNL d   1      59.527  -0.018  28.471  0.00  0.00     0.008 A 
ATOM     17  C   UNL d   1      58.974  -0.400  28.932  0.00  0.00     0.012 A 
ENDBRANCH  11  13
ENDBRANCH   1  10
BRANCH   4  18
ATOM     18  S   UNL d   1      55.523   0.260  34.048  0.00  0.00     0.272 S 
ATOM     19  O   UNL d   1      54.668  -0.060  33.612  0.00  0.00    -0.200 OA
ATOM     20  O   UNL d   1      56.318   0.603  34.532  0.00  0.00    -0.200 OA
BRANCH  18  21
ATOM     21  N   UNL d   1      54.988   0.536  34.613  0.00  0.00    -0.226 N 
ATOM     22  C   UNL d   1      54.198   0.664  34.401  0.00  0.00     0.111 C 
ATOM     23  C   UNL d   1      55.239   0.682  35.386  0.00  0.00     0.111 C 
ENDBRANCH  18  21
ENDBRANCH   4  18
TORSDOF 4
ENDMDL
MODEL 2
REMARK VINA RESULT:      -4.3      1.302      5.274
REMARK  4 active torsions:
REMARK  status: ('A' for Active; 'I' for Inactive)
REMARK    1  A    between atoms: C_6  and  S_1 
REMARK    2  A    between atoms: N_12  and  S_1 
REMARK    3  A    between atoms: N_4  and  C_2 
REMARK       I    between atoms: C_7  and  N_4 
REMARK    4  A    between atoms: C_10  and  C_7 
ROOT
ATOM      1  C   UNL d   1      57.010   0.239  31.519  0.00  0.00     0.197 A 
ATOM      2  N   UNL d   1      57.001  -0.478  31.113  0.00  0.00    -0.221 NA
ATOM      3  S   UNL d   1      57.653   0.681  31.251  0.00  0.00    -0.047 SA
ATOM      4  C   UNL d   1      58.987  -0.173  29.678  0.00  0.00     0.105 A 
ATOM      5  C   UNL d   1      58.046   0.232  30.675  0.00  0.00     0.051 A 
ATOM      6  C   UNL d   1      57.647  -0.485  30.586  0.00  0.00     0.090 A 
ATOM      7  C   UNL d   1      58.718   0.388  30.219  0.00  0.00     0.021 A 
ATOM      8  C   UNL d   1      58.581  -0.896  29.591  0.00  0.00     0.015 A 
ATOM      9  C   UNL d   1      57.916  -1.046  30.044  0.00  0.00     0.020 A 
ENDROOT
BRANCH   1  10
ATOM     10  N   UNL d   1      56.468   0.474  32.094  0.00  0.00    -0.182 NA
ATOM     11  C   UNL d   1      56.306   0.026  32.752  0.00  0.00     0.287 C 
ATOM     12  O   UNL d   1      56.689  -0.691  32.862  0.00  0.00    -0.265 OA
BRANCH  11  13
ATOM     13  C   UNL d   1      55.769   0.274  33.308  0.00  0.00     0.087 A 
ATOM     14  S   UNL d   1      56.081   0.421  34.040  0.00  0.00    -0.082 SA
ATOM     15  C   UNL d   1      55.491   0.664  34.543  0.00  0.00     0.036 A 
ATOM     16  C   UNL d   1      54.787   0.668  34.109  0.00  0.00     0.008 A 
ATOM     17  C   UNL d   1      54.954   0.429  33.349  0.00  0.00     0.012 A 
ENDBRANCH  11  13
ENDBRANCH   1  10
BRANCH   4  18
ATOM     18  S   UNL d   1      59.655  -0.029  29.219  0.00  0.00     0.272 S 
ATOM     19  O   UNL d   1      60.136  -0.520  29.961  0.00  0.00    -0.200 OA
ATOM     20  O   UNL d   1      59.252   0.461  28.457  0.00  0.00    -0.200 OA
BRANCH  18  21
ATOM     21  N   UNL d   1      60.421   0.013  28.915  0.00  0.00    -0.226 N 
ATOM     22  C   UNL d   1      60.648   0.672  28.467  0.00  0.00     0.111 C 
ATOM     23  C   UNL d   1      60.958  -0.598  29.057  0.00  0.00     0.111 C 
ENDBRANCH  18  21
ENDBRANCH   4  18
TORSDOF 4
ENDMDL
