MODEL 1
REMARK VINA RESULT:      28.0      0.000      0.000
REMARK  5 active torsions:
REMARK  status: ('A' for Active; 'I' for Inactive)
REMARK    1  A    between atoms: C_6  and  C_1 
REMARK    2  A    between atoms: C_7  and  C_6 
REMARK    3  A    between atoms: C_10  and  O_14 
REMARK    4  A    between atoms: C_20  and  C_10 
REMARK    5  A    between atoms: O_14  and  C_12 
ROOT
ATOM      1  C   UNL d   1      13.709  12.415  -2.748  0.00  0.00     0.141 A 
ATOM      2  C   UNL d   1      13.271  13.162  -3.758  0.00  0.00     0.064 A 
ATOM      3  C   UNL d   1      13.228  12.419  -3.414  0.00  0.00     0.220 A 
ATOM      4  C   UNL d   1      13.782  13.624  -3.305  0.00  0.00     0.105 A 
ATOM      5  O   UNL d   1      14.057  13.163  -2.675  0.00  0.00    -0.304 OA
ATOM      6  C   UNL d   1      13.931  14.398  -3.520  0.00  0.00     0.050 A 
ATOM      7  C   UNL d   1      12.911  13.480  -4.427  0.00  0.00     0.007 A 
ATOM      8  C   UNL d   1      13.571  14.717  -4.189  0.00  0.00     0.105 A 
ATOM      9  O   UNL d   1      12.777  11.779  -3.687  0.00  0.00    -0.284 OA
ATOM     10  C   UNL d   1      13.062  14.257  -4.640  0.00  0.00     0.025 A 
ENDROOT
BRANCH   1  11
ATOM     11  C   UNL d   1      13.830  11.779  -2.236  0.00  0.00     0.053 C 
BRANCH  11  12
ATOM     12  C   UNL d   1      14.122  11.904  -1.471  0.00  0.00     0.102 A 
ATOM     13  O   UNL d   1      14.881  12.141  -1.269  0.00  0.00    -0.305 OA
ATOM     14  C   UNL d   1      14.925  12.195  -0.448  0.00  0.00     0.123 A 
ATOM     15  C   UNL d   1      14.188  11.991  -0.134  0.00  0.00     0.029 A 
ATOM     16  C   UNL d   1      13.687  11.810  -0.766  0.00  0.00     0.027 A 
ENDBRANCH  11  12
ENDBRANCH   1  11
BRANCH   8  17
ATOM     17  O   UNL d   1      13.722  15.496  -4.404  0.00  0.00    -0.273 OA
BRANCH  17  18
ATOM     18  C   UNL d   1      14.352  15.903  -4.068  0.00  0.00     0.300 C 
ATOM     19  O   UNL d   1      14.405  15.969  -3.248  0.00  0.00    -0.259 OA
BRANCH  18  20
ATOM     20  C   UNL d   1      14.926  16.243  -4.557  0.00  0.00     0.069 C 
ATOM     21  C   UNL d   1      15.180  17.016  -4.409  0.00  0.00     0.006 C 
ENDBRANCH  18  20
ENDBRANCH  17  18
ENDBRANCH   8  17
TORSDOF 5
ENDMDL
