MODEL 1
REMARK VINA RESULT:      -2.8      0.000      0.000
REMARK  7 active torsions:
REMARK  status: ('A' for Active; 'I' for Inactive)
REMARK    1  A    between atoms: C_2  and  S_1 
REMARK    2  A    between atoms: N_11  and  S_1 
REMARK    3  A    between atoms: O_14  and  C_4 
REMARK    4  A    between atoms: N_10  and  C_15 
REMARK    5  A    between atoms: C_19  and  N_11 
REMARK    6  A    between atoms: C_15  and  C_16 
REMARK    7  A    between atoms: C_16  and  C_19 
ROOT
ATOM      1  S   UNL d   1      32.307  17.848 -23.910  0.00  0.00     0.287 S 
ATOM      2  O   UNL d   1      32.177  18.299 -24.584  0.00  0.00    -0.198 OA
ATOM      3  O   UNL d   1      32.439  17.394 -23.230  0.00  0.00    -0.198 OA
ENDROOT
BRANCH   1   4
ATOM      4  C   UNL d   1      31.808  17.266 -24.202  0.00  0.00     0.128 A 
ATOM      5  C   UNL d   1      30.987  17.387 -24.192  0.00  0.00     0.026 A 
ATOM      6  C   UNL d   1      30.480  16.797 -24.488  0.00  0.00     0.059 A 
ATOM      7 CL   UNL d   1      29.674  16.917 -24.477  0.00  0.00    -0.082 Cl
ATOM      8  C   UNL d   1      30.800  16.094 -24.791  0.00  0.00     0.013 A 
ATOM      9  C   UNL d   1      31.612  15.980 -24.798  0.00  0.00     0.026 A 
ATOM     10  C   UNL d   1      30.301  15.512 -25.083  0.00  0.00     0.001 C 
ATOM     11  C   UNL d   1      32.119  16.571 -24.502  0.00  0.00     0.106 A 
BRANCH  11  12
ATOM     12  O   UNL d   1      32.934  16.453 -24.511  0.00  0.00    -0.327 OA
ATOM     13  C   UNL d   1      33.241  15.769 -24.845  0.00  0.00     0.181 C 
ENDBRANCH  11  12
ENDBRANCH   1   4
BRANCH   1  14
ATOM     14  N   UNL d   1      32.812  18.436 -23.615  0.00  0.00    -0.157 NA
BRANCH  14  15
ATOM     15  C   UNL d   1      32.655  18.780 -22.876  0.00  0.00     0.114 C 
BRANCH  15  16
ATOM     16  C   UNL d   1      32.983  19.513 -22.689  0.00  0.00     0.041 C 
BRANCH  16  17
ATOM     17  C   UNL d   1      32.915  19.810 -21.929  0.00  0.00     0.082 C 
BRANCH  17  18
ATOM     18  N   UNL d   1      32.878  20.621 -21.806  0.00  0.00    -0.299 N 
ATOM     19  C   UNL d   1      32.488  20.926 -21.136  0.00  0.00     0.107 A 
ATOM     20  C   UNL d   1      32.451  21.736 -21.013  0.00  0.00     0.142 A 
ATOM     21  O   UNL d   1      32.797  22.253 -21.550  0.00  0.00    -0.300 OA
ATOM     22  C   UNL d   1      33.187  21.957 -22.219  0.00  0.00     0.142 A 
ATOM     23  C   UNL d   1      33.225  21.133 -22.344  0.00  0.00     0.107 A 
ENDBRANCH  17  18
ENDBRANCH  16  17
ENDBRANCH  15  16
ENDBRANCH  14  15
ENDBRANCH   1  14
TORSDOF 7
ENDMDL
MODEL 2
REMARK VINA RESULT:      -0.3      1.052      1.496
REMARK  7 active torsions:
REMARK  status: ('A' for Active; 'I' for Inactive)
REMARK    1  A    between atoms: C_2  and  S_1 
REMARK    2  A    between atoms: N_11  and  S_1 
REMARK    3  A    between atoms: O_14  and  C_4 
REMARK    4  A    between atoms: N_10  and  C_15 
REMARK    5  A    between atoms: C_19  and  N_11 
REMARK    6  A    between atoms: C_15  and  C_16 
REMARK    7  A    between atoms: C_16  and  C_19 
ROOT
ATOM      1  S   UNL d   1      31.523  17.618 -24.185  0.00  0.00     0.287 S 
ATOM      2  O   UNL d   1      31.602  17.158 -23.510  0.00  0.00    -0.198 OA
ATOM      3  O   UNL d   1      31.444  18.082 -24.867  0.00  0.00    -0.198 OA
ENDROOT
BRANCH   1   4
ATOM      4  C   UNL d   1      30.775  17.304 -24.312  0.00  0.00     0.128 A 
ATOM      5  C   UNL d   1      30.112  17.801 -24.285  0.00  0.00     0.026 A 
ATOM      6  C   UNL d   1      29.353  17.483 -24.414  0.00  0.00     0.059 A 
ATOM      7 CL   UNL d   1      28.702  17.972 -24.388  0.00  0.00    -0.082 Cl
ATOM      8  C   UNL d   1      29.268  16.671 -24.566  0.00  0.00     0.013 A 
ATOM      9  C   UNL d   1      29.928  16.185 -24.591  0.00  0.00     0.026 A 
ATOM     10  C   UNL d   1      28.521  16.358 -24.692  0.00  0.00     0.001 C 
ATOM     11  C   UNL d   1      30.687  16.504 -24.463  0.00  0.00     0.106 A 
BRANCH  11  12
ATOM     12  O   UNL d   1      31.347  16.013 -24.488  0.00  0.00    -0.327 OA
ATOM     13  C   UNL d   1      31.422  15.468 -25.097  0.00  0.00     0.181 C 
ENDBRANCH  11  12
ENDBRANCH   1   4
BRANCH   1  14
ATOM     14  N   UNL d   1      32.278  17.935 -24.058  0.00  0.00    -0.157 NA
BRANCH  14  15
ATOM     15  C   UNL d   1      32.384  18.758 -24.058  0.00  0.00     0.114 C 
BRANCH  15  16
ATOM     16  C   UNL d   1      32.860  19.109 -23.483  0.00  0.00     0.041 C 
BRANCH  16  17
ATOM     17  C   UNL d   1      33.241  19.817 -23.642  0.00  0.00     0.082 C 
BRANCH  17  18
ATOM     18  N   UNL d   1      33.145  20.457 -23.137  0.00  0.00    -0.299 N 
ATOM     19  C   UNL d   1      33.051  21.225 -23.447  0.00  0.00     0.107 A 
ATOM     20  C   UNL d   1      32.955  21.865 -22.943  0.00  0.00     0.142 A 
ATOM     21  O   UNL d   1      32.950  21.755 -22.129  0.00  0.00    -0.300 OA
ATOM     22  C   UNL d   1      33.043  20.993 -21.813  0.00  0.00     0.142 A 
ATOM     23  C   UNL d   1      33.140  20.343 -22.326  0.00  0.00     0.107 A 
ENDBRANCH  17  18
ENDBRANCH  16  17
ENDBRANCH  15  16
ENDBRANCH  14  15
ENDBRANCH   1  14
TORSDOF 7
ENDMDL
