MODEL 1
REMARK VINA RESULT:     101.9      0.000      0.000
REMARK  9 active torsions:
REMARK  status: ('A' for Active; 'I' for Inactive)
REMARK    1  A    between atoms: C_10  and  N_1 
REMARK    2  A    between atoms: C_7  and  N_3 
REMARK    3  A    between atoms: C_8  and  C_7 
REMARK       I    between atoms: N_12  and  C_8 
REMARK    4  A    between atoms: C_13  and  C_10 
REMARK    5  A    between atoms: C_21  and  N_12 
REMARK    6  A    between atoms: C_28  and  N_12 
REMARK       I    between atoms: N_19  and  C_13 
REMARK    7  A    between atoms: C_17  and  C_26 
REMARK    8  A    between atoms: C_26  and  N_19 
REMARK    9  A    between atoms: C_27  and  C_21 
ROOT
ATOM      1  N   UNL d   1      60.516  49.360  50.537  0.00  0.00    -0.220 N 
ATOM      2  C   UNL d   1      59.790  49.473  50.165  0.00  0.00     0.342 A 
ATOM      3  N   UNL d   1      59.090  49.594  50.617  0.00  0.00    -0.254 N 
ATOM      4  C   UNL d   1      59.887  49.481  51.813  0.00  0.00     0.102 A 
ATOM      5  C   UNL d   1      60.557  49.365  51.355  0.00  0.00     0.276 A 
ATOM      6  C   UNL d   1      59.146  49.597  51.433  0.00  0.00     0.080 A 
ATOM      7  S   UNL d   1      59.763  49.514  52.644  0.00  0.00    -0.080 SA
ATOM      8  C   UNL d   1      58.559  49.702  52.036  0.00  0.00     0.025 A 
ATOM      9  O   UNL d   1      59.737  49.470  49.354  0.00  0.00    -0.245 OA
ATOM     10  C   UNL d   1      58.950  49.649  52.782  0.00  0.00     0.037 A 
ATOM     11  O   UNL d   1      61.275  49.253  51.724  0.00  0.00    -0.266 OA
ENDROOT
BRANCH   3  12
ATOM     12  C   UNL d   1      58.366  49.707  50.260  0.00  0.00     0.146 C 
BRANCH  12  13
ATOM     13  C   UNL d   1      57.904  49.058  50.036  0.00  0.00     0.283 C 
ATOM     14  N   UNL d   1      57.107  49.033  50.240  0.00  0.00    -0.271 N 
ATOM     15  O   UNL d   1      58.249  48.446  49.611  0.00  0.00    -0.265 OA
BRANCH  14  16
ATOM     16  C   UNL d   1      56.652  48.381  50.012  0.00  0.00     0.083 C 
BRANCH  16  17
ATOM     17  C   UNL d   1      56.789  47.648  50.363  0.00  0.00     0.018 A 
ATOM     18  C   UNL d   1      56.529  47.504  51.129  0.00  0.00     0.002 A 
ATOM     19  C   UNL d   1      56.666  46.764  51.486  0.00  0.00     0.000 A 
ATOM     20  C   UNL d   1      57.060  46.180  51.072  0.00  0.00     0.000 A 
ATOM     21  C   UNL d   1      57.324  46.319  50.300  0.00  0.00     0.000 A 
ATOM     22  C   UNL d   1      57.188  47.054  49.945  0.00  0.00     0.002 A 
ENDBRANCH  16  17
ENDBRANCH  14  16
BRANCH  14  23
ATOM     23  C   UNL d   1      56.770  49.646  50.663  0.00  0.00     0.083 C 
ATOM     24  C   UNL d   1      56.060  49.532  51.066  0.00  0.00     0.021 C 
ENDBRANCH  14  23
ENDBRANCH  12  13
ENDBRANCH   3  12
BRANCH   1  25
ATOM     25  C   UNL d   1      61.178  49.245  50.094  0.00  0.00     0.150 C 
BRANCH  25  26
ATOM     26  C   UNL d   1      61.561  48.515  50.106  0.00  0.00     0.297 C 
ATOM     27  N   UNL d   1      61.309  47.919  50.620  0.00  0.00    -0.203 NA
ATOM     28  O   UNL d   1      62.199  48.373  49.604  0.00  0.00    -0.264 OA
BRANCH  27  29
ATOM     29  C   UNL d   1      61.688  47.189  50.635  0.00  0.00     0.127 C 
BRANCH  29  30
ATOM     30  C   UNL d   1      61.260  46.499  50.752  0.00  0.00     0.119 A 
ATOM     31  O   UNL d   1      61.257  45.839  50.253  0.00  0.00    -0.304 OA
ATOM     32  C   UNL d   1      60.753  45.279  50.583  0.00  0.00     0.123 A 
ATOM     33  C   UNL d   1      60.442  45.590  51.287  0.00  0.00     0.029 A 
ATOM     34  C   UNL d   1      60.763  46.343  51.379  0.00  0.00     0.028 A 
ENDBRANCH  29  30
ENDBRANCH  27  29
ENDBRANCH  25  26
ENDBRANCH   1  25
TORSDOF 9
ENDMDL
MODEL 2
REMARK VINA RESULT:     104.9      1.919      4.985
REMARK  9 active torsions:
REMARK  status: ('A' for Active; 'I' for Inactive)
REMARK    1  A    between atoms: C_10  and  N_1 
REMARK    2  A    between atoms: C_7  and  N_3 
REMARK    3  A    between atoms: C_8  and  C_7 
REMARK       I    between atoms: N_12  and  C_8 
REMARK    4  A    between atoms: C_13  and  C_10 
REMARK    5  A    between atoms: C_21  and  N_12 
REMARK    6  A    between atoms: C_28  and  N_12 
REMARK       I    between atoms: N_19  and  C_13 
REMARK    7  A    between atoms: C_17  and  C_26 
REMARK    8  A    between atoms: C_26  and  N_19 
REMARK    9  A    between atoms: C_27  and  C_21 
ROOT
ATOM      1  N   UNL d   1      60.998  48.052  50.717  0.00  0.00    -0.220 N 
ATOM      2  C   UNL d   1      60.715  47.288  50.842  0.00  0.00     0.342 A 
ATOM      3  N   UNL d   1      61.051  46.634  50.433  0.00  0.00    -0.254 N 
ATOM      4  C   UNL d   1      61.952  47.551  49.781  0.00  0.00     0.102 A 
ATOM      5  C   UNL d   1      61.612  48.175  50.189  0.00  0.00     0.276 A 
ATOM      6  C   UNL d   1      61.664  46.772  49.908  0.00  0.00     0.080 A 
ATOM      7  S   UNL d   1      62.575  47.511  49.217  0.00  0.00    -0.080 SA
ATOM      8  C   UNL d   1      62.114  46.246  49.419  0.00  0.00     0.025 A 
ATOM      9  O   UNL d   1      60.106  47.154  51.364  0.00  0.00    -0.245 OA
ATOM     10  C   UNL d   1      62.675  46.712  48.995  0.00  0.00     0.037 A 
ATOM     11  O   UNL d   1      61.891  48.931  50.065  0.00  0.00    -0.266 OA
ENDROOT
BRANCH   3  12
ATOM     12  C   UNL d   1      60.780  45.874  50.549  0.00  0.00     0.146 C 
BRANCH  12  13
ATOM     13  C   UNL d   1      61.106  45.400  51.143  0.00  0.00     0.283 C 
ATOM     14  N   UNL d   1      61.039  44.580  51.095  0.00  0.00    -0.271 N 
ATOM     15  O   UNL d   1      61.494  45.754  51.773  0.00  0.00    -0.265 OA
BRANCH  14  16
ATOM     16  C   UNL d   1      61.368  44.112  51.693  0.00  0.00     0.083 C 
BRANCH  16  17
ATOM     17  C   UNL d   1      61.825  43.457  51.491  0.00  0.00     0.018 A 
ATOM     18  C   UNL d   1      61.509  42.701  51.555  0.00  0.00     0.002 A 
ATOM     19  C   UNL d   1      61.969  42.037  51.352  0.00  0.00     0.000 A 
ATOM     20  C   UNL d   1      62.736  42.139  51.089  0.00  0.00     0.000 A 
ATOM     21  C   UNL d   1      63.059  42.897  51.022  0.00  0.00     0.000 A 
ATOM     22  C   UNL d   1      62.603  43.558  51.224  0.00  0.00     0.002 A 
ENDBRANCH  16  17
ENDBRANCH  14  16
BRANCH  14  23
ATOM     23  C   UNL d   1      60.651  44.234  50.465  0.00  0.00     0.083 C 
ATOM     24  C   UNL d   1      60.961  44.292  49.703  0.00  0.00     0.021 C 
ENDBRANCH  14  23
ENDBRANCH  12  13
ENDBRANCH   3  12
BRANCH   1  25
ATOM     25  C   UNL d   1      60.668  48.670  51.115  0.00  0.00     0.150 C 
BRANCH  25  26
ATOM     26  C   UNL d   1      60.156  49.185  50.724  0.00  0.00     0.297 C 
ATOM     27  N   UNL d   1      59.351  49.193  50.905  0.00  0.00    -0.203 NA
ATOM     28  O   UNL d   1      60.447  49.697  50.147  0.00  0.00    -0.264 OA
BRANCH  27  29
ATOM     29  C   UNL d   1      58.838  49.706  50.516  0.00  0.00     0.127 C 
BRANCH  29  30
ATOM     30  C   UNL d   1      58.026  49.641  50.619  0.00  0.00     0.119 A 
ATOM     31  O   UNL d   1      57.455  49.708  50.024  0.00  0.00    -0.304 OA
ATOM     32  C   UNL d   1      56.718  49.605  50.373  0.00  0.00     0.123 A 
ATOM     33  C   UNL d   1      56.830  49.475  51.186  0.00  0.00     0.029 A 
ATOM     34  C   UNL d   1      57.641  49.500  51.324  0.00  0.00     0.028 A 
ENDBRANCH  29  30
ENDBRANCH  27  29
ENDBRANCH  25  26
ENDBRANCH   1  25
TORSDOF 9
ENDMDL
