MODEL 1
REMARK VINA RESULT:       3.0      0.000      0.000
REMARK  1 active torsions:
REMARK  status: ('A' for Active; 'I' for Inactive)
REMARK    1  A    between atoms: C_5  and  C_8 
ROOT
ATOM      1  C   UNL d   1      46.419 -18.886  43.296  0.00  0.00     0.084 A 
ATOM      2  C   UNL d   1      46.486 -19.595  43.708  0.00  0.00     0.057 A 
ATOM      3  N   UNL d   1      46.321 -18.180  43.704  0.00  0.00    -0.245 NA
ATOM      4  C   UNL d   1      46.455 -19.607  44.529  0.00  0.00     0.199 A 
ATOM      5  C   UNL d   1      46.356 -18.900  44.942  0.00  0.00     0.061 A 
ATOM      6  C   UNL d   1      46.289 -18.190  44.530  0.00  0.00     0.085 A 
ATOM      7  C   UNL d   1      46.550 -19.586  42.061  0.00  0.00     0.073 A 
ATOM      8  C   UNL d   1      46.451 -18.880  42.469  0.00  0.00     0.023 A 
ATOM      9  C   UNL d   1      46.585 -20.302  43.296  0.00  0.00     0.005 A 
ATOM     10  O   UNL d   1      46.523 -20.321  44.934  0.00  0.00    -0.286 OA
ATOM     11  C   UNL d   1      46.617 -20.299  42.475  0.00  0.00     0.004 A 
ATOM     12  C   UNL d   1      46.190 -17.480  44.945  0.00  0.00     0.021 C 
ENDROOT
BRANCH   7  13
ATOM     13  C   UNL d   1      46.582 -19.587  41.233  0.00  0.00     0.419 C 
ATOM     14  F   UNL d   1      46.612 -19.585  40.485  0.00  0.00    -0.166 F 
ATOM     15  F   UNL d   1      46.632 -20.256  40.694  0.00  0.00    -0.166 F 
ATOM     16  F   UNL d   1      46.575 -18.920  40.692  0.00  0.00    -0.166 F 
ENDBRANCH   7  13
TORSDOF 1
ENDMDL
