MODEL 1
REMARK VINA RESULT:      46.5      0.000      0.000
REMARK  3 active torsions:
REMARK  status: ('A' for Active; 'I' for Inactive)
REMARK    1  A    between atoms: N_6  and  C_1 
REMARK    2  A    between atoms: C_11  and  C_2 
REMARK    3  A    between atoms: C_5  and  C_8 
REMARK       I    between atoms: C_8  and  N_6 
ROOT
ATOM      1  N   UNL d   1     -50.952  26.356  33.345  0.00  0.00    -0.200 NA
ATOM      2  C   UNL d   1     -51.785  26.370  33.419  0.00  0.00     0.302 C 
ATOM      3  O   UNL d   1     -52.192  27.100  33.360  0.00  0.00    -0.263 OA
ENDROOT
BRANCH   1   4
ATOM      4  C   UNL d   1     -50.567  25.668  33.400  0.00  0.00     0.119 A 
ATOM      5  C   UNL d   1     -49.813  25.585  33.552  0.00  0.00     0.084 A 
ATOM      6  C   UNL d   1     -49.664  24.808  33.555  0.00  0.00     0.013 A 
ATOM      7  C   UNL d   1     -48.986  24.407  33.680  0.00  0.00     0.001 A 
ATOM      8  C   UNL d   1     -50.323  24.430  33.407  0.00  0.00     0.031 A 
ATOM      9  C   UNL d   1     -49.003  23.615  33.649  0.00  0.00     0.001 A 
ATOM     10  C   UNL d   1     -49.679  23.239  33.497  0.00  0.00     0.006 A 
ATOM     11  S   UNL d   1     -50.892  24.951  33.309  0.00  0.00    -0.068 SA
BRANCH   5  12
ATOM     12  C   UNL d   1     -49.287  26.151  33.679  0.00  0.00     0.299 C 
ATOM     13  O   UNL d   1     -48.537  25.954  33.849  0.00  0.00    -0.264 OA
ATOM     14  N   UNL d   1     -49.486  26.912  33.643  0.00  0.00    -0.102 N 
ENDBRANCH   5  12
ENDBRANCH   1   4
BRANCH   2  15
ATOM     15  C   UNL d   1     -52.208  25.672  33.547  0.00  0.00     0.158 A 
ATOM     16  O   UNL d   1     -52.994  25.521  33.334  0.00  0.00    -0.302 OA
ATOM     17  C   UNL d   1     -53.195  24.755  33.567  0.00  0.00     0.100 A 
ATOM     18  C   UNL d   1     -53.892  24.306  33.503  0.00  0.00     0.025 A 
ATOM     19  C   UNL d   1     -52.526  24.418  33.933  0.00  0.00     0.025 A 
ATOM     20  C   UNL d   1     -53.929  23.536  33.794  0.00  0.00     0.002 A 
ATOM     21  C   UNL d   1     -53.256  23.191  34.165  0.00  0.00     0.000 A 
ATOM     22  C   UNL d   1     -52.557  23.643  34.229  0.00  0.00     0.002 A 
ATOM     23  C   UNL d   1     -51.916  24.984  33.921  0.00  0.00     0.032 A 
ENDBRANCH   2  15
TORSDOF 3
ENDMDL
