MODEL 1
REMARK VINA RESULT:       0.3      0.000      0.000
REMARK  1 active torsions:
REMARK  status: ('A' for Active; 'I' for Inactive)
REMARK    1  A    between atoms: C_11  and  C_4 
ROOT
ATOM      1  O   UNL d   1      24.014  11.823  -2.483  0.00  0.00    -0.304 OA
ATOM      2  C   UNL d   1      24.567  12.927  -1.964  0.00  0.00     0.025 A 
ATOM      3  C   UNL d   1      24.768  12.886  -2.769  0.00  0.00     0.030 A 
ATOM      4  C   UNL d   1      24.428  12.206  -3.089  0.00  0.00     0.142 A 
ATOM      5  C   UNL d   1      24.101  12.267  -1.797  0.00  0.00     0.100 A 
ATOM      6  C   UNL d   1      24.748  13.470  -1.385  0.00  0.00     0.009 A 
ATOM      7  C   UNL d   1      23.814  12.153  -1.034  0.00  0.00     0.025 A 
ATOM      8  C   UNL d   1      24.463  13.365  -0.612  0.00  0.00     0.035 A 
ATOM      9  C   UNL d   1      23.995  12.703  -0.438  0.00  0.00     0.009 A 
ATOM     10 BR   UNL d   1      24.641  13.909  -0.021  0.00  0.00    -0.049 Br
ENDROOT
BRANCH   4  11
ATOM     11  C   UNL d   1      24.488  11.953  -3.871  0.00  0.00     0.259 C 
ATOM     12  O   UNL d   1      24.752  12.468  -4.448  0.00  0.00    -0.281 OA
ENDBRANCH   4  11
TORSDOF 1
ENDMDL
