MODEL 1
REMARK VINA RESULT:      -3.3      0.000      0.000
REMARK  3 active torsions:
REMARK  status: ('A' for Active; 'I' for Inactive)
REMARK    1  A    between atoms: N_3  and  C_1 
REMARK       I    between atoms: C_2  and  N_3 
REMARK       I    between atoms: N_14  and  C_2 
REMARK    2  A    between atoms: C_16  and  N_14 
REMARK    3  A    between atoms: C_17  and  C_16 
ROOT
ATOM      1  C   UNL d   1      32.140  17.559 -23.998  0.00  0.00     0.127 A 
ATOM      2  C   UNL d   1      32.537  18.471 -23.471  0.00  0.00    -0.006 A 
ATOM      3  C   UNL d   1      33.023  16.867 -23.221  0.00  0.00     0.046 A 
ATOM      4  C   UNL d   1      32.928  18.200 -23.122  0.00  0.00    -0.006 A 
ATOM      5  C   UNL d   1      32.385  18.243 -23.655  0.00  0.00    -0.001 A 
ATOM      6  C   UNL d   1      31.767  18.080 -24.294  0.00  0.00    -0.001 A 
ATOM      7  C   UNL d   1      32.436  16.974 -23.789  0.00  0.00     0.040 A 
ATOM      8  C   UNL d   1      32.922  17.580 -23.217  0.00  0.00    -0.022 A 
ATOM      9  C   UNL d   1      33.241  17.525 -22.909  0.00  0.00    -0.022 A 
ATOM     10  C   UNL d   1      33.235  19.447 -22.636  0.00  0.00    -0.001 A 
ENDROOT
BRANCH   1  11
ATOM     11  N   UNL d   1      31.935  16.712 -24.325  0.00  0.00    -0.213 NA
ATOM     12  C   UNL d   1      31.084  16.530 -24.574  0.00  0.00     0.365 C 
ATOM     13  O   UNL d   1      30.882  15.708 -24.893  0.00  0.00    -0.243 OA
ATOM     14  N   UNL d   1      30.388  17.197 -24.507  0.00  0.00    -0.186 NA
BRANCH  14  15
ATOM     15  C   UNL d   1      29.536  16.987 -24.766  0.00  0.00     0.149 C 
BRANCH  15  16
ATOM     16  C   UNL d   1      28.874  17.616 -24.725  0.00  0.00     0.255 C 
ATOM     17  O   UNL d   1      28.360  17.744 -23.947  0.00  0.00    -0.281 OA
ENDBRANCH  15  16
ENDBRANCH  14  15
ENDBRANCH   1  11
TORSDOF 3
ENDMDL
MODEL 2
REMARK VINA RESULT:      -3.2      1.878      3.419
REMARK  3 active torsions:
REMARK  status: ('A' for Active; 'I' for Inactive)
REMARK    1  A    between atoms: N_3  and  C_1 
REMARK       I    between atoms: C_2  and  N_3 
REMARK       I    between atoms: N_14  and  C_2 
REMARK    2  A    between atoms: C_16  and  N_14 
REMARK    3  A    between atoms: C_17  and  C_16 
ROOT
ATOM      1  C   UNL d   1      31.241  17.095 -24.240  0.00  0.00     0.127 A 
ATOM      2  C   UNL d   1      30.607  16.342 -23.691  0.00  0.00    -0.006 A 
ATOM      3  C   UNL d   1      30.128  17.302 -25.004  0.00  0.00     0.046 A 
ATOM      4  C   UNL d   1      30.112  16.410 -24.003  0.00  0.00    -0.006 A 
ATOM      5  C   UNL d   1      30.837  16.547 -23.813  0.00  0.00    -0.001 A 
ATOM      6  C   UNL d   1      31.686  16.849 -23.751  0.00  0.00    -0.001 A 
ATOM      7  C   UNL d   1      30.907  17.408 -24.753  0.00  0.00     0.040 A 
ATOM      8  C   UNL d   1      30.186  16.840 -24.454  0.00  0.00    -0.022 A 
ATOM      9  C   UNL d   1      29.764  16.781 -24.588  0.00  0.00    -0.022 A 
ATOM     10  C   UNL d   1      29.564  15.454 -23.184  0.00  0.00    -0.001 A 
ENDROOT
BRANCH   1  11
ATOM     11  N   UNL d   1      31.609  17.742 -24.797  0.00  0.00    -0.213 NA
ATOM     12  C   UNL d   1      32.198  18.338 -24.453  0.00  0.00     0.365 C 
ATOM     13  O   UNL d   1      32.557  18.969 -24.993  0.00  0.00    -0.243 OA
ATOM     14  N   UNL d   1      32.449  18.312 -23.520  0.00  0.00    -0.186 NA
BRANCH  14  15
ATOM     15  C   UNL d   1      33.046  18.925 -23.197  0.00  0.00     0.149 C 
BRANCH  15  16
ATOM     16  C   UNL d   1      33.170  19.018 -22.297  0.00  0.00     0.255 C 
ATOM     17  O   UNL d   1      32.945  19.812 -21.844  0.00  0.00    -0.281 OA
ENDBRANCH  15  16
ENDBRANCH  14  15
ENDBRANCH   1  11
TORSDOF 3
ENDMDL
MODEL 3
REMARK VINA RESULT:      -3.2      3.233      4.218
REMARK  3 active torsions:
REMARK  status: ('A' for Active; 'I' for Inactive)
REMARK    1  A    between atoms: N_3  and  C_1 
REMARK       I    between atoms: C_2  and  N_3 
REMARK       I    between atoms: N_14  and  C_2 
REMARK    2  A    between atoms: C_16  and  N_14 
REMARK    3  A    between atoms: C_17  and  C_16 
ROOT
ATOM      1  C   UNL d   1      33.128  19.610 -22.629  0.00  0.00     0.127 A 
ATOM      2  C   UNL d   1      32.978  19.409 -23.727  0.00  0.00    -0.006 A 
ATOM      3  C   UNL d   1      33.057  18.254 -22.489  0.00  0.00     0.046 A 
ATOM      4  C   UNL d   1      32.944  18.821 -23.698  0.00  0.00    -0.006 A 
ATOM      5  C   UNL d   1      33.024  19.526 -23.421  0.00  0.00    -0.001 A 
ATOM      6  C   UNL d   1      33.135  20.260 -22.905  0.00  0.00    -0.001 A 
ATOM      7  C   UNL d   1      33.138  19.038 -22.247  0.00  0.00     0.040 A 
ATOM      8  C   UNL d   1      33.004  18.621 -23.106  0.00  0.00    -0.022 A 
ATOM      9  C   UNL d   1      32.960  18.197 -23.240  0.00  0.00    -0.022 A 
ATOM     10  C   UNL d   1      32.777  18.846 -25.060  0.00  0.00    -0.001 A 
ENDROOT
BRANCH   1  11
ATOM     11  N   UNL d   1      33.241  19.589 -21.706  0.00  0.00    -0.213 NA
ATOM     12  C   UNL d   1      33.081  20.339 -21.225  0.00  0.00     0.365 C 
ATOM     13  O   UNL d   1      33.190  20.321 -20.327  0.00  0.00    -0.243 OA
ATOM     14  N   UNL d   1      32.796  21.157 -21.652  0.00  0.00    -0.186 NA
BRANCH  14  15
ATOM     15  C   UNL d   1      32.642  21.902 -21.142  0.00  0.00     0.149 C 
BRANCH  15  16
ATOM     16  C   UNL d   1      32.339  22.671 -21.531  0.00  0.00     0.255 C 
ATOM     17  O   UNL d   1      31.574  23.119 -21.214  0.00  0.00    -0.281 OA
ENDBRANCH  15  16
ENDBRANCH  14  15
ENDBRANCH   1  11
TORSDOF 3
ENDMDL
MODEL 4
REMARK VINA RESULT:      -3.0      3.128      4.614
REMARK  3 active torsions:
REMARK  status: ('A' for Active; 'I' for Inactive)
REMARK    1  A    between atoms: N_3  and  C_1 
REMARK       I    between atoms: C_2  and  N_3 
REMARK       I    between atoms: N_14  and  C_2 
REMARK    2  A    between atoms: C_16  and  N_14 
REMARK    3  A    between atoms: C_17  and  C_16 
ROOT
ATOM      1  C   UNL d   1      33.004  21.176 -21.610  0.00  0.00     0.127 A 
ATOM      2  C   UNL d   1      32.786  22.262 -21.811  0.00  0.00    -0.006 A 
ATOM      3  C   UNL d   1      32.457  21.412 -20.381  0.00  0.00     0.046 A 
ATOM      4  C   UNL d   1      32.545  22.395 -21.290  0.00  0.00    -0.006 A 
ATOM      5  C   UNL d   1      32.872  21.943 -21.808  0.00  0.00    -0.001 A 
ATOM      6  C   UNL d   1      33.240  21.259 -22.270  0.00  0.00    -0.001 A 
ATOM      7  C   UNL d   1      32.813  20.972 -20.981  0.00  0.00     0.040 A 
ATOM      8  C   UNL d   1      32.534  21.893 -20.912  0.00  0.00    -0.022 A 
ATOM      9  C   UNL d   1      32.341  22.134 -20.589  0.00  0.00    -0.022 A 
ATOM     10  C   UNL d   1      32.389  23.668 -21.778  0.00  0.00    -0.001 A 
ENDROOT
BRANCH   1  11
ATOM     11  N   UNL d   1      33.108  20.314 -21.275  0.00  0.00    -0.213 NA
ATOM     12  C   UNL d   1      33.138  19.617 -21.853  0.00  0.00     0.365 C 
ATOM     13  O   UNL d   1      33.240  18.778 -21.529  0.00  0.00    -0.243 OA
ATOM     14  N   UNL d   1      33.063  19.753 -22.806  0.00  0.00    -0.186 NA
BRANCH  14  15
ATOM     15  C   UNL d   1      33.097  19.031 -23.368  0.00  0.00     0.149 C 
BRANCH  15  16
ATOM     16  C   UNL d   1      32.881  19.125 -24.251  0.00  0.00     0.255 C 
ATOM     17  O   UNL d   1      32.857  18.388 -24.837  0.00  0.00    -0.281 OA
ENDBRANCH  15  16
ENDBRANCH  14  15
ENDBRANCH   1  11
TORSDOF 3
ENDMDL
MODEL 5
REMARK VINA RESULT:      -2.9      2.859      3.818
REMARK  3 active torsions:
REMARK  status: ('A' for Active; 'I' for Inactive)
REMARK    1  A    between atoms: N_3  and  C_1 
REMARK       I    between atoms: C_2  and  N_3 
REMARK       I    between atoms: N_14  and  C_2 
REMARK    2  A    between atoms: C_16  and  N_14 
REMARK    3  A    between atoms: C_17  and  C_16 
ROOT
ATOM      1  C   UNL d   1      33.136  19.024 -23.231  0.00  0.00     0.127 A 
ATOM      2  C   UNL d   1      32.966  17.929 -23.029  0.00  0.00    -0.006 A 
ATOM      3  C   UNL d   1      32.867  18.708 -24.531  0.00  0.00     0.046 A 
ATOM      4  C   UNL d   1      32.846  17.762 -23.581  0.00  0.00    -0.006 A 
ATOM      5  C   UNL d   1      33.026  18.255 -23.028  0.00  0.00    -0.001 A 
ATOM      6  C   UNL d   1      33.241  18.980 -22.534  0.00  0.00    -0.001 A 
ATOM      7  C   UNL d   1      33.060  19.193 -23.893  0.00  0.00     0.040 A 
ATOM      8  C   UNL d   1      32.873  18.250 -23.975  0.00  0.00    -0.022 A 
ATOM      9  C   UNL d   1      32.768  17.985 -24.319  0.00  0.00    -0.022 A 
ATOM     10  C   UNL d   1      32.693  16.495 -23.076  0.00  0.00    -0.001 A 
ENDROOT
BRANCH   1  11
ATOM     11  N   UNL d   1      33.239  19.882 -23.576  0.00  0.00    -0.213 NA
ATOM     12  C   UNL d   1      33.141  20.594 -23.026  0.00  0.00     0.365 C 
ATOM     13  O   UNL d   1      33.241  21.429 -23.360  0.00  0.00    -0.243 OA
ATOM     14  N   UNL d   1      32.934  20.479 -22.090  0.00  0.00    -0.186 NA
BRANCH  14  15
ATOM     15  C   UNL d   1      32.840  21.216 -21.555  0.00  0.00     0.149 C 
BRANCH  15  16
ATOM     16  C   UNL d   1      32.427  21.146 -20.743  0.00  0.00     0.255 C 
ATOM     17  O   UNL d   1      31.509  21.324 -20.637  0.00  0.00    -0.281 OA
ENDBRANCH  15  16
ENDBRANCH  14  15
ENDBRANCH   1  11
TORSDOF 3
ENDMDL
MODEL 6
REMARK VINA RESULT:      -2.8      1.623      2.866
REMARK  3 active torsions:
REMARK  status: ('A' for Active; 'I' for Inactive)
REMARK    1  A    between atoms: N_3  and  C_1 
REMARK       I    between atoms: C_2  and  N_3 
REMARK       I    between atoms: N_14  and  C_2 
REMARK    2  A    between atoms: C_16  and  N_14 
REMARK    3  A    between atoms: C_17  and  C_16 
ROOT
ATOM      1  C   UNL d   1      33.226  19.490 -22.909  0.00  0.00     0.127 A 
ATOM      2  C   UNL d   1      33.219  19.858 -21.844  0.00  0.00    -0.006 A 
ATOM      3  C   UNL d   1      33.241  20.813 -23.245  0.00  0.00     0.046 A 
ATOM      4  C   UNL d   1      33.226  20.436 -21.958  0.00  0.00    -0.006 A 
ATOM      5  C   UNL d   1      33.220  19.695 -22.132  0.00  0.00    -0.001 A 
ATOM      6  C   UNL d   1      33.217  18.888 -22.540  0.00  0.00    -0.001 A 
ATOM      7  C   UNL d   1      33.235  19.998 -23.372  0.00  0.00     0.040 A 
ATOM      8  C   UNL d   1      33.232  20.544 -22.577  0.00  0.00    -0.022 A 
ATOM      9  C   UNL d   1      33.236  20.985 -22.505  0.00  0.00    -0.022 A 
ATOM     10  C   UNL d   1      33.215  20.621 -20.598  0.00  0.00    -0.001 A 
ENDROOT
BRANCH   1  11
ATOM     11  N   UNL d   1      33.233  19.369 -23.831  0.00  0.00    -0.213 NA
ATOM     12  C   UNL d   1      32.799  18.658 -24.187  0.00  0.00     0.365 C 
ATOM     13  O   UNL d   1      32.805  18.539 -25.083  0.00  0.00    -0.243 OA
ATOM     14  N   UNL d   1      32.330  18.026 -23.626  0.00  0.00    -0.186 NA
BRANCH  14  15
ATOM     15  C   UNL d   1      31.899  17.316 -24.011  0.00  0.00     0.149 C 
BRANCH  15  16
ATOM     16  C   UNL d   1      31.656  16.596 -23.504  0.00  0.00     0.255 C 
ATOM     17  O   UNL d   1      30.796  16.218 -23.561  0.00  0.00    -0.281 OA
ENDBRANCH  15  16
ENDBRANCH  14  15
ENDBRANCH   1  11
TORSDOF 3
ENDMDL
MODEL 7
REMARK VINA RESULT:      -2.7      4.077      5.694
REMARK  3 active torsions:
REMARK  status: ('A' for Active; 'I' for Inactive)
REMARK    1  A    between atoms: N_3  and  C_1 
REMARK       I    between atoms: C_2  and  N_3 
REMARK       I    between atoms: N_14  and  C_2 
REMARK    2  A    between atoms: C_16  and  N_14 
REMARK    3  A    between atoms: C_17  and  C_16 
ROOT
ATOM      1  C   UNL d   1      32.919  22.270 -21.269  0.00  0.00     0.127 A 
ATOM      2  C   UNL d   1      32.745  22.496 -20.179  0.00  0.00    -0.006 A 
ATOM      3  C   UNL d   1      32.755  23.613 -21.455  0.00  0.00     0.046 A 
ATOM      4  C   UNL d   1      32.670  23.078 -20.228  0.00  0.00    -0.006 A 
ATOM      5  C   UNL d   1      32.802  22.372 -20.481  0.00  0.00    -0.001 A 
ATOM      6  C   UNL d   1      32.970  21.632 -20.971  0.00  0.00    -0.001 A 
ATOM      7  C   UNL d   1      32.893  22.828 -21.670  0.00  0.00     0.040 A 
ATOM      8  C   UNL d   1      32.722  23.263 -20.826  0.00  0.00    -0.022 A 
ATOM      9  C   UNL d   1      32.647  23.687 -20.706  0.00  0.00    -0.022 A 
ATOM     10  C   UNL d   1      32.491  23.085 -18.867  0.00  0.00    -0.001 A 
ENDROOT
BRANCH   1  11
ATOM     11  N   UNL d   1      33.040  22.269 -22.191  0.00  0.00    -0.213 NA
ATOM     12  C   UNL d   1      33.121  21.478 -22.625  0.00  0.00     0.365 C 
ATOM     13  O   UNL d   1      33.239  21.476 -23.522  0.00  0.00    -0.243 OA
ATOM     14  N   UNL d   1      33.085  20.639 -22.148  0.00  0.00    -0.186 NA
BRANCH  14  15
ATOM     15  C   UNL d   1      33.169  19.854 -22.611  0.00  0.00     0.149 C 
BRANCH  15  16
ATOM     16  C   UNL d   1      33.241  19.061 -22.162  0.00  0.00     0.255 C 
ATOM     17  O   UNL d   1      33.032  18.239 -22.572  0.00  0.00    -0.281 OA
ENDBRANCH  15  16
ENDBRANCH  14  15
ENDBRANCH   1  11
TORSDOF 3
ENDMDL
MODEL 8
REMARK VINA RESULT:      -1.3      5.443      6.813
REMARK  3 active torsions:
REMARK  status: ('A' for Active; 'I' for Inactive)
REMARK    1  A    between atoms: N_3  and  C_1 
REMARK       I    between atoms: C_2  and  N_3 
REMARK       I    between atoms: N_14  and  C_2 
REMARK    2  A    between atoms: C_16  and  N_14 
REMARK    3  A    between atoms: C_17  and  C_16 
ROOT
ATOM      1  C   UNL d   1      32.790  22.262 -20.697  0.00  0.00     0.127 A 
ATOM      2  C   UNL d   1      32.651  22.977 -21.556  0.00  0.00    -0.006 A 
ATOM      3  C   UNL d   1      33.132  21.354 -21.658  0.00  0.00     0.046 A 
ATOM      4  C   UNL d   1      32.793  22.608 -21.993  0.00  0.00    -0.006 A 
ATOM      5  C   UNL d   1      32.675  22.814 -21.269  0.00  0.00    -0.001 A 
ATOM      6  C   UNL d   1      32.591  22.856 -20.370  0.00  0.00    -0.001 A 
ATOM      7  C   UNL d   1      32.989  21.634 -20.895  0.00  0.00     0.040 A 
ATOM      8  C   UNL d   1      32.941  22.040 -21.769  0.00  0.00    -0.022 A 
ATOM      9  C   UNL d   1      33.017  21.891 -22.183  0.00  0.00    -0.022 A 
ATOM     10  C   UNL d   1      32.556  23.656 -22.846  0.00  0.00    -0.001 A 
ENDROOT
BRANCH   1  11
ATOM     11  N   UNL d   1      32.952  21.549 -20.122  0.00  0.00    -0.213 NA
ATOM     12  C   UNL d   1      33.074  21.713 -19.240  0.00  0.00     0.365 C 
ATOM     13  O   UNL d   1      33.232  21.020 -18.679  0.00  0.00    -0.243 OA
ATOM     14  N   UNL d   1      33.040  22.611 -18.887  0.00  0.00    -0.186 NA
BRANCH  14  15
ATOM     15  C   UNL d   1      33.167  22.749 -17.991  0.00  0.00     0.149 C 
BRANCH  15  16
ATOM     16  C   UNL d   1      32.954  23.554 -17.614  0.00  0.00     0.255 C 
ATOM     17  O   UNL d   1      32.154  23.680 -17.134  0.00  0.00    -0.281 OA
ENDBRANCH  15  16
ENDBRANCH  14  15
ENDBRANCH   1  11
TORSDOF 3
ENDMDL
MODEL 9
REMARK VINA RESULT:      -0.7      1.742      3.311
REMARK  3 active torsions:
REMARK  status: ('A' for Active; 'I' for Inactive)
REMARK    1  A    between atoms: N_3  and  C_1 
REMARK       I    between atoms: C_2  and  N_3 
REMARK       I    between atoms: N_14  and  C_2 
REMARK    2  A    between atoms: C_16  and  N_14 
REMARK    3  A    between atoms: C_17  and  C_16 
ROOT
ATOM      1  C   UNL d   1      31.144  16.722 -23.985  0.00  0.00     0.127 A 
ATOM      2  C   UNL d   1      30.143  17.064 -24.373  0.00  0.00    -0.006 A 
ATOM      3  C   UNL d   1      30.455  15.656 -23.482  0.00  0.00     0.046 A 
ATOM      4  C   UNL d   1      29.819  16.617 -24.168  0.00  0.00    -0.006 A 
ATOM      5  C   UNL d   1      30.458  17.014 -24.285  0.00  0.00    -0.001 A 
ATOM      6  C   UNL d   1      31.306  17.326 -24.313  0.00  0.00    -0.001 A 
ATOM      7  C   UNL d   1      31.112  16.128 -23.639  0.00  0.00     0.040 A 
ATOM      8  C   UNL d   1      30.176  16.204 -23.858  0.00  0.00    -0.022 A 
ATOM      9  C   UNL d   1      29.818  15.950 -23.773  0.00  0.00    -0.022 A 
ATOM     10  C   UNL d   1      28.741  17.245 -24.739  0.00  0.00    -0.001 A 
ENDROOT
BRANCH   1  11
ATOM     11  N   UNL d   1      31.872  16.293 -23.597  0.00  0.00    -0.213 NA
ATOM     12  C   UNL d   1      32.532  16.791 -23.226  0.00  0.00     0.365 C 
ATOM     13  O   UNL d   1      33.241  16.376 -22.848  0.00  0.00    -0.243 OA
ATOM     14  N   UNL d   1      32.491  17.756 -23.228  0.00  0.00    -0.186 NA
BRANCH  14  15
ATOM     15  C   UNL d   1      33.171  18.237 -22.847  0.00  0.00     0.149 C 
BRANCH  15  16
ATOM     16  C   UNL d   1      33.147  19.150 -22.849  0.00  0.00     0.255 C 
ATOM     17  O   UNL d   1      32.912  19.642 -22.082  0.00  0.00    -0.281 OA
ENDBRANCH  15  16
ENDBRANCH  14  15
ENDBRANCH   1  11
TORSDOF 3
ENDMDL
