MODEL 1
REMARK VINA RESULT:      -5.6      0.000      0.000
REMARK  7 active torsions:
REMARK  status: ('A' for Active; 'I' for Inactive)
REMARK    1  A    between atoms: C_7  and  N_2 
REMARK    2  A    between atoms: C_21  and  C_7 
REMARK    3  A    between atoms: C_8  and  C_19 
REMARK       I    between atoms: N_13  and  C_8 
REMARK    4  A    between atoms: C_9  and  C_20 
REMARK    5  A    between atoms: O_14  and  C_11 
REMARK    6  A    between atoms: C_20  and  N_13 
REMARK    7  A    between atoms: C_19  and  O_14 
ROOT
ATOM      1  C   UNL d   1     -39.464  15.090  20.066  0.00  0.00     0.265 A 
ATOM      2  N   UNL d   1     -39.764  15.136  19.294  0.00  0.00    -0.272 N 
ATOM      3  C   UNL d   1     -39.915  14.706  20.644  0.00  0.00     0.059 A 
ATOM      4  C   UNL d   1     -40.648  14.377  20.455  0.00  0.00     0.029 A 
ATOM      5  C   UNL d   1     -40.937  14.427  19.688  0.00  0.00     0.021 A 
ATOM      6  C   UNL d   1     -40.496  14.807  19.104  0.00  0.00     0.083 A 
ATOM      7  O   UNL d   1     -38.739  15.416  20.253  0.00  0.00    -0.267 OA
ATOM      8  C   UNL d   1     -41.096  13.995  21.034  0.00  0.00     0.100 A 
ATOM      9  C   UNL d   1     -39.619  14.658  21.416  0.00  0.00     0.005 A 
ATOM     10  C   UNL d   1     -40.071  14.274  21.993  0.00  0.00     0.002 A 
ATOM     11  C   UNL d   1     -40.807  13.944  21.803  0.00  0.00     0.025 A 
ENDROOT
BRANCH   8  12
ATOM     12  O   UNL d   1     -41.825  13.667  20.845  0.00  0.00    -0.300 OA
BRANCH  12  13
ATOM     13  C   UNL d   1     -42.280  13.323  21.443  0.00  0.00     0.185 C 
BRANCH  13  14
ATOM     14  C   UNL d   1     -43.031  13.026  21.273  0.00  0.00     0.304 C 
ATOM     15  N   UNL d   1     -43.674  13.211  21.756  0.00  0.00    -0.203 NA
ATOM     16  O   UNL d   1     -43.139  12.537  20.614  0.00  0.00    -0.263 OA
BRANCH  15  17
ATOM     17  C   UNL d   1     -44.420  12.908  21.576  0.00  0.00     0.127 C 
BRANCH  17  18
ATOM     18  C   UNL d   1     -45.043  13.033  22.093  0.00  0.00     0.119 A 
ATOM     19  O   UNL d   1     -45.285  12.536  22.697  0.00  0.00    -0.304 OA
ATOM     20  C   UNL d   1     -45.924  12.872  23.074  0.00  0.00     0.123 A 
ATOM     21  C   UNL d   1     -46.088  13.590  22.706  0.00  0.00     0.029 A 
ATOM     22  C   UNL d   1     -45.537  13.685  22.097  0.00  0.00     0.028 A 
ENDBRANCH  17  18
ENDBRANCH  15  17
ENDBRANCH  13  14
ENDBRANCH  12  13
ENDBRANCH   8  12
BRANCH   2  23
ATOM     23  C   UNL d   1     -39.327  15.513  18.712  0.00  0.00     0.083 C 
BRANCH  23  24
ATOM     24  C   UNL d   1     -39.125  15.113  18.024  0.00  0.00     0.018 A 
ATOM     25  C   UNL d   1     -39.557  15.259  17.330  0.00  0.00     0.002 A 
ATOM     26  C   UNL d   1     -39.348  14.853  16.644  0.00  0.00     0.007 A 
ATOM     27  C   UNL d   1     -38.724  14.316  16.655  0.00  0.00     0.035 A 
ATOM     28  C   UNL d   1     -38.308  14.185  17.355  0.00  0.00     0.007 A 
ATOM     29 BR   UNL d   1     -38.524  13.917  15.966  0.00  0.00    -0.049 Br
ATOM     30  C   UNL d   1     -38.512  14.586  18.037  0.00  0.00     0.002 A 
ENDBRANCH  23  24
ENDBRANCH   2  23
TORSDOF 7
ENDMDL
MODEL 2
REMARK VINA RESULT:      -5.1      3.177      7.298
REMARK  7 active torsions:
REMARK  status: ('A' for Active; 'I' for Inactive)
REMARK    1  A    between atoms: C_7  and  N_2 
REMARK    2  A    between atoms: C_21  and  C_7 
REMARK    3  A    between atoms: C_8  and  C_19 
REMARK       I    between atoms: N_13  and  C_8 
REMARK    4  A    between atoms: C_9  and  C_20 
REMARK    5  A    between atoms: O_14  and  C_11 
REMARK    6  A    between atoms: C_20  and  N_13 
REMARK    7  A    between atoms: C_19  and  O_14 
ROOT
ATOM      1  C   UNL d   1     -46.215  11.896  23.258  0.00  0.00     0.265 A 
ATOM      2  N   UNL d   1     -46.579  12.607  23.035  0.00  0.00    -0.272 N 
ATOM      3  C   UNL d   1     -45.432  11.761  23.026  0.00  0.00     0.059 A 
ATOM      4  C   UNL d   1     -45.023  12.324  22.582  0.00  0.00     0.029 A 
ATOM      5  C   UNL d   1     -45.390  13.025  22.366  0.00  0.00     0.021 A 
ATOM      6  C   UNL d   1     -46.170  13.170  22.591  0.00  0.00     0.083 A 
ATOM      7  O   UNL d   1     -46.620  11.339  23.698  0.00  0.00    -0.267 OA
ATOM      8  C   UNL d   1     -44.242  12.186  22.353  0.00  0.00     0.100 A 
ATOM      9  C   UNL d   1     -45.066  11.052  23.247  0.00  0.00     0.005 A 
ATOM     10  C   UNL d   1     -44.284  10.918  23.015  0.00  0.00     0.002 A 
ATOM     11  C   UNL d   1     -43.873  11.483  22.569  0.00  0.00     0.025 A 
ENDROOT
BRANCH   8  12
ATOM     12  O   UNL d   1     -43.835  12.746  21.911  0.00  0.00    -0.300 OA
BRANCH  12  13
ATOM     13  C   UNL d   1     -43.043  12.612  21.719  0.00  0.00     0.185 C 
BRANCH  13  14
ATOM     14  C   UNL d   1     -42.675  13.063  21.134  0.00  0.00     0.304 C 
ATOM     15  N   UNL d   1     -42.124  13.644  21.336  0.00  0.00    -0.203 NA
ATOM     16  O   UNL d   1     -42.861  12.931  20.338  0.00  0.00    -0.263 OA
BRANCH  15  17
ATOM     17  C   UNL d   1     -41.764  14.088  20.742  0.00  0.00     0.127 C 
BRANCH  17  18
ATOM     18  C   UNL d   1     -41.186  14.634  20.939  0.00  0.00     0.119 A 
ATOM     19  O   UNL d   1     -40.457  14.475  21.277  0.00  0.00    -0.304 OA
ATOM     20  C   UNL d   1     -40.057  15.177  21.381  0.00  0.00     0.123 A 
ATOM     21  C   UNL d   1     -40.537  15.787  21.107  0.00  0.00     0.029 A 
ATOM     22  C   UNL d   1     -41.238  15.443  20.834  0.00  0.00     0.028 A 
ENDBRANCH  17  18
ENDBRANCH  15  17
ENDBRANCH  13  14
ENDBRANCH  12  13
ENDBRANCH   8  12
BRANCH   2  23
ATOM     23  C   UNL d   1     -47.354  12.754  23.258  0.00  0.00     0.083 C 
BRANCH  23  24
ATOM     24  C   UNL d   1     -47.920  12.927  22.690  0.00  0.00     0.018 A 
ATOM     25  C   UNL d   1     -48.062  13.721  22.491  0.00  0.00     0.002 A 
ATOM     26  C   UNL d   1     -48.632  13.887  21.919  0.00  0.00     0.007 A 
ATOM     27  C   UNL d   1     -49.047  13.273  21.558  0.00  0.00     0.035 A 
ATOM     28  C   UNL d   1     -48.890  12.493  21.770  0.00  0.00     0.007 A 
ATOM     29 BR   UNL d   1     -49.612  13.451  20.990  0.00  0.00    -0.049 Br
ATOM     30  C   UNL d   1     -48.326  12.324  22.336  0.00  0.00     0.002 A 
ENDBRANCH  23  24
ENDBRANCH   2  23
TORSDOF 7
ENDMDL
MODEL 3
REMARK VINA RESULT:      -4.8      3.755      8.585
REMARK  7 active torsions:
REMARK  status: ('A' for Active; 'I' for Inactive)
REMARK    1  A    between atoms: C_7  and  N_2 
REMARK    2  A    between atoms: C_21  and  C_7 
REMARK    3  A    between atoms: C_8  and  C_19 
REMARK       I    between atoms: N_13  and  C_8 
REMARK    4  A    between atoms: C_9  and  C_20 
REMARK    5  A    between atoms: O_14  and  C_11 
REMARK    6  A    between atoms: C_20  and  N_13 
REMARK    7  A    between atoms: C_19  and  O_14 
ROOT
ATOM      1  C   UNL d   1     -48.295  11.702  23.302  0.00  0.00     0.265 A 
ATOM      2  N   UNL d   1     -48.674  12.344  22.939  0.00  0.00    -0.272 N 
ATOM      3  C   UNL d   1     -47.468  11.687  23.319  0.00  0.00     0.059 A 
ATOM      4  C   UNL d   1     -47.031  12.301  22.982  0.00  0.00     0.029 A 
ATOM      5  C   UNL d   1     -47.413  12.933  22.626  0.00  0.00     0.021 A 
ATOM      6  C   UNL d   1     -48.237  12.957  22.603  0.00  0.00     0.083 A 
ATOM      7  O   UNL d   1     -48.728  11.094  23.636  0.00  0.00    -0.267 OA
ATOM      8  C   UNL d   1     -46.205  12.284  23.001  0.00  0.00     0.100 A 
ATOM      9  C   UNL d   1     -47.086  11.047  23.681  0.00  0.00     0.005 A 
ATOM     10  C   UNL d   1     -46.259  11.034  23.698  0.00  0.00     0.002 A 
ATOM     11  C   UNL d   1     -45.820  11.650  23.359  0.00  0.00     0.025 A 
ENDROOT
BRANCH   8  12
ATOM     12  O   UNL d   1     -45.770  12.894  22.666  0.00  0.00    -0.300 OA
BRANCH  12  13
ATOM     13  C   UNL d   1     -45.041  12.725  22.316  0.00  0.00     0.185 C 
BRANCH  13  14
ATOM     14  C   UNL d   1     -44.610  13.323  21.945  0.00  0.00     0.304 C 
ATOM     15  N   UNL d   1     -43.839  13.187  21.686  0.00  0.00    -0.203 NA
ATOM     16  O   UNL d   1     -44.957  14.067  21.832  0.00  0.00    -0.263 OA
BRANCH  15  17
ATOM     17  C   UNL d   1     -43.419  13.793  21.316  0.00  0.00     0.127 C 
BRANCH  17  18
ATOM     18  C   UNL d   1     -42.606  13.733  21.238  0.00  0.00     0.119 A 
ATOM     19  O   UNL d   1     -42.172  13.043  21.155  0.00  0.00    -0.304 OA
ATOM     20  C   UNL d   1     -41.382  13.234  21.095  0.00  0.00     0.123 A 
ATOM     21  C   UNL d   1     -41.315  14.054  21.141  0.00  0.00     0.029 A 
ATOM     22  C   UNL d   1     -42.079  14.358  21.229  0.00  0.00     0.028 A 
ENDBRANCH  17  18
ENDBRANCH  15  17
ENDBRANCH  13  14
ENDBRANCH  12  13
ENDBRANCH   8  12
BRANCH   2  23
ATOM     23  C   UNL d   1     -49.493  12.371  22.915  0.00  0.00     0.083 C 
BRANCH  23  24
ATOM     24  C   UNL d   1     -49.882  13.093  22.943  0.00  0.00     0.018 A 
ATOM     25  C   UNL d   1     -50.191  13.412  22.241  0.00  0.00     0.002 A 
ATOM     26  C   UNL d   1     -50.580  14.138  22.276  0.00  0.00     0.007 A 
ATOM     27  C   UNL d   1     -50.657  14.531  22.997  0.00  0.00     0.035 A 
ATOM     28  C   UNL d   1     -50.343  14.197  23.681  0.00  0.00     0.007 A 
ATOM     29 BR   UNL d   1     -51.047  15.253  23.021  0.00  0.00    -0.049 Br
ATOM     30  C   UNL d   1     -49.956  13.478  23.650  0.00  0.00     0.002 A 
ENDBRANCH  23  24
ENDBRANCH   2  23
TORSDOF 7
ENDMDL
MODEL 4
REMARK VINA RESULT:      -4.1      2.999      5.304
REMARK  7 active torsions:
REMARK  status: ('A' for Active; 'I' for Inactive)
REMARK    1  A    between atoms: C_7  and  N_2 
REMARK    2  A    between atoms: C_21  and  C_7 
REMARK    3  A    between atoms: C_8  and  C_19 
REMARK       I    between atoms: N_13  and  C_8 
REMARK    4  A    between atoms: C_9  and  C_20 
REMARK    5  A    between atoms: O_14  and  C_11 
REMARK    6  A    between atoms: C_20  and  N_13 
REMARK    7  A    between atoms: C_19  and  O_14 
ROOT
ATOM      1  C   UNL d   1     -44.016  12.034  22.224  0.00  0.00     0.265 A 
ATOM      2  N   UNL d   1     -43.696  12.581  21.689  0.00  0.00    -0.272 N 
ATOM      3  C   UNL d   1     -44.756  12.194  22.559  0.00  0.00     0.059 A 
ATOM      4  C   UNL d   1     -45.165  12.883  22.364  0.00  0.00     0.029 A 
ATOM      5  C   UNL d   1     -44.841  13.420  21.834  0.00  0.00     0.021 A 
ATOM      6  C   UNL d   1     -44.104  13.271  21.494  0.00  0.00     0.083 A 
ATOM      7  O   UNL d   1     -43.611  11.351  22.417  0.00  0.00    -0.267 OA
ATOM      8  C   UNL d   1     -45.903  13.040  22.700  0.00  0.00     0.100 A 
ATOM      9  C   UNL d   1     -45.079  11.650  23.093  0.00  0.00     0.005 A 
ATOM     10  C   UNL d   1     -45.818  11.810  23.428  0.00  0.00     0.002 A 
ATOM     11  C   UNL d   1     -46.229  12.503  23.232  0.00  0.00     0.025 A 
ENDROOT
BRANCH   8  12
ATOM     12  O   UNL d   1     -46.310  13.726  22.505  0.00  0.00    -0.300 OA
BRANCH  12  13
ATOM     13  C   UNL d   1     -46.945  13.966  22.976  0.00  0.00     0.185 C 
BRANCH  13  14
ATOM     14  C   UNL d   1     -47.411  14.608  22.748  0.00  0.00     0.304 C 
ATOM     15  N   UNL d   1     -48.232  14.583  22.834  0.00  0.00    -0.203 NA
ATOM     16  O   UNL d   1     -47.051  15.283  22.431  0.00  0.00    -0.263 OA
BRANCH  15  17
ATOM     17  C   UNL d   1     -48.687  15.231  22.602  0.00  0.00     0.127 C 
BRANCH  17  18
ATOM     18  C   UNL d   1     -49.493  15.230  22.744  0.00  0.00     0.119 A 
ATOM     19  O   UNL d   1     -50.065  14.829  22.317  0.00  0.00    -0.304 OA
ATOM     20  C   UNL d   1     -50.794  14.981  22.647  0.00  0.00     0.123 A 
ATOM     21  C   UNL d   1     -50.683  15.483  23.290  0.00  0.00     0.029 A 
ATOM     22  C   UNL d   1     -49.872  15.634  23.345  0.00  0.00     0.028 A 
ENDBRANCH  17  18
ENDBRANCH  15  17
ENDBRANCH  13  14
ENDBRANCH  12  13
ENDBRANCH   8  12
BRANCH   2  23
ATOM     23  C   UNL d   1     -42.964  12.436  21.350  0.00  0.00     0.083 C 
BRANCH  23  24
ATOM     24  C   UNL d   1     -42.447  13.056  21.205  0.00  0.00     0.018 A 
ATOM     25  C   UNL d   1     -41.895  13.266  21.789  0.00  0.00     0.002 A 
ATOM     26  C   UNL d   1     -41.378  13.891  21.636  0.00  0.00     0.007 A 
ATOM     27  C   UNL d   1     -41.417  14.292  20.917  0.00  0.00     0.035 A 
ATOM     28  C   UNL d   1     -41.972  14.067  20.351  0.00  0.00     0.007 A 
ATOM     29 BR   UNL d   1     -40.898  14.912  20.775  0.00  0.00    -0.049 Br
ATOM     30  C   UNL d   1     -42.485  13.449  20.499  0.00  0.00     0.002 A 
ENDBRANCH  23  24
ENDBRANCH   2  23
TORSDOF 7
ENDMDL
MODEL 5
REMARK VINA RESULT:      -3.2      3.697      8.311
REMARK  7 active torsions:
REMARK  status: ('A' for Active; 'I' for Inactive)
REMARK    1  A    between atoms: C_7  and  N_2 
REMARK    2  A    between atoms: C_21  and  C_7 
REMARK    3  A    between atoms: C_8  and  C_19 
REMARK       I    between atoms: N_13  and  C_8 
REMARK    4  A    between atoms: C_9  and  C_20 
REMARK    5  A    between atoms: O_14  and  C_11 
REMARK    6  A    between atoms: C_20  and  N_13 
REMARK    7  A    between atoms: C_19  and  O_14 
ROOT
ATOM      1  C   UNL d   1     -48.112  14.474  22.553  0.00  0.00     0.265 A 
ATOM      2  N   UNL d   1     -48.488  13.810  22.230  0.00  0.00    -0.272 N 
ATOM      3  C   UNL d   1     -47.286  14.473  22.612  0.00  0.00     0.059 A 
ATOM      4  C   UNL d   1     -46.848  13.823  22.354  0.00  0.00     0.029 A 
ATOM      5  C   UNL d   1     -47.228  13.169  22.035  0.00  0.00     0.021 A 
ATOM      6  C   UNL d   1     -48.050  13.160  21.971  0.00  0.00     0.083 A 
ATOM      7  O   UNL d   1     -48.546  15.118  22.809  0.00  0.00    -0.267 OA
ATOM      8  C   UNL d   1     -46.024  13.825  22.414  0.00  0.00     0.100 A 
ATOM      9  C   UNL d   1     -46.907  15.135  22.934  0.00  0.00     0.005 A 
ATOM     10  C   UNL d   1     -46.082  15.133  22.993  0.00  0.00     0.002 A 
ATOM     11  C   UNL d   1     -45.642  14.480  22.734  0.00  0.00     0.025 A 
ENDROOT
BRANCH   8  12
ATOM     12  O   UNL d   1     -45.589  13.178  22.157  0.00  0.00    -0.300 OA
BRANCH  12  13
ATOM     13  C   UNL d   1     -44.808  13.089  22.414  0.00  0.00     0.185 C 
BRANCH  13  14
ATOM     14  C   UNL d   1     -44.243  12.754  21.915  0.00  0.00     0.304 C 
ATOM     15  N   UNL d   1     -43.586  13.189  21.671  0.00  0.00    -0.203 NA
ATOM     16  O   UNL d   1     -44.338  11.973  21.656  0.00  0.00    -0.263 OA
BRANCH  15  17
ATOM     17  C   UNL d   1     -43.028  12.843  21.172  0.00  0.00     0.127 C 
BRANCH  17  18
ATOM     18  C   UNL d   1     -42.384  13.281  20.919  0.00  0.00     0.119 A 
ATOM     19  O   UNL d   1     -42.000  13.215  20.199  0.00  0.00    -0.304 OA
ATOM     20  C   UNL d   1     -41.390  13.756  20.175  0.00  0.00     0.123 A 
ATOM     21  C   UNL d   1     -41.389  14.169  20.888  0.00  0.00     0.029 A 
ATOM     22  C   UNL d   1     -42.009  13.869  21.346  0.00  0.00     0.028 A 
ENDBRANCH  17  18
ENDBRANCH  15  17
ENDBRANCH  13  14
ENDBRANCH  12  13
ENDBRANCH   8  12
BRANCH   2  23
ATOM     23  C   UNL d   1     -49.305  13.798  22.165  0.00  0.00     0.083 C 
BRANCH  23  24
ATOM     24  C   UNL d   1     -49.740  13.217  22.550  0.00  0.00     0.018 A 
ATOM     25  C   UNL d   1     -49.852  12.484  22.177  0.00  0.00     0.002 A 
ATOM     26  C   UNL d   1     -50.290  11.906  22.570  0.00  0.00     0.007 A 
ATOM     27  C   UNL d   1     -50.605  12.062  23.316  0.00  0.00     0.035 A 
ATOM     28  C   UNL d   1     -50.481  12.796  23.668  0.00  0.00     0.007 A 
ATOM     29 BR   UNL d   1     -51.039  11.479  23.698  0.00  0.00    -0.049 Br
ATOM     30  C   UNL d   1     -50.048  13.371  23.282  0.00  0.00     0.002 A 
ENDBRANCH  23  24
ENDBRANCH   2  23
TORSDOF 7
ENDMDL
