MODEL 1
REMARK VINA RESULT:      -5.6      0.000      0.000
REMARK  3 active torsions:
REMARK  status: ('A' for Active; 'I' for Inactive)
REMARK    1  A    between atoms: C_2  and  C_1 
REMARK       I    between atoms: N_5  and  C_2 
REMARK    2  A    between atoms: C_10  and  N_5 
REMARK    3  A    between atoms: O_16  and  C_11 
ROOT
ATOM      1  C   UNL d   1      57.448   0.137  31.010  0.00  0.00     0.281 C 
ATOM      2  N   UNL d   1      57.459  -0.226  31.748  0.00  0.00    -0.208 NA
ATOM      3  O   UNL d   1      56.788   0.573  30.774  0.00  0.00    -0.265 OA
ENDROOT
BRANCH   1   4
ATOM      4  C   UNL d   1      58.092   0.072  30.498  0.00  0.00     0.083 A 
ATOM      5  C   UNL d   1      58.157  -0.574  29.984  0.00  0.00     0.009 A 
ATOM      6  C   UNL d   1      58.812  -0.631  29.472  0.00  0.00     0.023 A 
ATOM      7  C   UNL d   1      58.877  -1.273  28.961  0.00  0.00     0.002 A 
ATOM      8  C   UNL d   1      59.401  -0.037  29.478  0.00  0.00     0.100 A 
ATOM      9  C   UNL d   1      59.530  -1.322  28.455  0.00  0.00     0.000 A 
ATOM     10  C   UNL d   1      60.111  -0.736  28.461  0.00  0.00     0.002 A 
ATOM     11  C   UNL d   1      60.044  -0.095  28.972  0.00  0.00     0.025 A 
ATOM     12  O   UNL d   1      59.335   0.604  29.989  0.00  0.00    -0.305 OA
ATOM     13  C   UNL d   1      58.682   0.667  30.504  0.00  0.00     0.127 A 
ENDBRANCH   1   4
BRANCH   2  14
ATOM     14  C   UNL d   1      56.809  -0.156  32.255  0.00  0.00     0.085 A 
ATOM     15  C   UNL d   1      56.652   0.565  32.623  0.00  0.00     0.021 A 
ATOM     16  C   UNL d   1      56.005   0.633  33.126  0.00  0.00     0.026 A 
ATOM     17  C   UNL d   1      55.523  -0.011  33.260  0.00  0.00     0.094 A 
ATOM     18  C   UNL d   1      55.677  -0.736  32.892  0.00  0.00     0.026 A 
ATOM     19  C   UNL d   1      56.329  -0.797  32.387  0.00  0.00     0.021 A 
BRANCH  17  20
ATOM     20  O   UNL d   1      54.870   0.049  33.765  0.00  0.00    -0.328 OA
ATOM     21  C   UNL d   1      54.815   0.663  34.300  0.00  0.00     0.181 C 
ENDBRANCH  17  20
ENDBRANCH   2  14
TORSDOF 3
ENDMDL
MODEL 2
REMARK VINA RESULT:      -4.9      0.954      4.998
REMARK  3 active torsions:
REMARK  status: ('A' for Active; 'I' for Inactive)
REMARK    1  A    between atoms: C_2  and  C_1 
REMARK       I    between atoms: N_5  and  C_2 
REMARK    2  A    between atoms: C_10  and  N_5 
REMARK    3  A    between atoms: O_16  and  C_11 
ROOT
ATOM      1  C   UNL d   1      57.096   0.101  31.812  0.00  0.00     0.281 C 
ATOM      2  N   UNL d   1      57.585   0.667  31.470  0.00  0.00    -0.208 NA
ATOM      3  O   UNL d   1      56.958  -0.615  31.426  0.00  0.00    -0.265 OA
ENDROOT
BRANCH   1   4
ATOM      4  C   UNL d   1      56.737   0.242  32.543  0.00  0.00     0.083 A 
ATOM      5  C   UNL d   1      55.912   0.254  32.610  0.00  0.00     0.009 A 
ATOM      6  C   UNL d   1      55.560   0.397  33.352  0.00  0.00     0.023 A 
ATOM      7  C   UNL d   1      54.740   0.410  33.420  0.00  0.00     0.002 A 
ATOM      8  C   UNL d   1      56.040   0.527  34.025  0.00  0.00     0.100 A 
ATOM      9  C   UNL d   1      54.398   0.552  34.160  0.00  0.00     0.000 A 
ATOM     10  C   UNL d   1      54.871   0.680  34.823  0.00  0.00     0.002 A 
ATOM     11  C   UNL d   1      55.690   0.668  34.754  0.00  0.00     0.025 A 
ATOM     12  O   UNL d   1      56.859   0.515  33.956  0.00  0.00    -0.305 OA
ATOM     13  C   UNL d   1      57.217   0.372  33.216  0.00  0.00     0.127 A 
ENDBRANCH   1   4
BRANCH   2  14
ATOM     14  C   UNL d   1      57.941   0.518  30.738  0.00  0.00     0.085 A 
ATOM     15  C   UNL d   1      57.522   0.661  30.042  0.00  0.00     0.021 A 
ATOM     16  C   UNL d   1      57.877   0.512  29.315  0.00  0.00     0.026 A 
ATOM     17  C   UNL d   1      58.641   0.226  29.285  0.00  0.00     0.094 A 
ATOM     18  C   UNL d   1      59.064   0.081  29.980  0.00  0.00     0.026 A 
ATOM     19  C   UNL d   1      58.700   0.233  30.708  0.00  0.00     0.021 A 
BRANCH  17  20
ATOM     20  O   UNL d   1      59.004   0.074  28.558  0.00  0.00    -0.328 OA
ATOM     21  C   UNL d   1      59.467  -0.590  28.455  0.00  0.00     0.181 C 
ENDBRANCH  17  20
ENDBRANCH   2  14
TORSDOF 3
ENDMDL
MODEL 3
REMARK VINA RESULT:      -3.4      1.058      1.665
REMARK  3 active torsions:
REMARK  status: ('A' for Active; 'I' for Inactive)
REMARK    1  A    between atoms: C_2  and  C_1 
REMARK       I    between atoms: N_5  and  C_2 
REMARK    2  A    between atoms: C_10  and  N_5 
REMARK    3  A    between atoms: O_16  and  C_11 
ROOT
ATOM      1  C   UNL d   1      56.892  -0.395  32.104  0.00  0.00     0.281 C 
ATOM      2  N   UNL d   1      56.516   0.316  32.276  0.00  0.00    -0.208 NA
ATOM      3  O   UNL d   1      56.842  -1.027  32.632  0.00  0.00    -0.265 OA
ENDROOT
BRANCH   1   4
ATOM      4  C   UNL d   1      57.322  -0.486  31.405  0.00  0.00     0.083 A 
ATOM      5  C   UNL d   1      57.758   0.147  31.094  0.00  0.00     0.009 A 
ATOM      6  C   UNL d   1      58.188   0.045  30.388  0.00  0.00     0.023 A 
ATOM      7  C   UNL d   1      58.622   0.672  30.079  0.00  0.00     0.002 A 
ATOM      8  C   UNL d   1      58.179  -0.694  29.995  0.00  0.00     0.100 A 
ATOM      9  C   UNL d   1      59.047   0.563  29.378  0.00  0.00     0.000 A 
ATOM     10  C   UNL d   1      59.038  -0.165  28.990  0.00  0.00     0.002 A 
ATOM     11  C   UNL d   1      58.604  -0.791  29.300  0.00  0.00     0.025 A 
ATOM     12  O   UNL d   1      57.746  -1.320  30.305  0.00  0.00    -0.305 OA
ATOM     13  C   UNL d   1      57.313  -1.224  31.011  0.00  0.00     0.127 A 
ENDBRANCH   1   4
BRANCH   2  14
ATOM     14  C   UNL d   1      56.088   0.399  32.978  0.00  0.00     0.085 A 
ATOM     15  C   UNL d   1      56.479   0.600  33.676  0.00  0.00     0.021 A 
ATOM     16  C   UNL d   1      56.051   0.682  34.373  0.00  0.00     0.026 A 
ATOM     17  C   UNL d   1      55.243   0.565  34.373  0.00  0.00     0.094 A 
ATOM     18  C   UNL d   1      54.847   0.364  33.675  0.00  0.00     0.026 A 
ATOM     19  C   UNL d   1      55.284   0.283  32.978  0.00  0.00     0.021 A 
BRANCH  17  20
ATOM     20  O   UNL d   1      54.806   0.646  35.070  0.00  0.00    -0.328 OA
ATOM     21  C   UNL d   1      55.181   0.676  35.794  0.00  0.00     0.181 C 
ENDBRANCH  17  20
ENDBRANCH   2  14
TORSDOF 3
ENDMDL
