MODEL 1
REMARK VINA RESULT:     -11.2      0.000      0.000
REMARK  1 active torsions:
REMARK  status: ('A' for Active; 'I' for Inactive)
REMARK    1  A    between atoms: C_13  and  N_3 
ROOT
ATOM      1  C   UNL d   1      53.459  32.339  53.662  0.00  0.00     0.166 A 
ATOM      2  C   UNL d   1      52.745  32.352  53.256  0.00  0.00     0.117 A 
ATOM      3  N   UNL d   1      53.661  33.130  53.802  0.00  0.00    -0.289 N 
ATOM      4  C   UNL d   1      52.512  33.119  53.147  0.00  0.00     0.038 A 
ATOM      5  N   UNL d   1      53.835  31.623  53.855  0.00  0.00    -0.225 NA
ATOM      6  C   UNL d   1      53.083  33.605  53.488  0.00  0.00     0.067 A 
ATOM      7  N   UNL d   1      52.416  31.622  53.045  0.00  0.00    -0.241 NA
ATOM      8  C   UNL d   1      53.499  30.921  53.641  0.00  0.00     0.101 A 
ATOM      9  C   UNL d   1      52.779  30.929  53.230  0.00  0.00     0.099 A 
ATOM     10  C   UNL d   1      52.995  34.427  53.463  0.00  0.00     0.018 A 
ATOM     11  C   UNL d   1      51.854  33.457  52.782  0.00  0.00     0.015 A 
ATOM     12  C   UNL d   1      51.762  34.276  52.755  0.00  0.00     0.058 A 
ATOM     13  C   UNL d   1      52.333  34.761  53.096  0.00  0.00     0.013 A 
ATOM     14 CL   UNL d   1      51.104  34.614  52.390  0.00  0.00    -0.082 Cl
ATOM     15  C   UNL d   1      53.857  30.221  53.824  0.00  0.00     0.021 A 
ATOM     16  C   UNL d   1      52.436  30.220  53.013  0.00  0.00     0.021 A 
ATOM     17  C   UNL d   1      53.493  29.500  53.593  0.00  0.00     0.002 A 
ATOM     18  C   UNL d   1      52.792  29.487  53.193  0.00  0.00     0.002 A 
ENDROOT
BRANCH   3  19
ATOM     19  C   UNL d   1      54.324  33.381  54.189  0.00  0.00     0.082 C 
ATOM     20  C   UNL d   1      54.283  33.485  55.027  0.00  0.00     0.021 C 
ENDBRANCH   3  19
TORSDOF 1
ENDMDL
MODEL 2
REMARK VINA RESULT:     -10.7      1.294      2.165
REMARK  1 active torsions:
REMARK  status: ('A' for Active; 'I' for Inactive)
REMARK    1  A    between atoms: C_13  and  N_3 
ROOT
ATOM      1  C   UNL d   1      52.989  32.328  53.432  0.00  0.00     0.166 A 
ATOM      2  C   UNL d   1      53.592  32.170  53.966  0.00  0.00     0.117 A 
ATOM      3  N   UNL d   1      52.900  33.153  53.419  0.00  0.00    -0.289 N 
ATOM      4  C   UNL d   1      53.868  32.866  54.274  0.00  0.00     0.038 A 
ATOM      5  N   UNL d   1      52.598  31.718  53.026  0.00  0.00    -0.225 NA
ATOM      6  C   UNL d   1      53.436  33.479  53.933  0.00  0.00     0.067 A 
ATOM      7  N   UNL d   1      53.795  31.376  54.084  0.00  0.00    -0.241 NA
ATOM      8  C   UNL d   1      52.810  30.950  53.154  0.00  0.00     0.101 A 
ATOM      9  C   UNL d   1      53.418  30.784  53.692  0.00  0.00     0.099 A 
ATOM     10  C   UNL d   1      53.595  34.264  54.143  0.00  0.00     0.018 A 
ATOM     11  C   UNL d   1      54.458  33.040  54.824  0.00  0.00     0.015 A 
ATOM     12  C   UNL d   1      54.619  33.819  55.035  0.00  0.00     0.058 A 
ATOM     13  C   UNL d   1      54.188  34.432  54.694  0.00  0.00     0.013 A 
ATOM     14 CL   UNL d   1      55.209  33.993  55.585  0.00  0.00    -0.082 Cl
ATOM     15  C   UNL d   1      52.435  30.349  52.764  0.00  0.00     0.021 A 
ATOM     16  C   UNL d   1      53.634  30.007  53.824  0.00  0.00     0.021 A 
ATOM     17  C   UNL d   1      52.668  29.556  52.910  0.00  0.00     0.002 A 
ATOM     18  C   UNL d   1      53.259  29.375  53.431  0.00  0.00     0.002 A 
ENDROOT
BRANCH   3  19
ATOM     19  C   UNL d   1      52.366  33.557  52.968  0.00  0.00     0.082 C 
ATOM     20  C   UNL d   1      51.610  33.731  53.304  0.00  0.00     0.021 C 
ENDBRANCH   3  19
TORSDOF 1
ENDMDL
MODEL 3
REMARK VINA RESULT:     -10.6      1.439      3.383
REMARK  1 active torsions:
REMARK  status: ('A' for Active; 'I' for Inactive)
REMARK    1  A    between atoms: C_13  and  N_3 
ROOT
ATOM      1  C   UNL d   1      53.035  32.859  53.408  0.00  0.00     0.166 A 
ATOM      2  C   UNL d   1      52.488  32.277  53.221  0.00  0.00     0.117 A 
ATOM      3  N   UNL d   1      53.741  32.464  53.588  0.00  0.00    -0.289 N 
ATOM      4  C   UNL d   1      52.837  31.549  53.282  0.00  0.00     0.038 A 
ATOM      5  N   UNL d   1      52.834  33.665  53.393  0.00  0.00    -0.225 NA
ATOM      6  C   UNL d   1      53.619  31.666  53.511  0.00  0.00     0.067 A 
ATOM      7  N   UNL d   1      51.725  32.526  53.016  0.00  0.00    -0.241 NA
ATOM      8  C   UNL d   1      52.085  33.889  53.191  0.00  0.00     0.101 A 
ATOM      9  C   UNL d   1      51.528  33.305  53.001  0.00  0.00     0.099 A 
ATOM     10  C   UNL d   1      54.120  31.016  53.620  0.00  0.00     0.018 A 
ATOM     11  C   UNL d   1      52.558  30.783  53.162  0.00  0.00     0.015 A 
ATOM     12  C   UNL d   1      53.053  30.133  53.269  0.00  0.00     0.058 A 
ATOM     13  C   UNL d   1      53.835  30.250  53.498  0.00  0.00     0.013 A 
ATOM     14 CL   UNL d   1      52.773  29.366  53.148  0.00  0.00    -0.082 Cl
ATOM     15  C   UNL d   1      51.879  34.670  53.174  0.00  0.00     0.021 A 
ATOM     16  C   UNL d   1      50.769  33.528  52.796  0.00  0.00     0.021 A 
ATOM     17  C   UNL d   1      51.096  34.884  52.961  0.00  0.00     0.002 A 
ATOM     18  C   UNL d   1      50.539  34.330  52.773  0.00  0.00     0.002 A 
ENDROOT
BRANCH   3  19
ATOM     19  C   UNL d   1      54.433  32.821  53.805  0.00  0.00     0.082 C 
ATOM     20  C   UNL d   1      54.558  32.986  54.624  0.00  0.00     0.021 C 
ENDBRANCH   3  19
TORSDOF 1
ENDMDL
MODEL 4
REMARK VINA RESULT:      -9.9      1.632      3.674
REMARK  1 active torsions:
REMARK  status: ('A' for Active; 'I' for Inactive)
REMARK    1  A    between atoms: C_13  and  N_3 
ROOT
ATOM      1  C   UNL d   1      53.189  32.635  53.644  0.00  0.00     0.166 A 
ATOM      2  C   UNL d   1      53.616  32.050  54.031  0.00  0.00     0.117 A 
ATOM      3  N   UNL d   1      52.673  32.243  53.127  0.00  0.00    -0.289 N 
ATOM      4  C   UNL d   1      53.376  31.323  53.766  0.00  0.00     0.038 A 
ATOM      5  N   UNL d   1      53.316  33.441  53.803  0.00  0.00    -0.225 NA
ATOM      6  C   UNL d   1      52.789  31.444  53.203  0.00  0.00     0.067 A 
ATOM      7  N   UNL d   1      54.179  32.296  54.587  0.00  0.00    -0.241 NA
ATOM      8  C   UNL d   1      53.869  33.661  54.348  0.00  0.00     0.101 A 
ATOM      9  C   UNL d   1      54.303  33.075  54.742  0.00  0.00     0.099 A 
ATOM     10  C   UNL d   1      52.433  30.796  52.830  0.00  0.00     0.018 A 
ATOM     11  C   UNL d   1      53.608  30.555  53.956  0.00  0.00     0.015 A 
ATOM     12  C   UNL d   1      53.257  29.907  53.588  0.00  0.00     0.058 A 
ATOM     13  C   UNL d   1      52.670  30.027  53.024  0.00  0.00     0.013 A 
ATOM     14 CL   UNL d   1      53.489  29.138  53.777  0.00  0.00    -0.082 Cl
ATOM     15  C   UNL d   1      53.999  34.442  54.509  0.00  0.00     0.021 A 
ATOM     16  C   UNL d   1      54.863  33.295  55.294  0.00  0.00     0.021 A 
ATOM     17  C   UNL d   1      54.578  34.653  55.080  0.00  0.00     0.002 A 
ATOM     18  C   UNL d   1      55.011  34.096  55.473  0.00  0.00     0.002 A 
ENDROOT
BRANCH   3  19
ATOM     19  C   UNL d   1      52.146  32.604  52.633  0.00  0.00     0.082 C 
ATOM     20  C   UNL d   1      51.388  32.813  52.942  0.00  0.00     0.021 C 
ENDBRANCH   3  19
TORSDOF 1
ENDMDL
MODEL 5
REMARK VINA RESULT:      -9.7      1.502      3.508
REMARK  1 active torsions:
REMARK  status: ('A' for Active; 'I' for Inactive)
REMARK    1  A    between atoms: C_13  and  N_3 
ROOT
ATOM      1  C   UNL d   1      52.461  32.907  53.144  0.00  0.00     0.166 A 
ATOM      2  C   UNL d   1      52.665  33.520  53.651  0.00  0.00     0.117 A 
ATOM      3  N   UNL d   1      53.083  32.360  53.178  0.00  0.00    -0.289 N 
ATOM      4  C   UNL d   1      53.384  33.362  53.987  0.00  0.00     0.038 A 
ATOM      5  N   UNL d   1      51.747  32.916  52.718  0.00  0.00    -0.225 NA
ATOM      6  C   UNL d   1      53.645  32.639  53.692  0.00  0.00     0.067 A 
ATOM      7  N   UNL d   1      52.130  34.148  53.720  0.00  0.00    -0.241 NA
ATOM      8  C   UNL d   1      51.238  33.537  52.799  0.00  0.00     0.101 A 
ATOM      9  C   UNL d   1      51.439  34.158  53.309  0.00  0.00     0.099 A 
ATOM     10  C   UNL d   1      54.372  32.330  53.938  0.00  0.00     0.018 A 
ATOM     11  C   UNL d   1      53.851  33.775  54.527  0.00  0.00     0.015 A 
ATOM     12  C   UNL d   1      54.576  33.471  54.775  0.00  0.00     0.058 A 
ATOM     13  C   UNL d   1      54.837  32.748  54.480  0.00  0.00     0.013 A 
ATOM     14 CL   UNL d   1      55.043  33.883  55.315  0.00  0.00    -0.082 Cl
ATOM     15  C   UNL d   1      50.542  33.554  52.389  0.00  0.00     0.021 A 
ATOM     16  C   UNL d   1      50.926  34.788  53.393  0.00  0.00     0.021 A 
ATOM     17  C   UNL d   1      50.024  34.208  52.486  0.00  0.00     0.002 A 
ATOM     18  C   UNL d   1      50.203  34.823  52.978  0.00  0.00     0.002 A 
ENDROOT
BRANCH   3  19
ATOM     19  C   UNL d   1      53.118  31.667  52.765  0.00  0.00     0.082 C 
ATOM     20  C   UNL d   1      52.836  30.964  53.140  0.00  0.00     0.021 C 
ENDBRANCH   3  19
TORSDOF 1
ENDMDL
MODEL 6
REMARK VINA RESULT:      -9.1      1.081      2.846
REMARK  1 active torsions:
REMARK  status: ('A' for Active; 'I' for Inactive)
REMARK    1  A    between atoms: C_13  and  N_3 
ROOT
ATOM      1  C   UNL d   1      52.990  32.992  53.542  0.00  0.00     0.166 A 
ATOM      2  C   UNL d   1      52.621  33.691  53.762  0.00  0.00     0.117 A 
ATOM      3  N   UNL d   1      52.478  32.617  53.008  0.00  0.00    -0.289 N 
ATOM      4  C   UNL d   1      51.909  33.751  53.382  0.00  0.00     0.038 A 
ATOM      5  N   UNL d   1      53.733  32.779  53.846  0.00  0.00    -0.225 NA
ATOM      6  C   UNL d   1      51.820  33.081  52.912  0.00  0.00     0.067 A 
ATOM      7  N   UNL d   1      53.020  34.177  54.300  0.00  0.00    -0.241 NA
ATOM      8  C   UNL d   1      54.108  33.266  54.370  0.00  0.00     0.101 A 
ATOM      9  C   UNL d   1      53.740  33.974  54.595  0.00  0.00     0.099 A 
ATOM     10  C   UNL d   1      51.138  32.985  52.452  0.00  0.00     0.018 A 
ATOM     11  C   UNL d   1      51.316  34.324  53.391  0.00  0.00     0.015 A 
ATOM     12  C   UNL d   1      50.635  34.233  52.935  0.00  0.00     0.058 A 
ATOM     13  C   UNL d   1      50.546  33.563  52.465  0.00  0.00     0.013 A 
ATOM     14 CL   UNL d   1      50.042  34.807  52.945  0.00  0.00    -0.082 Cl
ATOM     15  C   UNL d   1      54.831  33.068  54.670  0.00  0.00     0.021 A 
ATOM     16  C   UNL d   1      54.117  34.469  55.125  0.00  0.00     0.021 A 
ATOM     17  C   UNL d   1      55.206  33.587  55.214  0.00  0.00     0.002 A 
ATOM     18  C   UNL d   1      54.864  34.281  55.446  0.00  0.00     0.002 A 
ENDROOT
BRANCH   3  19
ATOM     19  C   UNL d   1      52.618  31.907  52.648  0.00  0.00     0.082 C 
ATOM     20  C   UNL d   1      52.392  31.202  53.055  0.00  0.00     0.021 C 
ENDBRANCH   3  19
TORSDOF 1
ENDMDL
