MODEL 1
REMARK VINA RESULT:      -8.9      0.000      0.000
REMARK  5 active torsions:
REMARK  status: ('A' for Active; 'I' for Inactive)
REMARK    1  A    between atoms: N_2  and  S_1 
REMARK    2  A    between atoms: C_4  and  S_1 
REMARK    3  A    between atoms: S_8  and  C_3 
REMARK    4  A    between atoms: C_18  and  S_8 
REMARK    5  A    between atoms: C_17  and  C_18 
ROOT
ATOM      1  N   UNL d   1      54.123  33.111  54.086  0.00  0.00    -0.208 N 
ATOM      2  C   UNL d   1      54.250  32.362  53.748  0.00  0.00     0.189 A 
ATOM      3  N   UNL d   1      54.839  32.437  53.171  0.00  0.00    -0.219 NA
ATOM      4  C   UNL d   1      54.637  33.649  53.715  0.00  0.00     0.114 A 
ATOM      5  C   UNL d   1      55.075  33.232  53.154  0.00  0.00     0.121 A 
ENDROOT
BRANCH   1   6
ATOM      6  S   UNL d   1      53.579  33.284  54.687  0.00  0.00     0.273 S 
ATOM      7  O   UNL d   1      53.208  33.334  55.425  0.00  0.00    -0.200 OA
ATOM      8  O   UNL d   1      54.082  32.900  55.205  0.00  0.00    -0.200 OA
BRANCH   6   9
ATOM      9  C   UNL d   1      53.058  33.676  54.179  0.00  0.00     0.104 A 
ATOM     10  C   UNL d   1      52.333  33.330  54.003  0.00  0.00     0.013 A 
ATOM     11  C   UNL d   1      51.814  33.724  53.494  0.00  0.00     0.001 A 
ATOM     12  C   UNL d   1      51.087  33.379  53.316  0.00  0.00     0.000 A 
ATOM     13  C   UNL d   1      52.021  34.452  53.168  0.00  0.00     0.000 A 
ATOM     14  C   UNL d   1      50.561  33.764  52.810  0.00  0.00     0.000 A 
ATOM     15  C   UNL d   1      50.767  34.497  52.480  0.00  0.00     0.000 A 
ATOM     16  C   UNL d   1      51.493  34.838  52.660  0.00  0.00     0.000 A 
ATOM     17  C   UNL d   1      52.749  34.797  53.346  0.00  0.00     0.001 A 
ATOM     18  C   UNL d   1      53.274  34.401  53.860  0.00  0.00     0.013 A 
ENDBRANCH   6   9
ENDBRANCH   1   6
BRANCH   2  19
ATOM     19  S   UNL d   1      53.854  31.661  53.954  0.00  0.00    -0.049 SA
BRANCH  19  20
ATOM     20  C   UNL d   1      54.039  30.957  53.565  0.00  0.00     0.040 C 
BRANCH  20  21
ATOM     21  C   UNL d   1      53.528  30.314  53.619  0.00  0.00     0.026 A 
ATOM     22  C   UNL d   1      53.608  29.767  54.252  0.00  0.00     0.099 A 
ATOM     23  N   UNL d   1      53.107  29.121  54.320  0.00  0.00    -0.242 NA
ATOM     24  C   UNL d   1      52.518  29.018  53.752  0.00  0.00     0.099 A 
ATOM     25  C   UNL d   1      52.435  29.550  53.130  0.00  0.00     0.021 A 
ATOM     26  C   UNL d   1      52.941  30.198  53.066  0.00  0.00     0.004 A 
ENDBRANCH  20  21
ENDBRANCH  19  20
ENDBRANCH   2  19
TORSDOF 5
ENDMDL
MODEL 2
REMARK VINA RESULT:      -8.2      1.333      3.851
REMARK  5 active torsions:
REMARK  status: ('A' for Active; 'I' for Inactive)
REMARK    1  A    between atoms: N_2  and  S_1 
REMARK    2  A    between atoms: C_4  and  S_1 
REMARK    3  A    between atoms: S_8  and  C_3 
REMARK    4  A    between atoms: C_18  and  S_8 
REMARK    5  A    between atoms: C_17  and  C_18 
ROOT
ATOM      1  N   UNL d   1      53.842  33.284  54.170  0.00  0.00    -0.208 N 
ATOM      2  C   UNL d   1      53.154  33.748  54.115  0.00  0.00     0.189 A 
ATOM      3  N   UNL d   1      52.946  33.993  54.878  0.00  0.00    -0.219 NA
ATOM      4  C   UNL d   1      54.058  33.243  54.972  0.00  0.00     0.114 A 
ATOM      5  C   UNL d   1      53.506  33.679  55.403  0.00  0.00     0.121 A 
ENDROOT
BRANCH   1   6
ATOM      6  S   UNL d   1      54.238  32.927  53.535  0.00  0.00     0.273 S 
ATOM      7  O   UNL d   1      54.703  32.811  52.861  0.00  0.00    -0.200 OA
ATOM      8  O   UNL d   1      54.507  33.672  53.332  0.00  0.00    -0.200 OA
BRANCH   6   9
ATOM      9  C   UNL d   1      53.975  32.167  53.726  0.00  0.00     0.104 A 
ATOM     10  C   UNL d   1      53.552  31.737  53.167  0.00  0.00     0.013 A 
ATOM     11  C   UNL d   1      53.290  30.978  53.361  0.00  0.00     0.001 A 
ATOM     12  C   UNL d   1      52.865  30.545  52.802  0.00  0.00     0.000 A 
ATOM     13  C   UNL d   1      53.452  30.656  54.102  0.00  0.00     0.000 A 
ATOM     14  C   UNL d   1      52.599  29.785  52.984  0.00  0.00     0.000 A 
ATOM     15  C   UNL d   1      52.761  29.460  53.730  0.00  0.00     0.000 A 
ATOM     16  C   UNL d   1      53.184  29.893  54.284  0.00  0.00     0.000 A 
ATOM     17  C   UNL d   1      53.877  31.089  54.661  0.00  0.00     0.001 A 
ATOM     18  C   UNL d   1      54.142  31.857  54.467  0.00  0.00     0.013 A 
ENDBRANCH   6   9
ENDBRANCH   1   6
BRANCH   2  19
ATOM     19  S   UNL d   1      52.747  33.933  53.414  0.00  0.00    -0.049 SA
BRANCH  19  20
ATOM     20  C   UNL d   1      52.102  34.447  53.439  0.00  0.00     0.040 C 
BRANCH  20  21
ATOM     21  C   UNL d   1      51.490  34.360  52.896  0.00  0.00     0.026 A 
ATOM     22  C   UNL d   1      51.650  34.411  52.073  0.00  0.00     0.099 A 
ATOM     23  N   UNL d   1      51.051  34.327  51.518  0.00  0.00    -0.242 NA
ATOM     24  C   UNL d   1      50.283  34.191  51.785  0.00  0.00     0.099 A 
ATOM     25  C   UNL d   1      50.120  34.140  52.590  0.00  0.00     0.021 A 
ATOM     26  C   UNL d   1      50.724  34.225  53.144  0.00  0.00     0.004 A 
ENDBRANCH  20  21
ENDBRANCH  19  20
ENDBRANCH   2  19
TORSDOF 5
ENDMDL
MODEL 3
REMARK VINA RESULT:      -7.5      2.485      4.773
REMARK  5 active torsions:
REMARK  status: ('A' for Active; 'I' for Inactive)
REMARK    1  A    between atoms: N_2  and  S_1 
REMARK    2  A    between atoms: C_4  and  S_1 
REMARK    3  A    between atoms: S_8  and  C_3 
REMARK    4  A    between atoms: C_18  and  S_8 
REMARK    5  A    between atoms: C_17  and  C_18 
ROOT
ATOM      1  N   UNL d   1      51.630  33.673  52.869  0.00  0.00    -0.208 N 
ATOM      2  C   UNL d   1      50.807  33.719  52.981  0.00  0.00     0.189 A 
ATOM      3  N   UNL d   1      50.540  32.978  53.236  0.00  0.00    -0.219 NA
ATOM      4  C   UNL d   1      51.870  32.900  53.057  0.00  0.00     0.114 A 
ATOM      5  C   UNL d   1      51.198  32.476  53.282  0.00  0.00     0.121 A 
ENDROOT
BRANCH   1   6
ATOM      6  S   UNL d   1      52.119  34.292  52.615  0.00  0.00     0.273 S 
ATOM      7  O   UNL d   1      52.444  34.907  52.168  0.00  0.00    -0.200 OA
ATOM      8  O   UNL d   1      51.639  34.353  51.955  0.00  0.00    -0.200 OA
BRANCH   6   9
ATOM      9  C   UNL d   1      52.615  34.245  53.275  0.00  0.00     0.104 A 
ATOM     10  C   UNL d   1      53.269  33.747  53.250  0.00  0.00     0.013 A 
ATOM     11  C   UNL d   1      53.763  33.702  53.911  0.00  0.00     0.001 A 
ATOM     12  C   UNL d   1      54.420  33.203  53.888  0.00  0.00     0.000 A 
ATOM     13  C   UNL d   1      53.602  34.149  54.584  0.00  0.00     0.000 A 
ATOM     14  C   UNL d   1      54.919  33.150  54.542  0.00  0.00     0.000 A 
ATOM     15  C   UNL d   1      54.759  33.599  55.222  0.00  0.00     0.000 A 
ATOM     16  C   UNL d   1      54.105  34.095  55.241  0.00  0.00     0.000 A 
ATOM     17  C   UNL d   1      52.945  34.647  54.607  0.00  0.00     0.001 A 
ATOM     18  C   UNL d   1      52.445  34.694  53.940  0.00  0.00     0.013 A 
ENDBRANCH   6   9
ENDBRANCH   1   6
BRANCH   2  19
ATOM     19  S   UNL d   1      50.336  34.393  52.857  0.00  0.00    -0.049 SA
BRANCH  19  20
ATOM     20  C   UNL d   1      49.516  34.340  52.941  0.00  0.00     0.040 C 
BRANCH  20  21
ATOM     21  C   UNL d   1      49.052  35.012  52.841  0.00  0.00     0.026 A 
ATOM     22  C   UNL d   1      48.953  35.552  53.476  0.00  0.00     0.099 A 
ATOM     23  N   UNL d   1      48.493  36.226  53.392  0.00  0.00    -0.242 NA
ATOM     24  C   UNL d   1      48.127  36.366  52.667  0.00  0.00     0.099 A 
ATOM     25  C   UNL d   1      48.220  35.840  52.040  0.00  0.00     0.021 A 
ATOM     26  C   UNL d   1      48.683  35.164  52.129  0.00  0.00     0.004 A 
ENDBRANCH  20  21
ENDBRANCH  19  20
ENDBRANCH   2  19
TORSDOF 5
ENDMDL
MODEL 4
REMARK VINA RESULT:      -6.8      1.448      2.174
REMARK  5 active torsions:
REMARK  status: ('A' for Active; 'I' for Inactive)
REMARK    1  A    between atoms: N_2  and  S_1 
REMARK    2  A    between atoms: C_4  and  S_1 
REMARK    3  A    between atoms: S_8  and  C_3 
REMARK    4  A    between atoms: C_18  and  S_8 
REMARK    5  A    between atoms: C_17  and  C_18 
ROOT
ATOM      1  N   UNL d   1      53.335  32.336  53.105  0.00  0.00    -0.208 N 
ATOM      2  C   UNL d   1      52.973  31.592  53.187  0.00  0.00     0.189 A 
ATOM      3  N   UNL d   1      52.214  31.637  52.859  0.00  0.00    -0.219 NA
ATOM      4  C   UNL d   1      52.796  32.841  52.723  0.00  0.00     0.114 A 
ATOM      5  C   UNL d   1      52.109  32.408  52.575  0.00  0.00     0.121 A 
ENDROOT
BRANCH   1   6
ATOM      6  S   UNL d   1      54.099  32.534  53.359  0.00  0.00     0.273 S 
ATOM      7  O   UNL d   1      54.921  32.543  53.453  0.00  0.00    -0.200 OA
ATOM      8  O   UNL d   1      54.377  31.941  52.867  0.00  0.00    -0.200 OA
BRANCH   6   9
ATOM      9  C   UNL d   1      53.836  33.136  53.860  0.00  0.00     0.104 A 
ATOM     10  C   UNL d   1      53.698  33.885  53.549  0.00  0.00     0.013 A 
ATOM     11  C   UNL d   1      53.435  34.485  54.053  0.00  0.00     0.001 A 
ATOM     12  C   UNL d   1      53.296  35.237  53.743  0.00  0.00     0.000 A 
ATOM     13  C   UNL d   1      53.314  34.335  54.854  0.00  0.00     0.000 A 
ATOM     14  C   UNL d   1      53.034  35.843  54.237  0.00  0.00     0.000 A 
ATOM     15  C   UNL d   1      52.911  35.695  55.044  0.00  0.00     0.000 A 
ATOM     16  C   UNL d   1      53.051  34.945  55.349  0.00  0.00     0.000 A 
ATOM     17  C   UNL d   1      53.454  33.584  55.164  0.00  0.00     0.001 A 
ATOM     18  C   UNL d   1      53.719  32.976  54.656  0.00  0.00     0.013 A 
ENDBRANCH   6   9
ENDBRANCH   1   6
BRANCH   2  19
ATOM     19  S   UNL d   1      53.315  30.921  53.539  0.00  0.00    -0.049 SA
BRANCH  19  20
ATOM     20  C   UNL d   1      52.910  30.202  53.527  0.00  0.00     0.040 C 
BRANCH  20  21
ATOM     21  C   UNL d   1      53.138  29.597  54.036  0.00  0.00     0.026 A 
ATOM     22  C   UNL d   1      52.788  29.535  54.797  0.00  0.00     0.099 A 
ATOM     23  N   UNL d   1      53.005  28.938  55.317  0.00  0.00    -0.242 NA
ATOM     24  C   UNL d   1      53.576  28.394  55.076  0.00  0.00     0.099 A 
ATOM     25  C   UNL d   1      53.922  28.449  54.332  0.00  0.00     0.021 A 
ATOM     26  C   UNL d   1      53.702  29.051  53.813  0.00  0.00     0.004 A 
ENDBRANCH  20  21
ENDBRANCH  19  20
ENDBRANCH   2  19
TORSDOF 5
ENDMDL
MODEL 5
REMARK VINA RESULT:      -6.1      1.630      4.493
REMARK  5 active torsions:
REMARK  status: ('A' for Active; 'I' for Inactive)
REMARK    1  A    between atoms: N_2  and  S_1 
REMARK    2  A    between atoms: C_4  and  S_1 
REMARK    3  A    between atoms: S_8  and  C_3 
REMARK    4  A    between atoms: C_18  and  S_8 
REMARK    5  A    between atoms: C_17  and  C_18 
ROOT
ATOM      1  N   UNL d   1      52.902  32.007  53.054  0.00  0.00    -0.208 N 
ATOM      2  C   UNL d   1      52.511  32.684  53.334  0.00  0.00     0.189 A 
ATOM      3  N   UNL d   1      51.717  32.637  53.106  0.00  0.00    -0.219 NA
ATOM      4  C   UNL d   1      52.345  31.540  52.650  0.00  0.00     0.114 A 
ATOM      5  C   UNL d   1      51.618  31.930  52.684  0.00  0.00     0.121 A 
ENDROOT
BRANCH   1   6
ATOM      6  S   UNL d   1      53.705  31.832  53.160  0.00  0.00     0.273 S 
ATOM      7  O   UNL d   1      54.529  31.896  53.185  0.00  0.00    -0.200 OA
ATOM      8  O   UNL d   1      53.867  32.593  52.909  0.00  0.00    -0.200 OA
BRANCH   6   9
ATOM      9  C   UNL d   1      53.560  31.059  53.416  0.00  0.00     0.104 A 
ATOM     10  C   UNL d   1      53.589  30.891  54.220  0.00  0.00     0.013 A 
ATOM     11  C   UNL d   1      53.443  30.118  54.473  0.00  0.00     0.001 A 
ATOM     12  C   UNL d   1      53.472  29.947  55.280  0.00  0.00     0.000 A 
ATOM     13  C   UNL d   1      53.273  29.525  53.927  0.00  0.00     0.000 A 
ATOM     14  C   UNL d   1      53.328  29.179  55.543  0.00  0.00     0.000 A 
ATOM     15  C   UNL d   1      53.156  28.580  54.995  0.00  0.00     0.000 A 
ATOM     16  C   UNL d   1      53.128  28.753  54.193  0.00  0.00     0.000 A 
ATOM     17  C   UNL d   1      53.244  29.696  53.121  0.00  0.00     0.001 A 
ATOM     18  C   UNL d   1      53.391  30.477  52.863  0.00  0.00     0.013 A 
ENDBRANCH   6   9
ENDBRANCH   1   6
BRANCH   2  19
ATOM     19  S   UNL d   1      52.859  33.301  53.769  0.00  0.00    -0.049 SA
BRANCH  19  20
ATOM     20  C   UNL d   1      52.389  33.919  54.051  0.00  0.00     0.040 C 
BRANCH  20  21
ATOM     21  C   UNL d   1      52.744  34.587  54.374  0.00  0.00     0.026 A 
ATOM     22  C   UNL d   1      53.074  34.555  55.146  0.00  0.00     0.099 A 
ATOM     23  N   UNL d   1      53.431  35.212  55.483  0.00  0.00    -0.242 NA
ATOM     24  C   UNL d   1      53.461  35.911  55.047  0.00  0.00     0.099 A 
ATOM     25  C   UNL d   1      53.140  35.949  54.290  0.00  0.00     0.021 A 
ATOM     26  C   UNL d   1      52.782  35.286  53.956  0.00  0.00     0.004 A 
ENDBRANCH  20  21
ENDBRANCH  19  20
ENDBRANCH   2  19
TORSDOF 5
ENDMDL
MODEL 6
REMARK VINA RESULT:      -5.9      1.679      2.791
REMARK  5 active torsions:
REMARK  status: ('A' for Active; 'I' for Inactive)
REMARK    1  A    between atoms: N_2  and  S_1 
REMARK    2  A    between atoms: C_4  and  S_1 
REMARK    3  A    between atoms: S_8  and  C_3 
REMARK    4  A    between atoms: C_18  and  S_8 
REMARK    5  A    between atoms: C_17  and  C_18 
ROOT
ATOM      1  N   UNL d   1      51.946  33.529  53.017  0.00  0.00    -0.208 N 
ATOM      2  C   UNL d   1      51.728  32.736  53.138  0.00  0.00     0.189 A 
ATOM      3  N   UNL d   1      50.992  32.725  53.518  0.00  0.00    -0.219 NA
ATOM      4  C   UNL d   1      51.340  34.009  53.325  0.00  0.00     0.114 A 
ATOM      5  C   UNL d   1      50.757  33.512  53.631  0.00  0.00     0.121 A 
ENDROOT
BRANCH   1   6
ATOM      6  S   UNL d   1      52.644  33.790  52.654  0.00  0.00     0.273 S 
ATOM      7  O   UNL d   1      53.213  33.978  52.085  0.00  0.00    -0.200 OA
ATOM      8  O   UNL d   1      52.305  33.585  51.938  0.00  0.00    -0.200 OA
BRANCH   6   9
ATOM      9  C   UNL d   1      53.001  34.002  53.369  0.00  0.00     0.104 A 
ATOM     10  C   UNL d   1      53.627  33.552  53.653  0.00  0.00     0.013 A 
ATOM     11  C   UNL d   1      53.983  33.767  54.368  0.00  0.00     0.001 A 
ATOM     12  C   UNL d   1      54.611  33.316  54.656  0.00  0.00     0.000 A 
ATOM     13  C   UNL d   1      53.714  34.423  54.788  0.00  0.00     0.000 A 
ATOM     14  C   UNL d   1      54.973  33.522  55.367  0.00  0.00     0.000 A 
ATOM     15  C   UNL d   1      54.704  34.182  55.792  0.00  0.00     0.000 A 
ATOM     16  C   UNL d   1      54.078  34.628  55.503  0.00  0.00     0.000 A 
ATOM     17  C   UNL d   1      53.086  34.873  54.500  0.00  0.00     0.001 A 
ATOM     18  C   UNL d   1      52.725  34.657  53.778  0.00  0.00     0.013 A 
ENDBRANCH   6   9
ENDBRANCH   1   6
BRANCH   2  19
ATOM     19  S   UNL d   1      52.173  32.070  52.916  0.00  0.00    -0.049 SA
BRANCH  19  20
ATOM     20  C   UNL d   1      51.857  31.314  53.018  0.00  0.00     0.040 C 
BRANCH  20  21
ATOM     21  C   UNL d   1      52.359  30.678  53.163  0.00  0.00     0.026 A 
ATOM     22  C   UNL d   1      52.210  30.166  53.812  0.00  0.00     0.099 A 
ATOM     23  N   UNL d   1      52.701  29.527  53.970  0.00  0.00    -0.242 NA
ATOM     24  C   UNL d   1      53.348  29.397  53.476  0.00  0.00     0.099 A 
ATOM     25  C   UNL d   1      53.499  29.895  52.839  0.00  0.00     0.021 A 
ATOM     26  C   UNL d   1      53.004  30.535  52.684  0.00  0.00     0.004 A 
ENDBRANCH  20  21
ENDBRANCH  19  20
ENDBRANCH   2  19
TORSDOF 5
ENDMDL
