MODEL 1
REMARK VINA RESULT:     -10.1      0.000      0.000
REMARK  1 active torsions:
REMARK  status: ('A' for Active; 'I' for Inactive)
REMARK       I    between atoms: N_2  and  C_1 
REMARK       I    between atoms: N_3  and  C_1 
REMARK    1  A    between atoms: C_4  and  N_2 
ROOT
ATOM      1  C   UNL d   1      53.682  32.979  54.168  0.00  0.00     0.086 A 
ATOM      2  C   UNL d   1      53.281  33.686  54.010  0.00  0.00     0.018 A 
ATOM      3  C   UNL d   1      53.518  34.388  54.370  0.00  0.00     0.002 A 
ATOM      4  C   UNL d   1      54.322  32.972  54.685  0.00  0.00     0.019 A 
ATOM      5  C   UNL d   1      54.560  33.673  55.045  0.00  0.00     0.002 A 
ATOM      6  C   UNL d   1      52.634  33.690  53.487  0.00  0.00     0.002 A 
ATOM      7  C   UNL d   1      54.159  34.380  54.887  0.00  0.00     0.000 A 
ATOM      8  C   UNL d   1      53.108  35.083  54.202  0.00  0.00     0.000 A 
ATOM      9  C   UNL d   1      52.235  34.394  53.330  0.00  0.00     0.000 A 
ATOM     10  C   UNL d   1      52.468  35.089  53.685  0.00  0.00     0.000 A 
ENDROOT
BRANCH   1  11
ATOM     11  N   UNL d   1      53.450  32.267  53.810  0.00  0.00    -0.192 NA
ATOM     12  C   UNL d   1      53.523  31.545  54.210  0.00  0.00     0.354 C 
ATOM     13  N   UNL d   1      53.288  30.856  53.837  0.00  0.00    -0.252 N 
ATOM     14  O   UNL d   1      53.836  31.532  54.989  0.00  0.00    -0.244 OA
ATOM     15  C   UNL d   1      53.362  30.119  54.245  0.00  0.00     0.111 A 
ATOM     16  C   UNL d   1      52.982  30.891  53.069  0.00  0.00     0.111 A 
ATOM     17  C   UNL d   1      53.118  29.422  53.854  0.00  0.00     0.142 A 
ATOM     18  O   UNL d   1      52.803  29.460  53.061  0.00  0.00    -0.300 OA
ATOM     19  C   UNL d   1      52.739  30.182  52.681  0.00  0.00     0.142 A 
ENDBRANCH   1  11
TORSDOF 1
ENDMDL
MODEL 2
REMARK VINA RESULT:      -9.6      2.091      3.492
REMARK  1 active torsions:
REMARK  status: ('A' for Active; 'I' for Inactive)
REMARK       I    between atoms: N_2  and  C_1 
REMARK       I    between atoms: N_3  and  C_1 
REMARK    1  A    between atoms: C_4  and  N_2 
ROOT
ATOM      1  C   UNL d   1      52.858  32.956  53.659  0.00  0.00     0.086 A 
ATOM      2  C   UNL d   1      53.455  33.236  54.160  0.00  0.00     0.018 A 
ATOM      3  C   UNL d   1      54.147  32.803  54.266  0.00  0.00     0.002 A 
ATOM      4  C   UNL d   1      52.952  32.241  53.261  0.00  0.00     0.019 A 
ATOM      5  C   UNL d   1      53.644  31.807  53.367  0.00  0.00     0.002 A 
ATOM      6  C   UNL d   1      53.357  33.959  54.559  0.00  0.00     0.002 A 
ATOM      7  C   UNL d   1      54.241  32.088  53.868  0.00  0.00     0.000 A 
ATOM      8  C   UNL d   1      54.731  33.097  54.768  0.00  0.00     0.000 A 
ATOM      9  C   UNL d   1      53.950  34.238  55.058  0.00  0.00     0.000 A 
ATOM     10  C   UNL d   1      54.635  33.811  55.164  0.00  0.00     0.000 A 
ENDROOT
BRANCH   1  11
ATOM     11  N   UNL d   1      52.157  33.385  53.546  0.00  0.00    -0.192 NA
ATOM     12  C   UNL d   1      51.816  33.456  52.794  0.00  0.00     0.354 C 
ATOM     13  N   UNL d   1      51.124  33.885  52.708  0.00  0.00    -0.252 N 
ATOM     14  O   UNL d   1      52.185  33.089  52.135  0.00  0.00    -0.244 OA
ATOM     15  C   UNL d   1      50.776  33.957  51.940  0.00  0.00     0.111 A 
ATOM     16  C   UNL d   1      50.778  34.239  53.370  0.00  0.00     0.111 A 
ATOM     17  C   UNL d   1      50.070  34.397  51.865  0.00  0.00     0.142 A 
ATOM     18  O   UNL d   1      49.713  34.762  52.549  0.00  0.00    -0.300 OA
ATOM     19  C   UNL d   1      50.065  34.681  53.285  0.00  0.00     0.142 A 
ENDBRANCH   1  11
TORSDOF 1
ENDMDL
MODEL 3
REMARK VINA RESULT:      -8.6      1.179      4.166
REMARK  1 active torsions:
REMARK  status: ('A' for Active; 'I' for Inactive)
REMARK       I    between atoms: N_2  and  C_1 
REMARK       I    between atoms: N_3  and  C_1 
REMARK    1  A    between atoms: C_4  and  N_2 
ROOT
ATOM      1  C   UNL d   1      53.360  31.109  53.632  0.00  0.00     0.086 A 
ATOM      2  C   UNL d   1      53.312  30.355  53.970  0.00  0.00     0.018 A 
ATOM      3  C   UNL d   1      52.987  29.729  53.546  0.00  0.00     0.002 A 
ATOM      4  C   UNL d   1      53.084  31.239  52.867  0.00  0.00     0.019 A 
ATOM      5  C   UNL d   1      52.759  30.613  52.442  0.00  0.00     0.002 A 
ATOM      6  C   UNL d   1      53.592  30.228  54.743  0.00  0.00     0.002 A 
ATOM      7  C   UNL d   1      52.711  29.859  52.781  0.00  0.00     0.000 A 
ATOM      8  C   UNL d   1      52.947  28.984  53.898  0.00  0.00     0.000 A 
ATOM      9  C   UNL d   1      53.544  29.477  55.080  0.00  0.00     0.000 A 
ATOM     10  C   UNL d   1      53.223  28.856  54.662  0.00  0.00     0.000 A 
ENDROOT
BRANCH   1  11
ATOM     11  N   UNL d   1      53.686  31.747  54.051  0.00  0.00    -0.192 NA
ATOM     12  C   UNL d   1      53.356  32.505  53.999  0.00  0.00     0.354 C 
ATOM     13  N   UNL d   1      53.695  33.118  54.423  0.00  0.00    -0.252 N 
ATOM     14  O   UNL d   1      52.682  32.632  53.515  0.00  0.00    -0.244 OA
ATOM     15  C   UNL d   1      53.359  33.893  54.369  0.00  0.00     0.111 A 
ATOM     16  C   UNL d   1      54.359  32.971  54.894  0.00  0.00     0.111 A 
ATOM     17  C   UNL d   1      53.713  34.510  54.806  0.00  0.00     0.142 A 
ATOM     18  O   UNL d   1      54.398  34.357  55.292  0.00  0.00    -0.300 OA
ATOM     19  C   UNL d   1      54.711  33.601  55.332  0.00  0.00     0.142 A 
ENDBRANCH   1  11
TORSDOF 1
ENDMDL
