MODEL 1
REMARK VINA RESULT:      29.1      0.000      0.000
REMARK  2 active torsions:
REMARK  status: ('A' for Active; 'I' for Inactive)
REMARK    1  A    between atoms: C_6  and  C_1 
REMARK    2  A    between atoms: C_7  and  C_3 
ROOT
ATOM      1  C   UNL d   1     -51.385  25.742  33.316  0.00  0.00     0.081 A 
ATOM      2  N   UNL d   1     -52.175  25.965  33.314  0.00  0.00    -0.246 NA
ATOM      3  C   UNL d   1     -51.353  24.922  33.314  0.00  0.00     0.019 A 
ATOM      4  C   UNL d   1     -52.121  24.638  33.311  0.00  0.00     0.019 A 
ATOM      5  C   UNL d   1     -52.633  25.276  33.311  0.00  0.00     0.081 A 
ATOM      6  C   UNL d   1     -52.413  23.861  33.309  0.00  0.00     0.002 A 
ATOM      7  C   UNL d   1     -53.449  25.151  33.308  0.00  0.00     0.019 A 
ATOM      8  C   UNL d   1     -53.234  23.743  33.306  0.00  0.00     0.000 A 
ATOM      9  C   UNL d   1     -53.752  24.388  33.306  0.00  0.00     0.002 A 
ENDROOT
BRANCH   1  10
ATOM     10  C   UNL d   1     -50.893  26.411  33.319  0.00  0.00     0.018 A 
ATOM     11  C   UNL d   1     -50.081  26.313  33.327  0.00  0.00     0.002 A 
ATOM     12  C   UNL d   1     -49.595  26.976  33.330  0.00  0.00     0.000 A 
ATOM     13  C   UNL d   1     -49.918  27.730  33.324  0.00  0.00     0.000 A 
ATOM     14  C   UNL d   1     -50.739  27.819  33.316  0.00  0.00     0.000 A 
ATOM     15  C   UNL d   1     -51.224  27.162  33.313  0.00  0.00     0.002 A 
ENDBRANCH   1  10
BRANCH   3  16
ATOM     16  C   UNL d   1     -50.657  24.468  33.315  0.00  0.00     0.002 A 
ATOM     17  C   UNL d   1     -50.696  23.644  33.326  0.00  0.00     0.000 A 
ATOM     18  C   UNL d   1     -50.008  23.200  33.327  0.00  0.00     0.000 A 
ATOM     19  C   UNL d   1     -49.263  23.571  33.318  0.00  0.00     0.000 A 
ATOM     20  C   UNL d   1     -49.223  24.402  33.307  0.00  0.00     0.000 A 
ATOM     21  C   UNL d   1     -49.920  24.849  33.306  0.00  0.00     0.000 A 
ENDBRANCH   3  16
TORSDOF 2
ENDMDL
