MODEL 1
REMARK VINA RESULT:      -8.0      0.000      0.000
REMARK  4 active torsions:
REMARK  status: ('A' for Active; 'I' for Inactive)
REMARK    1  A    between atoms: C_2  and  S_1 
REMARK    2  A    between atoms: N_4  and  S_1 
REMARK    3  A    between atoms: O_12  and  C_5 
REMARK    4  A    between atoms: O_13  and  C_7 
ROOT
ATOM      1  C   UNL d   1      52.720  33.805  53.792  0.00  0.00     0.128 A 
ATOM      2  C   UNL d   1      53.039  33.045  53.817  0.00  0.00     0.040 A 
ATOM      3  C   UNL d   1      53.064  34.413  54.225  0.00  0.00     0.107 A 
ATOM      4  C   UNL d   1      53.728  34.263  54.687  0.00  0.00     0.034 A 
ATOM      5  C   UNL d   1      53.703  32.895  54.279  0.00  0.00     0.101 A 
ATOM      6  C   UNL d   1      54.053  33.505  54.718  0.00  0.00     0.059 A 
ATOM      7 BR   UNL d   1      54.716  33.356  55.178  0.00  0.00    -0.047 Br
ENDROOT
BRANCH   1   8
ATOM      8  S   UNL d   1      52.052  33.956  53.327  0.00  0.00     0.273 S 
ATOM      9  O   UNL d   1      51.571  33.635  53.915  0.00  0.00    -0.200 OA
ATOM     10  O   UNL d   1      52.534  34.279  52.737  0.00  0.00    -0.200 OA
BRANCH   8  11
ATOM     11  N   UNL d   1      51.386  34.106  52.865  0.00  0.00    -0.229 N 
ATOM     12  C   UNL d   1      50.686  34.246  53.276  0.00  0.00     0.092 A 
ATOM     13  C   UNL d   1      49.935  34.411  52.980  0.00  0.00     0.020 A 
ATOM     14  C   UNL d   1      49.691  34.478  52.194  0.00  0.00     0.002 A 
ATOM     15  C   UNL d   1      50.151  34.394  51.512  0.00  0.00     0.002 A 
ATOM     16  C   UNL d   1      50.954  34.225  51.446  0.00  0.00     0.020 A 
ATOM     17  C   UNL d   1      51.509  34.096  52.043  0.00  0.00     0.092 A 
ENDBRANCH   8  11
ENDBRANCH   1   8
BRANCH   3  18
ATOM     18  O   UNL d   1      52.745  35.166  54.197  0.00  0.00    -0.327 OA
ATOM     19  C   UNL d   1      53.088  35.777  54.633  0.00  0.00     0.181 C 
ENDBRANCH   3  18
BRANCH   5  20
ATOM     20  O   UNL d   1      54.022  32.142  54.307  0.00  0.00    -0.328 OA
ATOM     21  C   UNL d   1      53.784  31.575  53.766  0.00  0.00     0.181 C 
ENDBRANCH   5  20
TORSDOF 4
ENDMDL
MODEL 2
REMARK VINA RESULT:      -7.8      1.515      3.375
REMARK  4 active torsions:
REMARK  status: ('A' for Active; 'I' for Inactive)
REMARK    1  A    between atoms: C_2  and  S_1 
REMARK    2  A    between atoms: N_4  and  S_1 
REMARK    3  A    between atoms: O_12  and  C_5 
REMARK    4  A    between atoms: O_13  and  C_7 
ROOT
ATOM      1  C   UNL d   1      53.114  33.092  53.824  0.00  0.00     0.128 A 
ATOM      2  C   UNL d   1      52.518  33.539  53.468  0.00  0.00     0.040 A 
ATOM      3  C   UNL d   1      53.680  33.456  54.295  0.00  0.00     0.107 A 
ATOM      4  C   UNL d   1      53.654  34.270  54.412  0.00  0.00     0.034 A 
ATOM      5  C   UNL d   1      52.493  34.353  53.586  0.00  0.00     0.101 A 
ATOM      6  C   UNL d   1      53.062  34.725  54.060  0.00  0.00     0.059 A 
ATOM      7 BR   UNL d   1      53.037  35.536  54.178  0.00  0.00    -0.047 Br
ENDROOT
BRANCH   1   8
ATOM      8  S   UNL d   1      53.139  32.273  53.705  0.00  0.00     0.273 S 
ATOM      9  O   UNL d   1      52.619  32.165  54.335  0.00  0.00    -0.200 OA
ATOM     10  O   UNL d   1      53.662  32.381  53.072  0.00  0.00    -0.200 OA
BRANCH   8  11
ATOM     11  N   UNL d   1      53.165  31.457  53.587  0.00  0.00    -0.229 N 
ATOM     12  C   UNL d   1      53.371  31.005  54.244  0.00  0.00     0.092 A 
ATOM     13  C   UNL d   1      53.445  30.186  54.307  0.00  0.00     0.020 A 
ATOM     14  C   UNL d   1      53.331  29.610  53.727  0.00  0.00     0.002 A 
ATOM     15  C   UNL d   1      53.114  29.721  52.937  0.00  0.00     0.002 A 
ATOM     16  C   UNL d   1      52.958  30.423  52.538  0.00  0.00     0.020 A 
ATOM     17  C   UNL d   1      52.979  31.199  52.820  0.00  0.00     0.092 A 
ENDBRANCH   8  11
ENDBRANCH   1   8
BRANCH   3  18
ATOM     18  O   UNL d   1      54.269  33.009  54.645  0.00  0.00    -0.327 OA
ATOM     19  C   UNL d   1      54.834  33.372  55.125  0.00  0.00     0.181 C 
ENDBRANCH   3  18
BRANCH   5  20
ATOM     20  O   UNL d   1      51.904  34.800  53.235  0.00  0.00    -0.328 OA
ATOM     21  C   UNL d   1      51.225  34.437  52.956  0.00  0.00     0.181 C 
ENDBRANCH   5  20
TORSDOF 4
ENDMDL
MODEL 3
REMARK VINA RESULT:      -7.6      2.459      4.108
REMARK  4 active torsions:
REMARK  status: ('A' for Active; 'I' for Inactive)
REMARK    1  A    between atoms: C_2  and  S_1 
REMARK    2  A    between atoms: N_4  and  S_1 
REMARK    3  A    between atoms: O_12  and  C_5 
REMARK    4  A    between atoms: O_13  and  C_7 
ROOT
ATOM      1  C   UNL d   1      53.517  31.429  53.762  0.00  0.00     0.128 A 
ATOM      2  C   UNL d   1      53.695  30.654  53.982  0.00  0.00     0.040 A 
ATOM      3  C   UNL d   1      52.905  31.579  53.234  0.00  0.00     0.107 A 
ATOM      4  C   UNL d   1      52.469  30.954  52.923  0.00  0.00     0.034 A 
ATOM      5  C   UNL d   1      53.259  30.029  53.671  0.00  0.00     0.101 A 
ATOM      6  C   UNL d   1      52.641  30.176  53.138  0.00  0.00     0.059 A 
ATOM      7 BR   UNL d   1      52.206  29.554  52.828  0.00  0.00    -0.047 Br
ENDROOT
BRANCH   1   8
ATOM      8  S   UNL d   1      53.956  32.057  54.075  0.00  0.00     0.273 S 
ATOM      9  O   UNL d   1      54.477  32.009  53.439  0.00  0.00    -0.200 OA
ATOM     10  O   UNL d   1      53.432  32.105  54.714  0.00  0.00    -0.200 OA
BRANCH   8  11
ATOM     11  N   UNL d   1      54.393  32.682  54.386  0.00  0.00    -0.229 N 
ATOM     12  C   UNL d   1      54.960  33.010  53.886  0.00  0.00     0.092 A 
ATOM     13  C   UNL d   1      55.480  33.633  54.030  0.00  0.00     0.020 A 
ATOM     14  C   UNL d   1      55.566  34.089  54.713  0.00  0.00     0.002 A 
ATOM     15  C   UNL d   1      55.145  34.025  55.421  0.00  0.00     0.002 A 
ATOM     16  C   UNL d   1      54.544  33.500  55.620  0.00  0.00     0.020 A 
ATOM     17  C   UNL d   1      54.204  32.901  55.166  0.00  0.00     0.092 A 
ENDBRANCH   8  11
ENDBRANCH   1   8
BRANCH   3  18
ATOM     18  O   UNL d   1      52.731  32.348  53.018  0.00  0.00    -0.327 OA
ATOM     19  C   UNL d   1      52.035  32.516  52.607  0.00  0.00     0.181 C 
ENDBRANCH   3  18
BRANCH   5  20
ATOM     20  O   UNL d   1      53.433  29.260  53.887  0.00  0.00    -0.328 OA
ATOM     21  C   UNL d   1      53.401  29.037  54.674  0.00  0.00     0.181 C 
ENDBRANCH   5  20
TORSDOF 4
ENDMDL
MODEL 4
REMARK VINA RESULT:      -6.9      1.604      2.179
REMARK  4 active torsions:
REMARK  status: ('A' for Active; 'I' for Inactive)
REMARK    1  A    between atoms: C_2  and  S_1 
REMARK    2  A    between atoms: N_4  and  S_1 
REMARK    3  A    between atoms: O_12  and  C_5 
REMARK    4  A    between atoms: O_13  and  C_7 
ROOT
ATOM      1  C   UNL d   1      52.751  31.918  53.206  0.00  0.00     0.128 A 
ATOM      2  C   UNL d   1      52.524  31.149  53.014  0.00  0.00     0.040 A 
ATOM      3  C   UNL d   1      53.480  32.059  53.557  0.00  0.00     0.107 A 
ATOM      4  C   UNL d   1      53.987  31.431  53.719  0.00  0.00     0.034 A 
ATOM      5  C   UNL d   1      53.030  30.520  53.175  0.00  0.00     0.101 A 
ATOM      6  C   UNL d   1      53.767  30.658  53.530  0.00  0.00     0.059 A 
ATOM      7 BR   UNL d   1      54.271  30.032  53.691  0.00  0.00    -0.047 Br
ENDROOT
BRANCH   1   8
ATOM      8  S   UNL d   1      52.242  32.551  53.043  0.00  0.00     0.273 S 
ATOM      9  O   UNL d   1      52.011  32.568  53.834  0.00  0.00    -0.200 OA
ATOM     10  O   UNL d   1      52.474  32.534  52.249  0.00  0.00    -0.200 OA
BRANCH   8  11
ATOM     11  N   UNL d   1      51.735  33.180  52.882  0.00  0.00    -0.229 N 
ATOM     12  C   UNL d   1      51.071  33.241  53.365  0.00  0.00     0.092 A 
ATOM     13  C   UNL d   1      50.466  33.800  53.347  0.00  0.00     0.020 A 
ATOM     14  C   UNL d   1      50.370  34.443  52.839  0.00  0.00     0.002 A 
ATOM     15  C   UNL d   1      50.866  34.679  52.221  0.00  0.00     0.002 A 
ATOM     16  C   UNL d   1      51.568  34.338  51.962  0.00  0.00     0.020 A 
ATOM     17  C   UNL d   1      51.961  33.671  52.251  0.00  0.00     0.092 A 
ENDBRANCH   8  11
ENDBRANCH   1   8
BRANCH   3  18
ATOM     18  O   UNL d   1      53.702  32.824  53.746  0.00  0.00    -0.327 OA
ATOM     19  C   UNL d   1      54.440  32.969  54.087  0.00  0.00     0.181 C 
ENDBRANCH   3  18
BRANCH   5  20
ATOM     20  O   UNL d   1      52.808  29.756  52.987  0.00  0.00    -0.328 OA
ATOM     21  C   UNL d   1      52.162  29.413  53.356  0.00  0.00     0.181 C 
ENDBRANCH   5  20
TORSDOF 4
ENDMDL
MODEL 5
REMARK VINA RESULT:      -5.4      1.826      3.922
REMARK  4 active torsions:
REMARK  status: ('A' for Active; 'I' for Inactive)
REMARK    1  A    between atoms: C_2  and  S_1 
REMARK    2  A    between atoms: N_4  and  S_1 
REMARK    3  A    between atoms: O_12  and  C_5 
REMARK    4  A    between atoms: O_13  and  C_7 
ROOT
ATOM      1  C   UNL d   1      52.391  33.559  53.437  0.00  0.00     0.128 A 
ATOM      2  C   UNL d   1      51.918  34.233  53.386  0.00  0.00     0.040 A 
ATOM      3  C   UNL d   1      52.155  32.859  53.077  0.00  0.00     0.107 A 
ATOM      4  C   UNL d   1      51.444  32.829  52.664  0.00  0.00     0.034 A 
ATOM      5  C   UNL d   1      51.207  34.203  52.972  0.00  0.00     0.101 A 
ATOM      6  C   UNL d   1      50.965  33.499  52.608  0.00  0.00     0.059 A 
ATOM      7 BR   UNL d   1      50.256  33.469  52.196  0.00  0.00    -0.047 Br
ENDROOT
BRANCH   1   8
ATOM      8  S   UNL d   1      53.106  33.589  53.853  0.00  0.00     0.273 S 
ATOM      9  O   UNL d   1      52.714  33.366  54.543  0.00  0.00    -0.200 OA
ATOM     10  O   UNL d   1      53.500  33.813  53.160  0.00  0.00    -0.200 OA
BRANCH   8  11
ATOM     11  N   UNL d   1      53.818  33.619  54.267  0.00  0.00    -0.229 N 
ATOM     12  C   UNL d   1      53.756  33.676  55.086  0.00  0.00     0.092 A 
ATOM     13  C   UNL d   1      54.356  33.716  55.650  0.00  0.00     0.020 A 
ATOM     14  C   UNL d   1      55.174  33.710  55.538  0.00  0.00     0.002 A 
ATOM     15  C   UNL d   1      55.587  33.661  54.823  0.00  0.00     0.002 A 
ATOM     16  C   UNL d   1      55.291  33.607  54.058  0.00  0.00     0.020 A 
ATOM     17  C   UNL d   1      54.506  33.588  53.802  0.00  0.00     0.092 A 
ENDBRANCH   8  11
ENDBRANCH   1   8
BRANCH   3  18
ATOM     18  O   UNL d   1      52.627  32.193  53.130  0.00  0.00    -0.327 OA
ATOM     19  C   UNL d   1      52.377  31.480  52.798  0.00  0.00     0.181 C 
ENDBRANCH   3  18
BRANCH   5  20
ATOM     20  O   UNL d   1      50.735  34.869  52.919  0.00  0.00    -0.328 OA
ATOM     21  C   UNL d   1      50.199  35.041  53.514  0.00  0.00     0.181 C 
ENDBRANCH   5  20
TORSDOF 4
ENDMDL
