MODEL 1
REMARK VINA RESULT:      -9.5      0.000      0.000
REMARK  0 active torsions:
REMARK  status: ('A' for Active; 'I' for Inactive)
ROOT
ATOM      1  C   UNL d   1     -48.445  11.821  23.484  0.00  0.00     0.267 A 
ATOM      2  N   UNL d   1     -47.663  11.978  23.418  0.00  0.00    -0.270 N 
ATOM      3  C   UNL d   1     -48.957  12.260  23.379  0.00  0.00     0.081 A 
ATOM      4  C   UNL d   1     -48.999  13.050  23.165  0.00  0.00     0.105 A 
ATOM      5  O   UNL d   1     -48.515  13.546  23.016  0.00  0.00    -0.305 OA
ATOM      6  C   UNL d   1     -47.328  12.712  23.209  0.00  0.00     0.090 A 
ATOM      7  C   UNL d   1     -47.722  13.439  23.022  0.00  0.00     0.116 A 
ATOM      8  C   UNL d   1     -49.642  11.837  23.514  0.00  0.00     0.028 A 
ATOM      9  O   UNL d   1     -48.654  11.057  23.698  0.00  0.00    -0.267 OA
ATOM     10  C   UNL d   1     -49.725  13.417  23.087  0.00  0.00     0.026 A 
ATOM     11  C   UNL d   1     -50.378  12.201  23.437  0.00  0.00     0.103 A 
ATOM     12  C   UNL d   1     -47.145  11.364  23.571  0.00  0.00     0.102 C 
ATOM     13  N   UNL d   1     -51.064  11.773  23.573  0.00  0.00    -0.148 N 
ATOM     14  C   UNL d   1     -50.419  12.992  23.222  0.00  0.00     0.023 A 
ATOM     15  C   UNL d   1     -46.482  12.674  23.194  0.00  0.00     0.020 A 
ATOM     16  C   UNL d   1     -47.273  14.118  22.824  0.00  0.00     0.026 A 
ATOM     17  C   UNL d   1     -46.032  13.361  22.994  0.00  0.00     0.002 A 
ATOM     18  C   UNL d   1     -46.430  14.088  22.808  0.00  0.00     0.002 A 
ENDROOT
TORSDOF 0
ENDMDL
MODEL 2
REMARK VINA RESULT:      -9.4      1.494      2.893
REMARK  0 active torsions:
REMARK  status: ('A' for Active; 'I' for Inactive)
ROOT
ATOM      1  C   UNL d   1     -46.913  13.434  22.994  0.00  0.00     0.267 A 
ATOM      2  N   UNL d   1     -47.305  14.106  22.804  0.00  0.00    -0.270 N 
ATOM      3  C   UNL d   1     -47.191  12.845  23.196  0.00  0.00     0.081 A 
ATOM      4  C   UNL d   1     -47.960  12.589  23.321  0.00  0.00     0.105 A 
ATOM      5  O   UNL d   1     -48.596  12.894  23.260  0.00  0.00    -0.305 OA
ATOM      6  C   UNL d   1     -48.131  14.209  22.818  0.00  0.00     0.090 A 
ATOM      7  C   UNL d   1     -48.731  13.648  23.030  0.00  0.00     0.116 A 
ATOM      8  C   UNL d   1     -46.565  12.336  23.321  0.00  0.00     0.028 A 
ATOM      9  O   UNL d   1     -46.094  13.454  22.941  0.00  0.00    -0.267 OA
ATOM     10  C   UNL d   1     -48.102  11.824  23.570  0.00  0.00     0.026 A 
ATOM     11  C   UNL d   1     -46.703  11.563  23.573  0.00  0.00     0.103 A 
ATOM     12  C   UNL d   1     -46.854  14.748  22.575  0.00  0.00     0.102 C 
ATOM     13  N   UNL d   1     -46.072  11.054  23.698  0.00  0.00    -0.148 N 
ATOM     14  C   UNL d   1     -47.472  11.307  23.698  0.00  0.00     0.023 A 
ATOM     15  C   UNL d   1     -48.350  14.993  22.583  0.00  0.00     0.020 A 
ATOM     16  C   UNL d   1     -49.538  13.871  23.005  0.00  0.00     0.026 A 
ATOM     17  C   UNL d   1     -49.165  15.215  22.559  0.00  0.00     0.002 A 
ATOM     18  C   UNL d   1     -49.763  14.650  22.772  0.00  0.00     0.002 A 
ENDROOT
TORSDOF 0
ENDMDL
MODEL 3
REMARK VINA RESULT:      -9.1      0.995      2.716
REMARK  0 active torsions:
REMARK  status: ('A' for Active; 'I' for Inactive)
ROOT
ATOM      1  C   UNL d   1     -48.518  12.254  23.331  0.00  0.00     0.267 A 
ATOM      2  N   UNL d   1     -49.134  12.746  23.191  0.00  0.00    -0.270 N 
ATOM      3  C   UNL d   1     -47.855  12.417  23.308  0.00  0.00     0.081 A 
ATOM      4  C   UNL d   1     -47.441  13.106  23.147  0.00  0.00     0.105 A 
ATOM      5  O   UNL d   1     -47.631  13.766  22.977  0.00  0.00    -0.305 OA
ATOM      6  C   UNL d   1     -49.078  13.553  22.991  0.00  0.00     0.090 A 
ATOM      7  C   UNL d   1     -48.382  14.027  22.892  0.00  0.00     0.116 A 
ATOM      8  C   UNL d   1     -47.452  11.730  23.491  0.00  0.00     0.028 A 
ATOM      9  O   UNL d   1     -48.698  11.477  23.520  0.00  0.00    -0.267 OA
ATOM     10  C   UNL d   1     -46.624  13.107  23.170  0.00  0.00     0.026 A 
ATOM     11  C   UNL d   1     -46.628  11.727  23.514  0.00  0.00     0.103 A 
ATOM     12  C   UNL d   1     -49.885  12.429  23.250  0.00  0.00     0.102 C 
ATOM     13  N   UNL d   1     -46.227  11.035  23.698  0.00  0.00    -0.148 N 
ATOM     14  C   UNL d   1     -46.213  12.416  23.354  0.00  0.00     0.023 A 
ATOM     15  C   UNL d   1     -49.844  13.900  22.883  0.00  0.00     0.020 A 
ATOM     16  C   UNL d   1     -48.454  14.836  22.688  0.00  0.00     0.026 A 
ATOM     17  C   UNL d   1     -49.913  14.715  22.678  0.00  0.00     0.002 A 
ATOM     18  C   UNL d   1     -49.213  15.188  22.579  0.00  0.00     0.002 A 
ENDROOT
TORSDOF 0
ENDMDL
MODEL 4
REMARK VINA RESULT:      -9.1      1.105      3.468
REMARK  0 active torsions:
REMARK  status: ('A' for Active; 'I' for Inactive)
ROOT
ATOM      1  C   UNL d   1     -48.417  14.055  22.906  0.00  0.00     0.267 A 
ATOM      2  N   UNL d   1     -49.187  13.864  23.019  0.00  0.00    -0.270 N 
ATOM      3  C   UNL d   1     -47.881  13.639  22.978  0.00  0.00     0.081 A 
ATOM      4  C   UNL d   1     -47.792  12.851  23.186  0.00  0.00     0.105 A 
ATOM      5  O   UNL d   1     -48.244  12.335  23.363  0.00  0.00    -0.305 OA
ATOM      6  C   UNL d   1     -49.476  13.117  23.246  0.00  0.00     0.090 A 
ATOM      7  C   UNL d   1     -49.039  12.407  23.406  0.00  0.00     0.116 A 
ATOM      8  C   UNL d   1     -47.225  14.092  22.802  0.00  0.00     0.028 A 
ATOM      9  O   UNL d   1     -48.255  14.828  22.682  0.00  0.00    -0.267 OA
ATOM     10  C   UNL d   1     -47.047  12.517  23.219  0.00  0.00     0.026 A 
ATOM     11  C   UNL d   1     -46.471  13.760  22.834  0.00  0.00     0.103 A 
ATOM     12  C   UNL d   1     -49.738  14.456  22.900  0.00  0.00     0.102 C 
ATOM     13  N   UNL d   1     -45.814  14.218  22.656  0.00  0.00    -0.148 N 
ATOM     14  C   UNL d   1     -46.382  12.972  23.042  0.00  0.00     0.023 A 
ATOM     15  C   UNL d   1     -50.320  13.117  23.313  0.00  0.00     0.020 A 
ATOM     16  C   UNL d   1     -49.445  11.710  23.629  0.00  0.00     0.026 A 
ATOM     17  C   UNL d   1     -50.726  12.412  23.538  0.00  0.00     0.002 A 
ATOM     18  C   UNL d   1     -50.286  11.703  23.697  0.00  0.00     0.002 A 
ENDROOT
TORSDOF 0
ENDMDL
MODEL 5
REMARK VINA RESULT:      -7.2      1.379      3.504
REMARK  0 active torsions:
REMARK  status: ('A' for Active; 'I' for Inactive)
ROOT
ATOM      1  C   UNL d   1     -46.372  12.744  23.011  0.00  0.00     0.267 A 
ATOM      2  N   UNL d   1     -47.058  13.156  22.987  0.00  0.00    -0.270 N 
ATOM      3  C   UNL d   1     -46.294  12.097  23.216  0.00  0.00     0.081 A 
ATOM      4  C   UNL d   1     -46.805  11.521  23.496  0.00  0.00     0.105 A 
ATOM      5  O   UNL d   1     -47.502  11.499  23.620  0.00  0.00    -0.305 OA
ATOM      6  C   UNL d   1     -47.808  12.869  23.209  0.00  0.00     0.090 A 
ATOM      7  C   UNL d   1     -48.015  12.101  23.502  0.00  0.00     0.116 A 
ATOM      8  C   UNL d   1     -45.498  11.935  23.138  0.00  0.00     0.028 A 
ATOM      9  O   UNL d   1     -45.694  13.135  22.766  0.00  0.00    -0.267 OA
ATOM     10  C   UNL d   1     -46.519  10.782  23.698  0.00  0.00     0.026 A 
ATOM     11  C   UNL d   1     -45.204  11.191  23.340  0.00  0.00     0.103 A 
ATOM     12  C   UNL d   1     -47.019  13.928  22.720  0.00  0.00     0.102 C 
ATOM     13  N   UNL d   1     -44.403  11.032  23.260  0.00  0.00    -0.148 N 
ATOM     14  C   UNL d   1     -45.715  10.615  23.620  0.00  0.00     0.023 A 
ATOM     15  C   UNL d   1     -48.408  13.460  23.110  0.00  0.00     0.020 A 
ATOM     16  C   UNL d   1     -48.812  11.929  23.694  0.00  0.00     0.026 A 
ATOM     17  C   UNL d   1     -49.210  13.282  23.303  0.00  0.00     0.002 A 
ATOM     18  C   UNL d   1     -49.414  12.511  23.598  0.00  0.00     0.002 A 
ENDROOT
TORSDOF 0
ENDMDL
MODEL 6
REMARK VINA RESULT:      -6.6      8.709      9.973
REMARK  0 active torsions:
REMARK  status: ('A' for Active; 'I' for Inactive)
ROOT
ATOM      1  C   UNL d   1     -40.522  15.304  18.595  0.00  0.00     0.267 A 
ATOM      2  N   UNL d   1     -40.193  15.014  17.925  0.00  0.00    -0.270 N 
ATOM      3  C   UNL d   1     -40.397  15.095  19.232  0.00  0.00     0.081 A 
ATOM      4  C   UNL d   1     -39.910  14.522  19.561  0.00  0.00     0.105 A 
ATOM      5  O   UNL d   1     -39.456  14.050  19.294  0.00  0.00    -0.305 OA
ATOM      6  C   UNL d   1     -39.631  14.400  17.884  0.00  0.00     0.090 A 
ATOM      7  C   UNL d   1     -39.289  13.952  18.518  0.00  0.00     0.116 A 
ATOM      8  C   UNL d   1     -40.866  15.559  19.714  0.00  0.00     0.028 A 
ATOM      9  O   UNL d   1     -41.066  15.913  18.509  0.00  0.00    -0.267 OA
ATOM     10  C   UNL d   1     -39.894  14.414  20.371  0.00  0.00     0.026 A 
ATOM     11  C   UNL d   1     -40.853  15.454  20.532  0.00  0.00     0.103 A 
ATOM     12  C   UNL d   1     -40.427  15.351  17.219  0.00  0.00     0.102 C 
ATOM     13  N   UNL d   1     -41.325  15.922  21.012  0.00  0.00    -0.148 N 
ATOM     14  C   UNL d   1     -40.366  14.881  20.861  0.00  0.00     0.023 A 
ATOM     15  C   UNL d   1     -39.406  14.239  17.083  0.00  0.00     0.020 A 
ATOM     16  C   UNL d   1     -38.729  13.353  18.350  0.00  0.00     0.026 A 
ATOM     17  C   UNL d   1     -38.840  13.634  16.917  0.00  0.00     0.002 A 
ATOM     18  C   UNL d   1     -38.499  13.187  17.555  0.00  0.00     0.002 A 
ENDROOT
TORSDOF 0
ENDMDL
