MODEL 1
REMARK VINA RESULT:      -7.2      0.000      0.000
REMARK  1 active torsions:
REMARK  status: ('A' for Active; 'I' for Inactive)
REMARK    1  A    between atoms: C_8  and  C_3 
ROOT
ATOM      1  N   UNL d   1     -47.795  12.881  23.099  0.00  0.00    -0.145 NA
ATOM      2  N   UNL d   1     -46.976  12.869  23.257  0.00  0.00    -0.106 NA
ATOM      3  C   UNL d   1     -48.245  12.208  23.229  0.00  0.00     0.103 A 
ATOM      4  C   UNL d   1     -46.621  12.182  23.543  0.00  0.00     0.297 A 
ATOM      5  C   UNL d   1     -47.881  11.517  23.518  0.00  0.00     0.026 A 
ATOM      6  C   UNL d   1     -47.083  11.509  23.671  0.00  0.00     0.066 A 
ATOM      7  O   UNL d   1     -45.818  12.173  23.697  0.00  0.00    -0.264 OA
ENDROOT
BRANCH   3   8
ATOM      8  C   UNL d   1     -49.047  12.205  23.079  0.00  0.00     0.019 A 
ATOM      9  C   UNL d   1     -49.307  12.265  22.291  0.00  0.00     0.002 A 
ATOM     10  C   UNL d   1     -50.120  12.263  22.130  0.00  0.00     0.000 A 
ATOM     11  C   UNL d   1     -50.664  12.202  22.751  0.00  0.00     0.000 A 
ATOM     12  C   UNL d   1     -50.403  12.143  23.530  0.00  0.00     0.000 A 
ATOM     13  C   UNL d   1     -49.593  12.145  23.687  0.00  0.00     0.002 A 
ENDBRANCH   3   8
TORSDOF 1
ENDMDL
MODEL 2
REMARK VINA RESULT:      -7.0      1.594      1.956
REMARK  1 active torsions:
REMARK  status: ('A' for Active; 'I' for Inactive)
REMARK    1  A    between atoms: C_8  and  C_3 
ROOT
ATOM      1  N   UNL d   1     -46.406  13.137  22.726  0.00  0.00    -0.145 NA
ATOM      2  N   UNL d   1     -45.822  12.606  22.997  0.00  0.00    -0.106 NA
ATOM      3  C   UNL d   1     -47.196  12.994  22.894  0.00  0.00     0.103 A 
ATOM      4  C   UNL d   1     -46.039  11.941  23.432  0.00  0.00     0.297 A 
ATOM      5  C   UNL d   1     -47.409  12.320  23.334  0.00  0.00     0.026 A 
ATOM      6  C   UNL d   1     -46.838  11.805  23.596  0.00  0.00     0.066 A 
ATOM      7  O   UNL d   1     -45.465  11.423  23.696  0.00  0.00    -0.264 OA
ENDROOT
BRANCH   3   8
ATOM      8  C   UNL d   1     -47.778  13.504  22.635  0.00  0.00     0.019 A 
ATOM      9  C   UNL d   1     -47.802  14.274  22.948  0.00  0.00     0.002 A 
ATOM     10  C   UNL d   1     -48.390  14.799  22.691  0.00  0.00     0.000 A 
ATOM     11  C   UNL d   1     -48.946  14.554  22.128  0.00  0.00     0.000 A 
ATOM     12  C   UNL d   1     -48.918  13.790  21.820  0.00  0.00     0.000 A 
ATOM     13  C   UNL d   1     -48.331  13.271  22.079  0.00  0.00     0.002 A 
ENDBRANCH   3   8
TORSDOF 1
ENDMDL
MODEL 3
REMARK VINA RESULT:      -6.8      1.810      3.060
REMARK  1 active torsions:
REMARK  status: ('A' for Active; 'I' for Inactive)
REMARK    1  A    between atoms: C_8  and  C_3 
ROOT
ATOM      1  N   UNL d   1     -47.953  11.877  23.548  0.00  0.00    -0.145 NA
ATOM      2  N   UNL d   1     -48.605  11.378  23.698  0.00  0.00    -0.106 NA
ATOM      3  C   UNL d   1     -48.061  12.573  23.128  0.00  0.00     0.103 A 
ATOM      4  C   UNL d   1     -49.355  11.586  23.426  0.00  0.00     0.297 A 
ATOM      5  C   UNL d   1     -48.821  12.777  22.855  0.00  0.00     0.026 A 
ATOM      6  C   UNL d   1     -49.453  12.289  23.004  0.00  0.00     0.066 A 
ATOM      7  O   UNL d   1     -49.991  11.095  23.575  0.00  0.00    -0.264 OA
ENDROOT
BRANCH   3   8
ATOM      8  C   UNL d   1     -47.433  13.071  22.973  0.00  0.00     0.019 A 
ATOM      9  C   UNL d   1     -47.556  13.892  23.008  0.00  0.00     0.002 A 
ATOM     10  C   UNL d   1     -46.923  14.405  22.852  0.00  0.00     0.000 A 
ATOM     11  C   UNL d   1     -46.178  14.096  22.664  0.00  0.00     0.000 A 
ATOM     12  C   UNL d   1     -46.061  13.282  22.631  0.00  0.00     0.000 A 
ATOM     13  C   UNL d   1     -46.693  12.775  22.786  0.00  0.00     0.002 A 
ENDBRANCH   3   8
TORSDOF 1
ENDMDL
MODEL 4
REMARK VINA RESULT:      -6.8      2.678      3.727
REMARK  1 active torsions:
REMARK  status: ('A' for Active; 'I' for Inactive)
REMARK    1  A    between atoms: C_8  and  C_3 
ROOT
ATOM      1  N   UNL d   1     -48.988  14.148  23.340  0.00  0.00    -0.145 NA
ATOM      2  N   UNL d   1     -49.683  14.609  23.332  0.00  0.00    -0.106 NA
ATOM      3  C   UNL d   1     -48.341  14.380  22.892  0.00  0.00     0.103 A 
ATOM      4  C   UNL d   1     -49.719  15.294  22.876  0.00  0.00     0.297 A 
ATOM      5  C   UNL d   1     -48.384  15.073  22.433  0.00  0.00     0.026 A 
ATOM      6  C   UNL d   1     -49.062  15.519  22.428  0.00  0.00     0.066 A 
ATOM      7  O   UNL d   1     -50.402  15.743  22.871  0.00  0.00    -0.264 OA
ENDROOT
BRANCH   3   8
ATOM      8  C   UNL d   1     -47.654  13.939  22.889  0.00  0.00     0.019 A 
ATOM      9  C   UNL d   1     -47.708  13.113  22.965  0.00  0.00     0.002 A 
ATOM     10  C   UNL d   1     -47.015  12.658  22.963  0.00  0.00     0.000 A 
ATOM     11  C   UNL d   1     -46.278  13.027  22.887  0.00  0.00     0.000 A 
ATOM     12  C   UNL d   1     -46.229  13.846  22.813  0.00  0.00     0.000 A 
ATOM     13  C   UNL d   1     -46.921  14.296  22.815  0.00  0.00     0.002 A 
ENDBRANCH   3   8
TORSDOF 1
ENDMDL
