MODEL 1
REMARK VINA RESULT:      27.6      0.000      0.000
REMARK  3 active torsions:
REMARK  status: ('A' for Active; 'I' for Inactive)
REMARK    1  A    between atoms: C_5  and  C_1 
REMARK    2  A    between atoms: C_4  and  C_6 
REMARK    3  A    between atoms: C_6  and  C_5 
ROOT
ATOM      1  C   UNL d   1     -55.792 -98.761 -44.301  0.00  0.00     0.068 C 
ENDROOT
BRANCH   1   2
ATOM      2  C   UNL d   1     -56.620 -98.760 -44.364  0.00  0.00     0.114 A 
ATOM      3  N   UNL d   1     -57.155 -98.760 -43.734  0.00  0.00    -0.238 NA
ATOM      4  C   UNL d   1     -57.918 -98.759 -44.052  0.00  0.00     0.088 A 
ATOM      5  C   UNL d   1     -58.662 -98.759 -43.695  0.00  0.00     0.020 A 
ATOM      6  C   UNL d   1     -57.858 -98.759 -44.875  0.00  0.00     0.049 A 
ATOM      7  C   UNL d   1     -59.345 -98.758 -44.161  0.00  0.00     0.002 A 
ATOM      8  C   UNL d   1     -59.275 -98.757 -44.982  0.00  0.00     0.001 A 
ATOM      9  C   UNL d   1     -58.533 -98.758 -45.336  0.00  0.00     0.008 A 
ATOM     10  S   UNL d   1     -57.049 -98.760 -45.067  0.00  0.00    -0.066 SA
ENDBRANCH   1   2
BRANCH   1  11
ATOM     11  C   UNL d   1     -55.353 -99.337 -44.704  0.00  0.00     0.201 C 
ATOM     12  O   UNL d   1     -55.074 -99.194 -45.470  0.00  0.00    -0.286 OA
BRANCH  11  13
ATOM     13  C   UNL d   1     -55.192-100.065 -44.334  0.00  0.00     0.078 A 
ATOM     14  C   UNL d   1     -55.035-100.741 -44.798  0.00  0.00     0.202 A 
ATOM     15  C   UNL d   1     -54.875-101.464 -44.434  0.00  0.00     0.084 A 
ATOM     16  O   UNL d   1     -55.040-100.688 -45.621  0.00  0.00    -0.286 OA
ATOM     17  C   UNL d   1     -54.872-101.511 -43.606  0.00  0.00     0.199 A 
ATOM     18  C   UNL d   1     -55.027-100.842 -43.147  0.00  0.00     0.042 A 
ATOM     19  O   UNL d   1     -54.711-102.234 -43.243  0.00  0.00    -0.286 OA
ATOM     20  C   UNL d   1     -55.187-100.118 -43.511  0.00  0.00     0.010 A 
ENDBRANCH  11  13
ENDBRANCH   1  11
TORSDOF 3
ENDMDL
