MODEL 1
REMARK VINA RESULT:      -7.0      0.000      0.000
REMARK  5 active torsions:
REMARK  status: ('A' for Active; 'I' for Inactive)
REMARK    1  A    between atoms: S_5  and  C_3 
REMARK    2  A    between atoms: C_13  and  S_5 
REMARK    3  A    between atoms: C_23  and  N_7 
REMARK    4  A    between atoms: C_30  and  C_23 
REMARK    5  A    between atoms: O_29  and  C_30 
ROOT
ATOM      1  C   UNL d   1     -48.126  13.103  23.080  0.00  0.00     0.155 A 
ATOM      2  C   UNL d   1     -47.837  12.344  23.002  0.00  0.00     0.092 A 
ATOM      3  C   UNL d   1     -46.558  12.863  22.694  0.00  0.00     0.124 A 
ATOM      4  N   UNL d   1     -48.909  13.229  23.273  0.00  0.00    -0.210 NA
ATOM      5  N   UNL d   1     -49.128  11.834  23.313  0.00  0.00    -0.258 N 
ATOM      6  N   UNL d   1     -47.635  13.747  22.966  0.00  0.00    -0.271 N 
ATOM      7  C   UNL d   1     -49.410  12.596  23.389  0.00  0.00     0.152 A 
ATOM      8  C   UNL d   1     -46.848  13.621  22.773  0.00  0.00     0.181 A 
ATOM      9  C   UNL d   1     -48.335  11.706  23.118  0.00  0.00     0.269 A 
ATOM     10  C   UNL d   1     -47.054  12.217  22.809  0.00  0.00     0.022 A 
ATOM     11  C   UNL d   1     -50.191  12.723  23.582  0.00  0.00     0.035 A 
ATOM     12  C   UNL d   1     -49.626  11.197  23.428  0.00  0.00     0.084 A 
ATOM     13  N   UNL d   1     -46.344  14.281  22.656  0.00  0.00    -0.128 N 
ATOM     14  O   UNL d   1     -48.045  10.924  23.039  0.00  0.00    -0.266 OA
ATOM     15  C   UNL d   1     -50.410  11.328  23.622  0.00  0.00     0.019 A 
ATOM     16  C   UNL d   1     -50.692  12.090  23.698  0.00  0.00     0.005 A 
ATOM     17  C   UNL d   1     -50.481  13.506  23.660  0.00  0.00     0.003 C 
ENDROOT
BRANCH   3  18
ATOM     18  S   UNL d   1     -45.760  12.741  22.498  0.00  0.00     0.213 S 
ATOM     19  O   UNL d   1     -45.566  12.621  23.300  0.00  0.00    -0.217 OA
ATOM     20  O   UNL d   1     -45.944  12.860  21.698  0.00  0.00    -0.217 OA
BRANCH  18  21
ATOM     21  C   UNL d   1     -44.961  12.621  22.288  0.00  0.00     0.088 A 
ATOM     22  C   UNL d   1     -44.516  12.032  22.663  0.00  0.00     0.014 A 
ATOM     23  C   UNL d   1     -43.721  11.915  22.452  0.00  0.00     0.030 A 
ATOM     24  C   UNL d   1     -43.373  12.391  21.863  0.00  0.00     0.140 A 
ATOM     25  C   UNL d   1     -43.830  12.986  21.486  0.00  0.00     0.030 A 
ATOM     26  F   UNL d   1     -42.571  12.276  21.647  0.00  0.00    -0.204 F 
ATOM     27  C   UNL d   1     -44.619  13.097  21.701  0.00  0.00     0.014 A 
ENDBRANCH  18  21
ENDBRANCH   3  18
BRANCH   6  28
ATOM     28  C   UNL d   1     -47.929  14.518  23.046  0.00  0.00     0.109 C 
BRANCH  28  29
ATOM     29  C   UNL d   1     -48.050  14.988  22.371  0.00  0.00     0.135 C 
BRANCH  29  30
ATOM     30  O   UNL d   1     -48.494  15.696  22.428  0.00  0.00    -0.325 OA
ATOM     31  C   UNL d   1     -49.012  15.913  21.814  0.00  0.00     0.182 C 
ENDBRANCH  29  30
ENDBRANCH  28  29
ENDBRANCH   6  28
TORSDOF 5
ENDMDL
MODEL 2
REMARK VINA RESULT:      -5.8      1.103      1.390
REMARK  5 active torsions:
REMARK  status: ('A' for Active; 'I' for Inactive)
REMARK    1  A    between atoms: S_5  and  C_3 
REMARK    2  A    between atoms: C_13  and  S_5 
REMARK    3  A    between atoms: C_23  and  N_7 
REMARK    4  A    between atoms: C_30  and  C_23 
REMARK    5  A    between atoms: O_29  and  C_30 
ROOT
ATOM      1  C   UNL d   1     -48.236  12.975  23.355  0.00  0.00     0.155 A 
ATOM      2  C   UNL d   1     -48.231  12.161  23.414  0.00  0.00     0.092 A 
ATOM      3  C   UNL d   1     -46.819  12.164  23.337  0.00  0.00     0.124 A 
ATOM      4  N   UNL d   1     -48.941  13.386  23.363  0.00  0.00    -0.210 NA
ATOM      5  N   UNL d   1     -49.651  12.172  23.490  0.00  0.00    -0.258 N 
ATOM      6  N   UNL d   1     -47.534  13.389  23.287  0.00  0.00    -0.271 N 
ATOM      7  C   UNL d   1     -49.648  12.985  23.431  0.00  0.00     0.152 A 
ATOM      8  C   UNL d   1     -46.825  12.977  23.279  0.00  0.00     0.181 A 
ATOM      9  C   UNL d   1     -48.938  11.755  23.482  0.00  0.00     0.269 A 
ATOM     10  C   UNL d   1     -47.527  11.749  23.406  0.00  0.00     0.022 A 
ATOM     11  C   UNL d   1     -50.351  13.397  23.439  0.00  0.00     0.035 A 
ATOM     12  C   UNL d   1     -50.358  11.766  23.558  0.00  0.00     0.084 A 
ATOM     13  N   UNL d   1     -46.105  13.401  23.209  0.00  0.00    -0.128 N 
ATOM     14  O   UNL d   1     -48.941  10.919  23.543  0.00  0.00    -0.266 OA
ATOM     15  C   UNL d   1     -51.062  12.182  23.566  0.00  0.00     0.019 A 
ATOM     16  C   UNL d   1     -51.059  12.996  23.506  0.00  0.00     0.005 A 
ATOM     17  C   UNL d   1     -50.348  14.233  23.377  0.00  0.00     0.003 C 
ENDROOT
BRANCH   3  18
ATOM     18  S   UNL d   1     -46.098  11.751  23.329  0.00  0.00     0.213 S 
ATOM     19  O   UNL d   1     -45.718  12.395  22.957  0.00  0.00    -0.217 OA
ATOM     20  O   UNL d   1     -46.468  11.107  23.698  0.00  0.00    -0.217 OA
BRANCH  18  21
ATOM     21  C   UNL d   1     -45.379  11.327  23.325  0.00  0.00     0.088 A 
ATOM     22  C   UNL d   1     -45.329  10.589  23.697  0.00  0.00     0.014 A 
ATOM     23  C   UNL d   1     -44.612  10.169  23.692  0.00  0.00     0.030 A 
ATOM     24  C   UNL d   1     -43.945  10.492  23.313  0.00  0.00     0.140 A 
ATOM     25  C   UNL d   1     -44.001  11.242  22.938  0.00  0.00     0.030 A 
ATOM     26  F   UNL d   1     -43.219  10.072  23.305  0.00  0.00    -0.204 F 
ATOM     27  C   UNL d   1     -44.717  11.653  22.947  0.00  0.00     0.014 A 
ENDBRANCH  18  21
ENDBRANCH   3  18
BRANCH   6  28
ATOM     28  C   UNL d   1     -47.539  14.216  23.227  0.00  0.00     0.109 C 
BRANCH  28  29
ATOM     29  C   UNL d   1     -47.279  14.583  22.528  0.00  0.00     0.135 C 
BRANCH  29  30
ATOM     30  O   UNL d   1     -47.298  15.418  22.462  0.00  0.00    -0.325 OA
ATOM     31  C   UNL d   1     -47.497  15.774  21.737  0.00  0.00     0.182 C 
ENDBRANCH  29  30
ENDBRANCH  28  29
ENDBRANCH   6  28
TORSDOF 5
ENDMDL
MODEL 3
REMARK VINA RESULT:      -4.9      8.413      9.524
REMARK  5 active torsions:
REMARK  status: ('A' for Active; 'I' for Inactive)
REMARK    1  A    between atoms: S_5  and  C_3 
REMARK    2  A    between atoms: C_13  and  S_5 
REMARK    3  A    between atoms: C_23  and  N_7 
REMARK    4  A    between atoms: C_30  and  C_23 
REMARK    5  A    between atoms: O_29  and  C_30 
ROOT
ATOM      1  C   UNL d   1     -39.605  14.765  18.087  0.00  0.00     0.155 A 
ATOM      2  C   UNL d   1     -40.119  15.039  18.658  0.00  0.00     0.092 A 
ATOM      3  C   UNL d   1     -39.235  14.595  19.668  0.00  0.00     0.124 A 
ATOM      4  N   UNL d   1     -39.783  14.847  17.295  0.00  0.00    -0.210 NA
ATOM      5  N   UNL d   1     -40.999  15.482  17.632  0.00  0.00    -0.258 N 
ATOM      6  N   UNL d   1     -38.902  14.404  18.302  0.00  0.00    -0.271 N 
ATOM      7  C   UNL d   1     -40.480  15.205  17.067  0.00  0.00     0.152 A 
ATOM      8  C   UNL d   1     -38.722  14.321  19.097  0.00  0.00     0.181 A 
ATOM      9  C   UNL d   1     -40.818  15.399  18.434  0.00  0.00     0.269 A 
ATOM     10  C   UNL d   1     -39.940  14.957  19.450  0.00  0.00     0.022 A 
ATOM     11  C   UNL d   1     -40.658  15.287  16.276  0.00  0.00     0.035 A 
ATOM     12  C   UNL d   1     -41.698  15.842  17.409  0.00  0.00     0.084 A 
ATOM     13  N   UNL d   1     -38.002  13.950  19.318  0.00  0.00    -0.128 N 
ATOM     14  O   UNL d   1     -41.351  15.683  19.015  0.00  0.00    -0.266 OA
ATOM     15  C   UNL d   1     -41.873  15.922  16.613  0.00  0.00     0.019 A 
ATOM     16  C   UNL d   1     -41.354  15.645  16.048  0.00  0.00     0.005 A 
ATOM     17  C   UNL d   1     -40.124  15.002  15.696  0.00  0.00     0.003 C 
ENDROOT
BRANCH   3  18
ATOM     18  S   UNL d   1     -39.047  14.508  20.473  0.00  0.00     0.213 S 
ATOM     19  O   UNL d   1     -39.541  13.838  20.531  0.00  0.00    -0.217 OA
ATOM     20  O   UNL d   1     -38.553  15.173  20.423  0.00  0.00    -0.217 OA
BRANCH  18  21
ATOM     21  C   UNL d   1     -38.850  14.431  21.280  0.00  0.00     0.088 A 
ATOM     22  C   UNL d   1     -38.369  14.995  21.647  0.00  0.00     0.014 A 
ATOM     23  C   UNL d   1     -38.175  14.916  22.451  0.00  0.00     0.030 A 
ATOM     24  C   UNL d   1     -38.465  14.267  22.886  0.00  0.00     0.140 A 
ATOM     25  C   UNL d   1     -38.952  13.698  22.508  0.00  0.00     0.030 A 
ATOM     26  F   UNL d   1     -38.271  14.183  23.698  0.00  0.00    -0.204 F 
ATOM     27  C   UNL d   1     -39.141  13.783  21.709  0.00  0.00     0.014 A 
ENDBRANCH  18  21
ENDBRANCH   3  18
BRANCH   6  28
ATOM     28  C   UNL d   1     -38.380  14.125  17.721  0.00  0.00     0.109 C 
BRANCH  28  29
ATOM     29  C   UNL d   1     -38.275  13.307  17.616  0.00  0.00     0.135 C 
BRANCH  29  30
ATOM     30  O   UNL d   1     -38.001  13.012  16.881  0.00  0.00    -0.325 OA
ATOM     31  C   UNL d   1     -37.940  12.191  16.759  0.00  0.00     0.182 C 
ENDBRANCH  29  30
ENDBRANCH  28  29
ENDBRANCH   6  28
TORSDOF 5
ENDMDL
MODEL 4
REMARK VINA RESULT:      -4.6      5.893      8.818
REMARK  5 active torsions:
REMARK  status: ('A' for Active; 'I' for Inactive)
REMARK    1  A    between atoms: S_5  and  C_3 
REMARK    2  A    between atoms: C_13  and  S_5 
REMARK    3  A    between atoms: C_23  and  N_7 
REMARK    4  A    between atoms: C_30  and  C_23 
REMARK    5  A    between atoms: O_29  and  C_30 
ROOT
ATOM      1  C   UNL d   1     -39.819  14.470  21.165  0.00  0.00     0.155 A 
ATOM      2  C   UNL d   1     -39.322  15.018  20.820  0.00  0.00     0.092 A 
ATOM      3  C   UNL d   1     -40.021  14.882  19.598  0.00  0.00     0.124 A 
ATOM      4  N   UNL d   1     -39.724  14.259  21.947  0.00  0.00    -0.210 NA
ATOM      5  N   UNL d   1     -38.629  15.145  22.055  0.00  0.00    -0.258 N 
ATOM      6  N   UNL d   1     -40.420  14.123  20.730  0.00  0.00    -0.271 N 
ATOM      7  C   UNL d   1     -39.129  14.596  22.393  0.00  0.00     0.152 A 
ATOM      8  C   UNL d   1     -40.516  14.334  19.943  0.00  0.00     0.181 A 
ATOM      9  C   UNL d   1     -38.725  15.358  21.263  0.00  0.00     0.269 A 
ATOM     10  C   UNL d   1     -39.418  15.228  20.038  0.00  0.00     0.022 A 
ATOM     11  C   UNL d   1     -39.034  14.386  23.174  0.00  0.00     0.035 A 
ATOM     12  C   UNL d   1     -38.032  15.486  22.498  0.00  0.00     0.084 A 
ATOM     13  N   UNL d   1     -41.132  13.980  19.496  0.00  0.00    -0.128 N 
ATOM     14  O   UNL d   1     -38.211  15.922  20.916  0.00  0.00    -0.266 OA
ATOM     15  C   UNL d   1     -37.940  15.272  23.282  0.00  0.00     0.019 A 
ATOM     16  C   UNL d   1     -38.440  14.723  23.620  0.00  0.00     0.005 A 
ATOM     17  C   UNL d   1     -39.548  13.822  23.521  0.00  0.00     0.003 C 
ENDROOT
BRANCH   3  18
ATOM     18  S   UNL d   1     -40.124  15.091  18.801  0.00  0.00     0.213 S 
ATOM     19  O   UNL d   1     -40.681  15.676  19.011  0.00  0.00    -0.217 OA
ATOM     20  O   UNL d   1     -39.571  14.512  18.583  0.00  0.00    -0.217 OA
BRANCH  18  21
ATOM     21  C   UNL d   1     -40.218  15.293  17.996  0.00  0.00     0.088 A 
ATOM     22  C   UNL d   1     -40.882  15.722  17.750  0.00  0.00     0.014 A 
ATOM     23  C   UNL d   1     -40.973  15.922  16.948  0.00  0.00     0.030 A 
ATOM     24  C   UNL d   1     -40.397  15.688  16.394  0.00  0.00     0.140 A 
ATOM     25  C   UNL d   1     -39.726  15.253  16.650  0.00  0.00     0.030 A 
ATOM     26  F   UNL d   1     -40.485  15.887  15.584  0.00  0.00    -0.204 F 
ATOM     27  C   UNL d   1     -39.642  15.059  17.448  0.00  0.00     0.014 A 
ENDBRANCH  18  21
ENDBRANCH   3  18
BRANCH   6  28
ATOM     28  C   UNL d   1     -40.924  13.567  21.081  0.00  0.00     0.109 C 
BRANCH  28  29
ATOM     29  C   UNL d   1     -41.746  13.687  21.070  0.00  0.00     0.135 C 
BRANCH  29  30
ATOM     30  O   UNL d   1     -42.243  13.220  21.557  0.00  0.00    -0.325 OA
ATOM     31  C   UNL d   1     -43.012  13.029  21.305  0.00  0.00     0.182 C 
ENDBRANCH  29  30
ENDBRANCH  28  29
ENDBRANCH   6  28
TORSDOF 5
ENDMDL
MODEL 5
REMARK VINA RESULT:      -4.5      2.317      4.583
REMARK  5 active torsions:
REMARK  status: ('A' for Active; 'I' for Inactive)
REMARK    1  A    between atoms: S_5  and  C_3 
REMARK    2  A    between atoms: C_13  and  S_5 
REMARK    3  A    between atoms: C_23  and  N_7 
REMARK    4  A    between atoms: C_30  and  C_23 
REMARK    5  A    between atoms: O_29  and  C_30 
ROOT
ATOM      1  C   UNL d   1     -45.328  12.242  22.830  0.00  0.00     0.155 A 
ATOM      2  C   UNL d   1     -46.036  11.903  23.053  0.00  0.00     0.092 A 
ATOM      3  C   UNL d   1     -46.712  13.102  22.727  0.00  0.00     0.124 A 
ATOM      4  N   UNL d   1     -44.632  11.818  22.879  0.00  0.00    -0.210 NA
ATOM      5  N   UNL d   1     -45.344  10.704  23.376  0.00  0.00    -0.258 N 
ATOM      6  N   UNL d   1     -45.306  13.013  22.554  0.00  0.00    -0.271 N 
ATOM      7  C   UNL d   1     -44.640  11.050  23.152  0.00  0.00     0.152 A 
ATOM      8  C   UNL d   1     -46.004  13.439  22.505  0.00  0.00     0.181 A 
ATOM      9  C   UNL d   1     -46.048  11.133  23.327  0.00  0.00     0.269 A 
ATOM     10  C   UNL d   1     -46.731  12.327  23.004  0.00  0.00     0.022 A 
ATOM     11  C   UNL d   1     -43.945  10.627  23.201  0.00  0.00     0.035 A 
ATOM     12  C   UNL d   1     -45.356   9.934  23.650  0.00  0.00     0.084 A 
ATOM     13  N   UNL d   1     -45.983  14.229  22.222  0.00  0.00    -0.128 N 
ATOM     14  O   UNL d   1     -46.771  10.778  23.557  0.00  0.00    -0.266 OA
ATOM     15  C   UNL d   1     -44.656   9.512  23.698  0.00  0.00     0.019 A 
ATOM     16  C   UNL d   1     -43.952   9.858  23.473  0.00  0.00     0.005 A 
ATOM     17  C   UNL d   1     -43.222  10.982  22.970  0.00  0.00     0.003 C 
ENDROOT
BRANCH   3  18
ATOM     18  S   UNL d   1     -47.416  13.539  22.675  0.00  0.00     0.213 S 
ATOM     19  O   UNL d   1     -47.556  13.250  21.904  0.00  0.00    -0.217 OA
ATOM     20  O   UNL d   1     -47.285  13.832  23.440  0.00  0.00    -0.217 OA
BRANCH  18  21
ATOM     21  C   UNL d   1     -48.122  13.984  22.634  0.00  0.00     0.088 A 
ATOM     22  C   UNL d   1     -48.155  14.743  22.960  0.00  0.00     0.014 A 
ATOM     23  C   UNL d   1     -48.859  15.183  22.918  0.00  0.00     0.030 A 
ATOM     24  C   UNL d   1     -49.530  14.858  22.546  0.00  0.00     0.140 A 
ATOM     25  C   UNL d   1     -49.490  14.086  22.217  0.00  0.00     0.030 A 
ATOM     26  F   UNL d   1     -50.243  15.298  22.501  0.00  0.00    -0.204 F 
ATOM     27  C   UNL d   1     -48.787  13.656  22.263  0.00  0.00     0.014 A 
ENDBRANCH  18  21
ENDBRANCH   3  18
BRANCH   6  28
ATOM     28  C   UNL d   1     -44.586  13.356  22.328  0.00  0.00     0.109 C 
BRANCH  28  29
ATOM     29  C   UNL d   1     -44.348  13.335  21.532  0.00  0.00     0.135 C 
BRANCH  29  30
ATOM     30  O   UNL d   1     -43.639  13.715  21.297  0.00  0.00    -0.325 OA
ATOM     31  C   UNL d   1     -43.035  13.276  20.931  0.00  0.00     0.182 C 
ENDBRANCH  29  30
ENDBRANCH  28  29
ENDBRANCH   6  28
TORSDOF 5
ENDMDL
