MODEL 1
REMARK VINA RESULT:       9.0      0.000      0.000
REMARK  4 active torsions:
REMARK  status: ('A' for Active; 'I' for Inactive)
REMARK    1  A    between atoms: C_7  and  C_1 
REMARK    2  A    between atoms: C_12  and  C_6 
REMARK       I    between atoms: N_11  and  C_7 
REMARK    3  A    between atoms: C_20  and  N_11 
REMARK       I    between atoms: C_13  and  N_14 
REMARK    4  A    between atoms: N_14  and  C_21 
ROOT
ATOM      1  C   UNL d   1      58.504  -2.800  28.816  0.00  0.00     0.108 A 
ATOM      2  C   UNL d   1      59.037  -1.800  29.276  0.00  0.00     0.044 A 
ATOM      3  C   UNL d   1      58.445  -2.257  29.293  0.00  0.00     0.116 A 
ATOM      4  C   UNL d   1      59.518  -2.068  28.748  0.00  0.00     0.112 A 
ATOM      5  S   UNL d   1      59.190  -2.696  28.455  0.00  0.00    -0.061 SA
ATOM      6  C   UNL d   1      59.218  -1.158  29.676  0.00  0.00     0.005 A 
ATOM      7  N   UNL d   1      60.197  -1.704  28.602  0.00  0.00    -0.239 NA
ATOM      8  C   UNL d   1      59.888  -0.790  29.539  0.00  0.00     0.018 A 
ATOM      9  C   UNL d   1      60.369  -1.058  29.011  0.00  0.00     0.082 A 
ATOM     10  N   UNL d   1      57.689  -2.196  29.832  0.00  0.00    -0.147 N 
ATOM     11  C   UNL d   1      60.216  -0.095  29.887  0.00  0.00     0.002 A 
ATOM     12  C   UNL d   1      61.027  -0.607  28.948  0.00  0.00     0.019 A 
ATOM     13  C   UNL d   1      60.925   0.028  29.525  0.00  0.00     0.002 A 
ENDROOT
BRANCH   1  14
ATOM     14  C   UNL d   1      57.867  -3.556  28.620  0.00  0.00     0.287 C 
ATOM     15  N   UNL d   1      57.778  -4.527  28.456  0.00  0.00    -0.208 NA
ATOM     16  O   UNL d   1      57.018  -3.201  28.575  0.00  0.00    -0.265 OA
BRANCH  15  17
ATOM     17  C   UNL d   1      58.458  -5.020  28.459  0.00  0.00     0.085 A 
ATOM     18  C   UNL d   1      58.349  -5.841  28.456  0.00  0.00     0.021 A 
ATOM     19  C   UNL d   1      59.018  -6.351  28.459  0.00  0.00     0.021 A 
ATOM     20  C   UNL d   1      59.789  -6.036  28.466  0.00  0.00     0.085 A 
ATOM     21  C   UNL d   1      59.888  -5.217  28.469  0.00  0.00     0.021 A 
ATOM     22  C   UNL d   1      59.225  -4.710  28.466  0.00  0.00     0.021 A 
BRANCH  20  23
ATOM     23  N   UNL d   1      60.576  -6.667  28.469  0.00  0.00    -0.208 NA
ATOM     24  C   UNL d   1      60.265  -7.827  28.499  0.00  0.00     0.279 C 
ATOM     25  O   UNL d   1      61.133  -8.549  28.504  0.00  0.00    -0.265 OA
ATOM     26  C   UNL d   1      59.045  -8.448  28.529  0.00  0.00     0.068 C 
ENDBRANCH  20  23
ENDBRANCH  15  17
ENDBRANCH   1  14
BRANCH   6  27
ATOM     27  C   UNL d   1      58.704  -0.871  30.241  0.00  0.00     0.000 A 
ATOM     28  C   UNL d   1      58.044  -0.448  30.005  0.00  0.00     0.000 A 
ATOM     29  C   UNL d   1      57.529  -0.161  30.570  0.00  0.00     0.000 A 
ATOM     30  C   UNL d   1      57.650  -0.282  31.371  0.00  0.00     0.000 A 
ATOM     31  C   UNL d   1      58.303  -0.700  31.608  0.00  0.00     0.000 A 
ATOM     32  C   UNL d   1      56.915   0.125  32.234  0.00  0.00     0.000 C 
ATOM     33  C   UNL d   1      58.841  -1.003  31.053  0.00  0.00     0.000 A 
ENDBRANCH   6  27
TORSDOF 4
ENDMDL
MODEL 2
REMARK VINA RESULT:      11.5      6.088      7.869
REMARK  4 active torsions:
REMARK  status: ('A' for Active; 'I' for Inactive)
REMARK    1  A    between atoms: C_7  and  C_1 
REMARK    2  A    between atoms: C_12  and  C_6 
REMARK       I    between atoms: N_11  and  C_7 
REMARK    3  A    between atoms: C_20  and  N_11 
REMARK       I    between atoms: C_13  and  N_14 
REMARK    4  A    between atoms: N_14  and  C_21 
ROOT
ATOM      1  C   UNL d   1      59.666  -9.307  33.077  0.00  0.00     0.108 A 
ATOM      2  C   UNL d   1      59.257  -8.935  34.168  0.00  0.00     0.044 A 
ATOM      3  C   UNL d   1      59.736  -8.816  33.606  0.00  0.00     0.116 A 
ATOM      4  C   UNL d   1      58.844  -9.551  33.990  0.00  0.00     0.112 A 
ATOM      5  S   UNL d   1      59.095  -9.791  33.307  0.00  0.00    -0.061 SA
ATOM      6  C   UNL d   1      59.129  -8.563  34.839  0.00  0.00     0.005 A 
ATOM      7  N   UNL d   1      58.289  -9.816  34.477  0.00  0.00    -0.239 NA
ATOM      8  C   UNL d   1      58.581  -8.818  35.328  0.00  0.00     0.018 A 
ATOM      9  C   UNL d   1      58.168  -9.434  35.150  0.00  0.00     0.082 A 
ATOM     10  N   UNL d   1      60.372  -8.141  33.528  0.00  0.00    -0.147 N 
ATOM     11  C   UNL d   1      58.333  -8.523  36.078  0.00  0.00     0.002 A 
ATOM     12  C   UNL d   1      57.634  -9.611  35.718  0.00  0.00     0.019 A 
ATOM     13  C   UNL d   1      57.743  -9.010  36.330  0.00  0.00     0.002 A 
ENDROOT
BRANCH   1  14
ATOM     14  C   UNL d   1      60.172  -9.395  32.211  0.00  0.00     0.287 C 
ATOM     15  N   UNL d   1      60.099  -9.519  31.232  0.00  0.00    -0.208 NA
ATOM     16  O   UNL d   1      61.070  -9.336  32.404  0.00  0.00    -0.265 OA
BRANCH  15  17
ATOM     17  C   UNL d   1      59.345  -9.593  30.871  0.00  0.00     0.085 A 
ATOM     18  C   UNL d   1      59.294  -9.519  30.047  0.00  0.00     0.021 A 
ATOM     19  C   UNL d   1      58.547  -9.590  29.667  0.00  0.00     0.021 A 
ATOM     20  C   UNL d   1      57.858  -9.734  30.112  0.00  0.00     0.085 A 
ATOM     21  C   UNL d   1      57.918  -9.806  30.932  0.00  0.00     0.021 A 
ATOM     22  C   UNL d   1      58.659  -9.736  31.310  0.00  0.00     0.021 A 
BRANCH  20  23
ATOM     23  N   UNL d   1      56.974  -9.815  29.635  0.00  0.00    -0.208 NA
ATOM     24  C   UNL d   1      56.674  -8.837  29.004  0.00  0.00     0.279 C 
ATOM     25  O   UNL d   1      55.686  -8.909  28.462  0.00  0.00    -0.265 OA
ATOM     26  C   UNL d   1      57.309  -7.639  28.814  0.00  0.00     0.068 C 
ENDBRANCH  20  23
ENDBRANCH  15  17
ENDBRANCH   1  14
BRANCH   6  27
ATOM     27  C   UNL d   1      59.570  -7.904  35.030  0.00  0.00     0.000 A 
ATOM     28  C   UNL d   1      59.260  -7.158  34.893  0.00  0.00     0.000 A 
ATOM     29  C   UNL d   1      59.701  -6.499  35.083  0.00  0.00     0.000 A 
ATOM     30  C   UNL d   1      60.451  -6.556  35.410  0.00  0.00     0.000 A 
ATOM     31  C   UNL d   1      60.761  -7.292  35.547  0.00  0.00     0.000 A 
ATOM     32  C   UNL d   1      61.133  -5.607  35.704  0.00  0.00     0.000 C 
ATOM     33  C   UNL d   1      60.332  -7.979  35.361  0.00  0.00     0.000 A 
ENDBRANCH   6  27
TORSDOF 4
ENDMDL
