MODEL 1
REMARK VINA RESULT:      89.6      0.000      0.000
REMARK  5 active torsions:
REMARK  status: ('A' for Active; 'I' for Inactive)
REMARK    1  A    between atoms: N_10  and  C_3 
REMARK    2  A    between atoms: N_11  and  C_6 
REMARK    3  A    between atoms: C_12  and  N_10 
REMARK    4  A    between atoms: C_13  and  N_11 
REMARK    5  A    between atoms: C_21  and  C_13 
ROOT
ATOM      1  C   UNL d   1     -58.696 -98.869 -43.841  0.00  0.00     0.187 A 
ATOM      2  C   UNL d   1     -57.916 -98.842 -43.736  0.00  0.00     0.094 A 
ATOM      3  C   UNL d   1     -57.433 -98.787 -44.360  0.00  0.00     0.185 A 
ATOM      4  N   UNL d   1     -58.999 -98.841 -44.563  0.00  0.00    -0.040 NA
ATOM      5  N   UNL d   1     -57.744 -98.760 -45.082  0.00  0.00    -0.040 NA
ATOM      6  C   UNL d   1     -58.525 -98.787 -45.183  0.00  0.00     0.753 A 
ATOM      7  N   UNL d   1     -58.869 -98.952 -42.485  0.00  0.00    -0.162 NA
ATOM      8  N   UNL d   1     -59.179 -98.924 -43.219  0.00  0.00    -0.208 N 
ATOM      9  C   UNL d   1     -58.088 -98.925 -42.384  0.00  0.00     0.127 A 
ATOM     10  C   UNL d   1     -59.956 -98.951 -43.319  0.00  0.00     0.123 C 
ENDROOT
BRANCH   3  11
ATOM     11  N   UNL d   1     -56.620 -98.758 -44.263  0.00  0.00    -0.226 NA
BRANCH  11  12
ATOM     12  C   UNL d   1     -56.187 -99.451 -44.177  0.00  0.00     0.083 A 
ATOM     13  C   UNL d   1     -55.873 -99.843 -44.840  0.00  0.00     0.021 A 
ATOM     14  C   UNL d   1     -55.438-100.539 -44.756  0.00  0.00     0.031 A 
ATOM     15  C   UNL d   1     -55.314-100.853 -43.995  0.00  0.00     0.140 A 
ATOM     16  C   UNL d   1     -55.622-100.470 -43.337  0.00  0.00     0.031 A 
ATOM     17  F   UNL d   1     -54.882-101.546 -43.900  0.00  0.00    -0.204 F 
ATOM     18  C   UNL d   1     -56.060 -99.768 -43.427  0.00  0.00     0.021 A 
ENDBRANCH  11  12
ENDBRANCH   3  11
BRANCH   6  19
ATOM     19  N   UNL d   1     -58.843 -98.757 -45.950  0.00  0.00    -0.058 NA
BRANCH  19  20
ATOM     20  C   UNL d   1     -58.517 -99.232 -46.550  0.00  0.00     0.118 C 
BRANCH  20  21
ATOM     21  C   UNL d   1     -58.167 -99.090 -47.285  0.00  0.00     0.020 A 
ATOM     22  C   UNL d   1     -58.628 -99.051 -47.972  0.00  0.00     0.002 A 
ATOM     23  C   UNL d   1     -58.261 -98.907 -48.706  0.00  0.00     0.000 A 
ATOM     24  C   UNL d   1     -57.448 -98.805 -48.749  0.00  0.00     0.000 A 
ATOM     25  C   UNL d   1     -56.990 -98.845 -48.069  0.00  0.00     0.000 A 
ATOM     26  C   UNL d   1     -57.349 -98.987 -47.338  0.00  0.00     0.002 A 
ENDBRANCH  20  21
ENDBRANCH  19  20
ENDBRANCH   6  19
TORSDOF 5
ENDMDL
