MODEL 1
REMARK VINA RESULT:      -3.0      0.000      0.000
REMARK  3 active torsions:
REMARK  status: ('A' for Active; 'I' for Inactive)
REMARK    1  A    between atoms: C_2  and  S_1 
REMARK    2  A    between atoms: N_3  and  S_1 
REMARK    3  A    between atoms: C_4  and  N_3 
ROOT
ATOM      1  C   UNL d   1      31.351  17.126 -24.256  0.00  0.00     0.094 A 
ATOM      2  C   UNL d   1      31.917  17.721 -24.363  0.00  0.00     0.021 A 
ATOM      3  C   UNL d   1      32.519  17.776 -23.855  0.00  0.00     0.040 A 
ATOM      4  C   UNL d   1      32.583  17.246 -23.226  0.00  0.00     0.196 A 
ATOM      5  C   UNL d   1      31.412  16.603 -23.637  0.00  0.00     0.023 A 
ATOM      6  C   UNL d   1      32.017  16.650 -23.119  0.00  0.00     0.044 A 
ATOM      7  O   UNL d   1      33.241  17.331 -22.698  0.00  0.00    -0.287 OA
ATOM      8  C   UNL d   1      31.854  18.252 -24.991  0.00  0.00     0.002 A 
ATOM      9  C   UNL d   1      33.114  18.391 -23.955  0.00  0.00     0.003 A 
ATOM     10  C   UNL d   1      33.054  18.915 -24.574  0.00  0.00     0.000 A 
ATOM     11  C   UNL d   1      32.424  18.850 -25.097  0.00  0.00     0.000 A 
ENDROOT
BRANCH   1  12
ATOM     12  N   UNL d   1      30.712  17.054 -24.781  0.00  0.00    -0.158 NA
BRANCH  12  13
ATOM     13  S   UNL d   1      30.008  16.690 -24.538  0.00  0.00     0.291 S 
ATOM     14  O   UNL d   1      30.307  15.948 -24.777  0.00  0.00    -0.198 OA
ATOM     15  O   UNL d   1      29.711  17.402 -24.305  0.00  0.00    -0.198 OA
BRANCH  13  16
ATOM     16  C   UNL d   1      29.304  16.356 -24.291  0.00  0.00     0.135 A 
ATOM     17  S   UNL d   1      29.080  15.607 -24.436  0.00  0.00    -0.073 SA
ATOM     18  C   UNL d   1      28.334  15.456 -24.103  0.00  0.00     0.036 A 
ATOM     19  C   UNL d   1      28.093  16.135 -23.741  0.00  0.00     0.008 A 
ATOM     20  C   UNL d   1      28.681  16.712 -23.844  0.00  0.00     0.020 A 
ENDBRANCH  13  16
ENDBRANCH  12  13
ENDBRANCH   1  12
TORSDOF 3
ENDMDL
MODEL 2
REMARK VINA RESULT:      -2.5      1.381      3.955
REMARK  3 active torsions:
REMARK  status: ('A' for Active; 'I' for Inactive)
REMARK    1  A    between atoms: C_2  and  S_1 
REMARK    2  A    between atoms: N_3  and  S_1 
REMARK    3  A    between atoms: C_4  and  N_3 
ROOT
ATOM      1  C   UNL d   1      30.419  16.968 -24.318  0.00  0.00     0.094 A 
ATOM      2  C   UNL d   1      29.863  16.515 -23.904  0.00  0.00     0.021 A 
ATOM      3  C   UNL d   1      29.093  16.639 -24.034  0.00  0.00     0.040 A 
ATOM      4  C   UNL d   1      28.848  17.211 -24.575  0.00  0.00     0.196 A 
ATOM      5  C   UNL d   1      30.180  17.532 -24.851  0.00  0.00     0.023 A 
ATOM      6  C   UNL d   1      29.406  17.663 -24.989  0.00  0.00     0.044 A 
ATOM      7  O   UNL d   1      28.016  17.319 -24.692  0.00  0.00    -0.287 OA
ATOM      8  C   UNL d   1      30.106  15.943 -23.363  0.00  0.00     0.002 A 
ATOM      9  C   UNL d   1      28.504  16.174 -23.609  0.00  0.00     0.003 A 
ATOM     10  C   UNL d   1      28.742  15.609 -23.075  0.00  0.00     0.000 A 
ATOM     11  C   UNL d   1      29.544  15.489 -22.947  0.00  0.00     0.000 A 
ENDROOT
BRANCH   1  12
ATOM     12  N   UNL d   1      31.232  16.851 -24.193  0.00  0.00    -0.158 NA
BRANCH  12  13
ATOM     13  S   UNL d   1      31.766  17.476 -24.294  0.00  0.00     0.291 S 
ATOM     14  O   UNL d   1      31.694  17.672 -23.486  0.00  0.00    -0.198 OA
ATOM     15  O   UNL d   1      31.842  17.296 -25.075  0.00  0.00    -0.198 OA
BRANCH  13  16
ATOM     16  C   UNL d   1      32.295  18.087 -24.421  0.00  0.00     0.135 A 
ATOM     17  S   UNL d   1      32.752  18.166 -25.067  0.00  0.00    -0.073 SA
ATOM     18  C   UNL d   1      33.221  18.849 -25.009  0.00  0.00     0.036 A 
ATOM     19  C   UNL d   1      33.046  19.200 -24.306  0.00  0.00     0.008 A 
ATOM     20  C   UNL d   1      32.470  18.744 -23.919  0.00  0.00     0.020 A 
ENDBRANCH  13  16
ENDBRANCH  12  13
ENDBRANCH   1  12
TORSDOF 3
ENDMDL
MODEL 3
REMARK VINA RESULT:      -2.1      2.169      3.934
REMARK  3 active torsions:
REMARK  status: ('A' for Active; 'I' for Inactive)
REMARK    1  A    between atoms: C_2  and  S_1 
REMARK    2  A    between atoms: N_3  and  S_1 
REMARK    3  A    between atoms: C_4  and  N_3 
ROOT
ATOM      1  C   UNL d   1      32.369  17.651 -23.917  0.00  0.00     0.094 A 
ATOM      2  C   UNL d   1      32.391  16.920 -24.306  0.00  0.00     0.021 A 
ATOM      3  C   UNL d   1      31.716  16.526 -24.425  0.00  0.00     0.040 A 
ATOM      4  C   UNL d   1      31.000  16.840 -24.165  0.00  0.00     0.196 A 
ATOM      5  C   UNL d   1      31.664  17.961 -23.659  0.00  0.00     0.023 A 
ATOM      6  C   UNL d   1      30.978  17.572 -23.775  0.00  0.00     0.044 A 
ATOM      7  O   UNL d   1      30.294  16.394 -24.308  0.00  0.00    -0.287 OA
ATOM      8  C   UNL d   1      33.108  16.605 -24.567  0.00  0.00     0.002 A 
ATOM      9  C   UNL d   1      31.727  15.765 -24.830  0.00  0.00     0.003 A 
ATOM     10  C   UNL d   1      32.432  15.453 -25.087  0.00  0.00     0.000 A 
ATOM     11  C   UNL d   1      33.128  15.870 -24.959  0.00  0.00     0.000 A 
ENDROOT
BRANCH   1  12
ATOM     12  N   UNL d   1      33.069  18.077 -23.783  0.00  0.00    -0.158 NA
BRANCH  12  13
ATOM     13  S   UNL d   1      33.058  18.770 -23.329  0.00  0.00     0.291 S 
ATOM     14  O   UNL d   1      32.914  19.221 -24.016  0.00  0.00    -0.198 OA
ATOM     15  O   UNL d   1      33.196  18.343 -22.660  0.00  0.00    -0.198 OA
BRANCH  13  16
ATOM     16  C   UNL d   1      33.051  19.438 -22.857  0.00  0.00     0.135 A 
ATOM     17  S   UNL d   1      33.237  20.171 -23.105  0.00  0.00    -0.073 SA
ATOM     18  C   UNL d   1      33.171  20.714 -22.480  0.00  0.00     0.036 A 
ATOM     19  C   UNL d   1      32.938  20.301 -21.828  0.00  0.00     0.008 A 
ATOM     20  C   UNL d   1      32.856  19.501 -22.038  0.00  0.00     0.020 A 
ENDBRANCH  13  16
ENDBRANCH  12  13
ENDBRANCH   1  12
TORSDOF 3
ENDMDL
MODEL 4
REMARK VINA RESULT:      -2.0      1.441      1.960
REMARK  3 active torsions:
REMARK  status: ('A' for Active; 'I' for Inactive)
REMARK    1  A    between atoms: C_2  and  S_1 
REMARK    2  A    between atoms: N_3  and  S_1 
REMARK    3  A    between atoms: C_4  and  N_3 
ROOT
ATOM      1  C   UNL d   1      32.477  18.365 -24.198  0.00  0.00     0.094 A 
ATOM      2  C   UNL d   1      32.731  19.150 -24.278  0.00  0.00     0.021 A 
ATOM      3  C   UNL d   1      32.974  19.544 -23.638  0.00  0.00     0.040 A 
ATOM      4  C   UNL d   1      32.975  19.177 -22.899  0.00  0.00     0.196 A 
ATOM      5  C   UNL d   1      32.478  18.002 -23.471  0.00  0.00     0.023 A 
ATOM      6  C   UNL d   1      32.721  18.392 -22.819  0.00  0.00     0.044 A 
ATOM      7  O   UNL d   1      33.241  19.626 -22.231  0.00  0.00    -0.287 OA
ATOM      8  C   UNL d   1      32.730  19.517 -25.017  0.00  0.00     0.002 A 
ATOM      9  C   UNL d   1      33.239  20.360 -23.709  0.00  0.00     0.003 A 
ATOM     10  C   UNL d   1      33.239  20.724 -24.436  0.00  0.00     0.000 A 
ATOM     11  C   UNL d   1      32.985  20.307 -25.095  0.00  0.00     0.000 A 
ENDROOT
BRANCH   1  12
ATOM     12  N   UNL d   1      32.219  17.937 -24.861  0.00  0.00    -0.158 NA
BRANCH  12  13
ATOM     13  S   UNL d   1      31.663  17.329 -24.776  0.00  0.00     0.291 S 
ATOM     14  O   UNL d   1      31.046  17.892 -24.767  0.00  0.00    -0.198 OA
ATOM     15  O   UNL d   1      32.251  16.779 -24.784  0.00  0.00    -0.198 OA
BRANCH  13  16
ATOM     16  C   UNL d   1      31.134  16.710 -24.694  0.00  0.00     0.135 A 
ATOM     17  S   UNL d   1      31.316  15.942 -24.786  0.00  0.00    -0.073 SA
ATOM     18  C   UNL d   1      30.645  15.467 -24.661  0.00  0.00     0.036 A 
ATOM     19  C   UNL d   1      30.033  15.961 -24.486  0.00  0.00     0.008 A 
ATOM     20  C   UNL d   1      30.312  16.743 -24.500  0.00  0.00     0.020 A 
ENDBRANCH  13  16
ENDBRANCH  12  13
ENDBRANCH   1  12
TORSDOF 3
ENDMDL
MODEL 5
REMARK VINA RESULT:      -1.6      3.275      4.267
REMARK  3 active torsions:
REMARK  status: ('A' for Active; 'I' for Inactive)
REMARK    1  A    between atoms: C_2  and  S_1 
REMARK    2  A    between atoms: N_3  and  S_1 
REMARK    3  A    between atoms: C_4  and  N_3 
ROOT
ATOM      1  C   UNL d   1      32.986  20.418 -22.460  0.00  0.00     0.094 A 
ATOM      2  C   UNL d   1      32.999  21.246 -22.447  0.00  0.00     0.021 A 
ATOM      3  C   UNL d   1      32.788  21.624 -21.786  0.00  0.00     0.040 A 
ATOM      4  C   UNL d   1      32.559  21.199 -21.118  0.00  0.00     0.196 A 
ATOM      5  C   UNL d   1      32.760  19.997 -21.803  0.00  0.00     0.023 A 
ATOM      6  C   UNL d   1      32.546  20.370 -21.131  0.00  0.00     0.044 A 
ATOM      7  O   UNL d   1      32.339  21.634 -20.424  0.00  0.00    -0.287 OA
ATOM      8  C   UNL d   1      33.228  21.672 -23.115  0.00  0.00     0.002 A 
ATOM      9  C   UNL d   1      32.798  22.486 -21.760  0.00  0.00     0.003 A 
ATOM     10  C   UNL d   1      33.024  22.908 -22.417  0.00  0.00     0.000 A 
ATOM     11  C   UNL d   1      33.240  22.506 -23.100  0.00  0.00     0.000 A 
ENDROOT
BRANCH   1  12
ATOM     12  N   UNL d   1      33.203  20.005 -23.147  0.00  0.00    -0.158 NA
BRANCH  12  13
ATOM     13  S   UNL d   1      32.892  19.253 -23.301  0.00  0.00     0.291 S 
ATOM     14  O   UNL d   1      33.241  18.962 -22.601  0.00  0.00    -0.198 OA
ATOM     15  O   UNL d   1      32.551  19.524 -23.978  0.00  0.00    -0.198 OA
BRANCH  13  16
ATOM     16  C   UNL d   1      32.572  18.521 -23.476  0.00  0.00     0.135 A 
ATOM     17  S   UNL d   1      32.920  17.823 -23.320  0.00  0.00    -0.073 SA
ATOM     18  C   UNL d   1      32.439  17.195 -23.573  0.00  0.00     0.036 A 
ATOM     19  C   UNL d   1      31.775  17.518 -23.895  0.00  0.00     0.008 A 
ATOM     20  C   UNL d   1      31.833  18.345 -23.847  0.00  0.00     0.020 A 
ENDBRANCH  13  16
ENDBRANCH  12  13
ENDBRANCH   1  12
TORSDOF 3
ENDMDL
MODEL 6
REMARK VINA RESULT:      -0.9      3.076      4.660
REMARK  3 active torsions:
REMARK  status: ('A' for Active; 'I' for Inactive)
REMARK    1  A    between atoms: C_2  and  S_1 
REMARK    2  A    between atoms: N_3  and  S_1 
REMARK    3  A    between atoms: C_4  and  N_3 
ROOT
ATOM      1  C   UNL d   1      32.912  18.991 -22.865  0.00  0.00     0.094 A 
ATOM      2  C   UNL d   1      32.924  18.184 -23.051  0.00  0.00     0.021 A 
ATOM      3  C   UNL d   1      32.646  17.946 -23.751  0.00  0.00     0.040 A 
ATOM      4  C   UNL d   1      32.347  18.495 -24.289  0.00  0.00     0.196 A 
ATOM      5  C   UNL d   1      32.618  19.534 -23.394  0.00  0.00     0.023 A 
ATOM      6  C   UNL d   1      32.335  19.302 -24.103  0.00  0.00     0.044 A 
ATOM      7  O   UNL d   1      32.056  18.207 -25.031  0.00  0.00    -0.287 OA
ATOM      8  C   UNL d   1      33.223  17.635 -22.513  0.00  0.00     0.002 A 
ATOM      9  C   UNL d   1      32.653  17.109 -23.955  0.00  0.00     0.003 A 
ATOM     10  C   UNL d   1      32.947  16.565 -23.427  0.00  0.00     0.000 A 
ATOM     11  C   UNL d   1      33.234  16.823 -22.702  0.00  0.00     0.000 A 
ENDROOT
BRANCH   1  12
ATOM     12  N   UNL d   1      33.201  19.259 -22.134  0.00  0.00    -0.158 NA
BRANCH  12  13
ATOM     13  S   UNL d   1      33.010  20.016 -21.859  0.00  0.00     0.291 S 
ATOM     14  O   UNL d   1      33.188  20.336 -22.609  0.00  0.00    -0.198 OA
ATOM     15  O   UNL d   1      32.835  19.718 -21.132  0.00  0.00    -0.198 OA
BRANCH  13  16
ATOM     16  C   UNL d   1      32.815  20.754 -21.563  0.00  0.00     0.135 A 
ATOM     17  S   UNL d   1      33.240  21.416 -21.677  0.00  0.00    -0.073 SA
ATOM     18  C   UNL d   1      32.879  22.062 -21.297  0.00  0.00     0.036 A 
ATOM     19  C   UNL d   1      32.212  21.786 -20.939  0.00  0.00     0.008 A 
ATOM     20  C   UNL d   1      32.149  20.971 -21.090  0.00  0.00     0.020 A 
ENDBRANCH  13  16
ENDBRANCH  12  13
ENDBRANCH   1  12
TORSDOF 3
ENDMDL
