MODEL 1
REMARK VINA RESULT:      -7.9      0.000      0.000
REMARK  3 active torsions:
REMARK  status: ('A' for Active; 'I' for Inactive)
REMARK    1  A    between atoms: S_3  and  N_1 
REMARK    2  A    between atoms: C_7  and  C_4 
REMARK    3  A    between atoms: C_11  and  C_5 
ROOT
ATOM      1  N   UNL d   1     -49.599  13.390  22.369  0.00  0.00    -0.155 N 
ATOM      2  N   UNL d   1     -49.012  12.780  22.376  0.00  0.00    -0.156 NA
ATOM      3  C   UNL d   1     -49.384  13.898  22.990  0.00  0.00     0.102 A 
ATOM      4  C   UNL d   1     -48.477  12.930  22.977  0.00  0.00     0.104 A 
ATOM      5  C   UNL d   1     -48.722  13.634  23.355  0.00  0.00     0.041 A 
ENDROOT
BRANCH   4   6
ATOM      6  C   UNL d   1     -47.840  12.471  23.156  0.00  0.00     0.019 A 
ATOM      7  C   UNL d   1     -47.075  12.741  22.975  0.00  0.00     0.002 A 
ATOM      8  C   UNL d   1     -46.409  12.289  23.150  0.00  0.00     0.007 A 
ATOM      9  C   UNL d   1     -46.492  11.541  23.516  0.00  0.00     0.035 A 
ATOM     10  C   UNL d   1     -47.260  11.271  23.698  0.00  0.00     0.007 A 
ATOM     11 BR   UNL d   1     -45.831  11.092  23.690  0.00  0.00    -0.049 Br
ATOM     12  C   UNL d   1     -47.926  11.725  23.522  0.00  0.00     0.002 A 
ENDBRANCH   4   6
BRANCH   1  13
ATOM     13  S   UNL d   1     -50.224  13.454  21.868  0.00  0.00     0.266 S 
ATOM     14  O   UNL d   1     -50.883  13.514  21.352  0.00  0.00    -0.203 OA
ATOM     15  O   UNL d   1     -49.803  13.959  21.401  0.00  0.00    -0.203 OA
ATOM     16  C   UNL d   1     -50.660  12.929  22.354  0.00  0.00     0.165 C 
ENDBRANCH   1  13
BRANCH   3  17
ATOM     17  C   UNL d   1     -49.802  14.579  23.193  0.00  0.00     0.048 A 
ATOM     18  S   UNL d   1     -50.499  14.624  23.625  0.00  0.00    -0.085 SA
ATOM     19  C   UNL d   1     -50.721  15.397  23.698  0.00  0.00     0.035 A 
ATOM     20  C   UNL d   1     -50.165  15.855  23.310  0.00  0.00     0.007 A 
ATOM     21  C   UNL d   1     -49.602  15.362  23.000  0.00  0.00     0.009 A 
ENDBRANCH   3  17
TORSDOF 3
ENDMDL
MODEL 2
REMARK VINA RESULT:      -6.8      2.258      3.888
REMARK  3 active torsions:
REMARK  status: ('A' for Active; 'I' for Inactive)
REMARK    1  A    between atoms: S_3  and  N_1 
REMARK    2  A    between atoms: C_7  and  C_4 
REMARK    3  A    between atoms: C_11  and  C_5 
ROOT
ATOM      1  N   UNL d   1     -48.218  12.415  22.756  0.00  0.00    -0.155 N 
ATOM      2  N   UNL d   1     -48.952  12.814  22.888  0.00  0.00    -0.156 NA
ATOM      3  C   UNL d   1     -47.637  12.999  22.858  0.00  0.00     0.102 A 
ATOM      4  C   UNL d   1     -48.803  13.599  23.060  0.00  0.00     0.104 A 
ATOM      5  C   UNL d   1     -47.974  13.704  23.039  0.00  0.00     0.041 A 
ENDROOT
BRANCH   4   6
ATOM      6  C   UNL d   1     -49.364  14.155  23.219  0.00  0.00     0.019 A 
ATOM      7  C   UNL d   1     -49.179  14.961  23.140  0.00  0.00     0.002 A 
ATOM      8  C   UNL d   1     -49.737  15.546  23.297  0.00  0.00     0.007 A 
ATOM      9  C   UNL d   1     -50.509  15.336  23.542  0.00  0.00     0.035 A 
ATOM     10  C   UNL d   1     -50.695  14.527  23.620  0.00  0.00     0.007 A 
ATOM     11 BR   UNL d   1     -51.064  15.916  23.698  0.00  0.00    -0.049 Br
ATOM     12  C   UNL d   1     -50.134  13.942  23.463  0.00  0.00     0.002 A 
ENDBRANCH   4   6
BRANCH   1  13
ATOM     13  S   UNL d   1     -48.115  11.639  22.572  0.00  0.00     0.266 S 
ATOM     14  O   UNL d   1     -48.007  10.827  22.392  0.00  0.00    -0.203 OA
ATOM     15  O   UNL d   1     -48.137  11.819  21.786  0.00  0.00    -0.203 OA
ATOM     16  C   UNL d   1     -48.093  11.454  23.389  0.00  0.00     0.165 C 
ENDBRANCH   1  13
BRANCH   3  17
ATOM     17  C   UNL d   1     -46.828  12.863  22.782  0.00  0.00     0.048 A 
ATOM     18  S   UNL d   1     -46.313  12.589  23.360  0.00  0.00    -0.085 SA
ATOM     19  C   UNL d   1     -45.568  12.534  23.053  0.00  0.00     0.035 A 
ATOM     20  C   UNL d   1     -45.601  12.772  22.272  0.00  0.00     0.007 A 
ATOM     21  C   UNL d   1     -46.366  12.974  22.100  0.00  0.00     0.009 A 
ENDBRANCH   3  17
TORSDOF 3
ENDMDL
MODEL 3
REMARK VINA RESULT:      -6.5      9.697     10.642
REMARK  3 active torsions:
REMARK  status: ('A' for Active; 'I' for Inactive)
REMARK    1  A    between atoms: S_3  and  N_1 
REMARK    2  A    between atoms: C_7  and  C_4 
REMARK    3  A    between atoms: C_11  and  C_5 
ROOT
ATOM      1  N   UNL d   1     -40.152  14.758  18.313  0.00  0.00    -0.155 N 
ATOM      2  N   UNL d   1     -40.266  14.986  19.119  0.00  0.00    -0.156 NA
ATOM      3  C   UNL d   1     -39.368  14.485  18.278  0.00  0.00     0.102 A 
ATOM      4  C   UNL d   1     -39.575  14.852  19.536  0.00  0.00     0.104 A 
ATOM      5  C   UNL d   1     -39.018  14.537  18.996  0.00  0.00     0.041 A 
ENDROOT
BRANCH   4   6
ATOM      6  C   UNL d   1     -39.468  15.001  20.320  0.00  0.00     0.019 A 
ATOM      7  C   UNL d   1     -39.196  15.748  20.565  0.00  0.00     0.002 A 
ATOM      8  C   UNL d   1     -39.080  15.922  21.360  0.00  0.00     0.007 A 
ATOM      9  C   UNL d   1     -39.236  15.344  21.945  0.00  0.00     0.035 A 
ATOM     10  C   UNL d   1     -39.509  14.595  21.700  0.00  0.00     0.007 A 
ATOM     11 BR   UNL d   1     -39.121  15.516  22.736  0.00  0.00    -0.049 Br
ATOM     12  C   UNL d   1     -39.624  14.421  20.901  0.00  0.00     0.002 A 
ENDBRANCH   4   6
BRANCH   1  13
ATOM     13  S   UNL d   1     -40.691  14.799  17.718  0.00  0.00     0.266 S 
ATOM     14  O   UNL d   1     -41.250  14.853  17.095  0.00  0.00    -0.203 OA
ATOM     15  O   UNL d   1     -40.902  14.032  17.851  0.00  0.00    -0.203 OA
ATOM     16  C   UNL d   1     -40.471  15.595  17.581  0.00  0.00     0.165 C 
ENDBRANCH   1  13
BRANCH   3  17
ATOM     17  C   UNL d   1     -39.010  14.203  17.592  0.00  0.00     0.048 A 
ATOM     18  S   UNL d   1     -38.627  14.642  17.013  0.00  0.00    -0.085 SA
ATOM     19  C   UNL d   1     -38.355  14.147  16.435  0.00  0.00     0.035 A 
ATOM     20  C   UNL d   1     -38.564  13.383  16.641  0.00  0.00     0.007 A 
ATOM     21  C   UNL d   1     -38.963  13.410  17.345  0.00  0.00     0.009 A 
ENDBRANCH   3  17
TORSDOF 3
ENDMDL
MODEL 4
REMARK VINA RESULT:      -5.7      9.219     10.325
REMARK  3 active torsions:
REMARK  status: ('A' for Active; 'I' for Inactive)
REMARK    1  A    between atoms: S_3  and  N_1 
REMARK    2  A    between atoms: C_7  and  C_4 
REMARK    3  A    between atoms: C_11  and  C_5 
ROOT
ATOM      1  N   UNL d   1     -40.279  14.850  20.187  0.00  0.00    -0.155 N 
ATOM      2  N   UNL d   1     -40.232  14.760  19.347  0.00  0.00    -0.156 NA
ATOM      3  C   UNL d   1     -39.534  14.615  20.468  0.00  0.00     0.102 A 
ATOM      4  C   UNL d   1     -39.488  14.485  19.148  0.00  0.00     0.104 A 
ATOM      5  C   UNL d   1     -39.058  14.398  19.861  0.00  0.00     0.041 A 
ENDROOT
BRANCH   4   6
ATOM      6  C   UNL d   1     -39.233  14.332  18.399  0.00  0.00     0.019 A 
ATOM      7  C   UNL d   1     -38.938  14.950  17.930  0.00  0.00     0.002 A 
ATOM      8  C   UNL d   1     -38.673  14.817  17.163  0.00  0.00     0.007 A 
ATOM      9  C   UNL d   1     -38.696  14.046  16.838  0.00  0.00     0.035 A 
ATOM     10  C   UNL d   1     -38.992  13.425  17.309  0.00  0.00     0.007 A 
ATOM     11 BR   UNL d   1     -38.432  13.912  16.075  0.00  0.00    -0.049 Br
ATOM     12  C   UNL d   1     -39.258  13.561  18.078  0.00  0.00     0.002 A 
ENDBRANCH   4   6
BRANCH   1  13
ATOM     13  S   UNL d   1     -40.912  15.106  20.611  0.00  0.00     0.266 S 
ATOM     14  O   UNL d   1     -41.569  15.385  21.052  0.00  0.00    -0.203 OA
ATOM     15  O   UNL d   1     -41.138  14.343  20.742  0.00  0.00    -0.203 OA
ATOM     16  C   UNL d   1     -40.676  15.898  20.474  0.00  0.00     0.165 C 
ENDBRANCH   1  13
BRANCH   3  17
ATOM     17  C   UNL d   1     -39.323  14.611  21.264  0.00  0.00     0.048 A 
ATOM     18  S   UNL d   1     -38.998  15.229  21.697  0.00  0.00    -0.085 SA
ATOM     19  C   UNL d   1     -38.876  14.990  22.459  0.00  0.00     0.035 A 
ATOM     20  C   UNL d   1     -39.123  14.213  22.520  0.00  0.00     0.007 A 
ATOM     21  C   UNL d   1     -39.396  13.976  21.796  0.00  0.00     0.009 A 
ENDBRANCH   3  17
TORSDOF 3
ENDMDL
