MODEL 1
REMARK VINA RESULT:      -6.1      0.000      0.000
REMARK  2 active torsions:
REMARK  status: ('A' for Active; 'I' for Inactive)
REMARK    1  A    between atoms: C_5  and  C_1 
REMARK    2  A    between atoms: N_7  and  C_3 
REMARK       I    between atoms: C_8  and  N_7 
ROOT
ATOM      1  C   UNL d   1     -41.474-122.481 -52.226  0.00  0.00     0.231 A 
ATOM      2  O   UNL d   1     -41.705-122.814 -52.946  0.00  0.00    -0.252 OA
ATOM      3  C   UNL d   1     -41.493-122.291 -53.546  0.00  0.00     0.297 A 
ATOM      4  N   UNL d   1     -41.123-121.759 -52.387  0.00  0.00    -0.117 NA
ATOM      5  N   UNL d   1     -41.134-121.642 -53.201  0.00  0.00    -0.101 NA
ENDROOT
BRANCH   1   6
ATOM      6  C   UNL d   1     -41.582-122.824 -51.480  0.00  0.00     0.168 A 
ATOM      7  O   UNL d   1     -42.146-122.515 -50.971  0.00  0.00    -0.297 OA
ATOM      8  C   UNL d   1     -42.253-122.853 -50.237  0.00  0.00     0.149 A 
ATOM      9  C   UNL d   1     -41.802-123.496 -50.006  0.00  0.00     0.149 A 
ATOM     10  O   UNL d   1     -41.235-123.813 -50.508  0.00  0.00    -0.299 OA
ATOM     11  C   UNL d   1     -41.127-123.474 -51.246  0.00  0.00     0.151 A 
ENDBRANCH   1   6
BRANCH   3  12
ATOM     12  N   UNL d   1     -41.624-122.411 -54.349  0.00  0.00    -0.165 NA
ATOM     13  C   UNL d   1     -42.252-122.052 -54.722  0.00  0.00     0.282 C 
ATOM     14  O   UNL d   1     -42.772-121.560 -54.297  0.00  0.00    -0.265 OA
ATOM     15  C   UNL d   1     -42.383-122.173 -55.530  0.00  0.00     0.068 C 
ENDBRANCH   3  12
TORSDOF 2
ENDMDL
MODEL 2
REMARK VINA RESULT:      -6.0      0.961      3.510
REMARK  2 active torsions:
REMARK  status: ('A' for Active; 'I' for Inactive)
REMARK    1  A    between atoms: C_5  and  C_1 
REMARK    2  A    between atoms: N_7  and  C_3 
REMARK       I    between atoms: C_8  and  N_7 
ROOT
ATOM      1  C   UNL d   1     -41.513-122.273 -52.811  0.00  0.00     0.231 A 
ATOM      2  O   UNL d   1     -41.763-122.834 -52.258  0.00  0.00    -0.252 OA
ATOM      3  C   UNL d   1     -41.523-122.578 -51.513  0.00  0.00     0.297 A 
ATOM      4  N   UNL d   1     -41.123-121.679 -52.404  0.00  0.00    -0.117 NA
ATOM      5  N   UNL d   1     -41.129-121.867 -51.604  0.00  0.00    -0.101 NA
ENDROOT
BRANCH   1   6
ATOM      6  C   UNL d   1     -41.639-122.313 -53.628  0.00  0.00     0.168 A 
ATOM      7  O   UNL d   1     -42.178-121.805 -53.980  0.00  0.00    -0.297 OA
ATOM      8  C   UNL d   1     -42.303-121.845 -54.784  0.00  0.00     0.149 A 
ATOM      9  C   UNL d   1     -41.894-122.387 -55.241  0.00  0.00     0.149 A 
ATOM     10  O   UNL d   1     -41.353-122.900 -54.899  0.00  0.00    -0.299 OA
ATOM     11  C   UNL d   1     -41.227-122.861 -54.091  0.00  0.00     0.151 A 
ENDBRANCH   1   6
BRANCH   3  12
ATOM     12  N   UNL d   1     -41.661-122.976 -50.806  0.00  0.00    -0.165 NA
ATOM     13  C   UNL d   1     -42.252-122.729 -50.303  0.00  0.00     0.282 C 
ATOM     14  O   UNL d   1     -42.724-122.072 -50.495  0.00  0.00    -0.265 OA
ATOM     15  C   UNL d   1     -42.389-123.130 -49.593  0.00  0.00     0.068 C 
ENDBRANCH   3  12
TORSDOF 2
ENDMDL
MODEL 3
REMARK VINA RESULT:      -4.2      2.172      4.342
REMARK  2 active torsions:
REMARK  status: ('A' for Active; 'I' for Inactive)
REMARK    1  A    between atoms: C_5  and  C_1 
REMARK    2  A    between atoms: N_7  and  C_3 
REMARK       I    between atoms: C_8  and  N_7 
ROOT
ATOM      1  C   UNL d   1     -42.258-122.737 -50.513  0.00  0.00     0.231 A 
ATOM      2  O   UNL d   1     -42.013-123.274 -49.935  0.00  0.00    -0.252 OA
ATOM      3  C   UNL d   1     -42.550-123.236 -49.311  0.00  0.00     0.297 A 
ATOM      4  N   UNL d   1     -42.940-122.374 -50.242  0.00  0.00    -0.117 NA
ATOM      5  N   UNL d   1     -43.120-122.681 -49.501  0.00  0.00    -0.101 NA
ENDROOT
BRANCH   1   6
ATOM      6  C   UNL d   1     -41.876-122.598 -51.234  0.00  0.00     0.168 A 
ATOM      7  O   UNL d   1     -41.854-123.191 -51.801  0.00  0.00    -0.297 OA
ATOM      8  C   UNL d   1     -41.478-123.055 -52.511  0.00  0.00     0.149 A 
ATOM      9  C   UNL d   1     -41.123-122.332 -52.660  0.00  0.00     0.149 A 
ATOM     10  O   UNL d   1     -41.138-121.733 -52.100  0.00  0.00    -0.299 OA
ATOM     11  C   UNL d   1     -41.516-121.869 -51.387  0.00  0.00     0.151 A 
ENDBRANCH   1   6
BRANCH   3  12
ATOM     12  N   UNL d   1     -42.509-123.682 -48.621  0.00  0.00    -0.165 NA
ATOM     13  C   UNL d   1     -42.277-123.338 -47.920  0.00  0.00     0.282 C 
ATOM     14  O   UNL d   1     -42.078-122.530 -47.892  0.00  0.00    -0.265 OA
ATOM     15  C   UNL d   1     -42.237-123.787 -47.228  0.00  0.00     0.068 C 
ENDBRANCH   3  12
TORSDOF 2
ENDMDL
MODEL 4
REMARK VINA RESULT:      -3.5      1.826      2.748
REMARK  2 active torsions:
REMARK  status: ('A' for Active; 'I' for Inactive)
REMARK    1  A    between atoms: C_5  and  C_1 
REMARK    2  A    between atoms: N_7  and  C_3 
REMARK       I    between atoms: C_8  and  N_7 
ROOT
ATOM      1  C   UNL d   1     -41.845-123.242 -49.827  0.00  0.00     0.231 A 
ATOM      2  O   UNL d   1     -41.442-122.670 -50.268  0.00  0.00    -0.252 OA
ATOM      3  C   UNL d   1     -41.461-122.902 -51.058  0.00  0.00     0.297 A 
ATOM      4  N   UNL d   1     -42.107-123.817 -50.347  0.00  0.00    -0.117 NA
ATOM      5  N   UNL d   1     -41.870-123.608 -51.106  0.00  0.00    -0.101 NA
ENDROOT
BRANCH   1   6
ATOM      6  C   UNL d   1     -41.959-123.226 -49.007  0.00  0.00     0.168 A 
ATOM      7  O   UNL d   1     -41.338-123.425 -48.509  0.00  0.00    -0.297 OA
ATOM      8  C   UNL d   1     -41.449-123.409 -47.702  0.00  0.00     0.149 A 
ATOM      9  C   UNL d   1     -42.175-123.196 -47.387  0.00  0.00     0.149 A 
ATOM     10  O   UNL d   1     -42.802-122.995 -47.876  0.00  0.00    -0.299 OA
ATOM     11  C   UNL d   1     -42.691-123.011 -48.687  0.00  0.00     0.151 A 
ENDBRANCH   1   6
BRANCH   3  12
ATOM     12  N   UNL d   1     -41.123-122.486 -51.683  0.00  0.00    -0.165 NA
ATOM     13  C   UNL d   1     -41.592-122.162 -52.264  0.00  0.00     0.282 C 
ATOM     14  O   UNL d   1     -42.419-122.246 -52.235  0.00  0.00    -0.265 OA
ATOM     15  C   UNL d   1     -41.251-121.746 -52.891  0.00  0.00     0.068 C 
ENDBRANCH   3  12
TORSDOF 2
ENDMDL
