MODEL 1
REMARK VINA RESULT:      72.3      0.000      0.000
REMARK  6 active torsions:
REMARK  status: ('A' for Active; 'I' for Inactive)
REMARK    1  A    between atoms: C_3  and  C_1 
REMARK    2  A    between atoms: S_2  and  C_3 
REMARK    3  A    between atoms: C_8  and  S_2 
REMARK    4  A    between atoms: C_9  and  C_3 
REMARK    5  A    between atoms: N_7  and  C_4 
REMARK    6  A    between atoms: C_25  and  N_16 
ROOT
ATOM      1  C   UNL d   1      13.676  13.569  -3.400  0.00  0.00     0.128 A 
ATOM      2  C   UNL d   1      13.781  12.779  -3.203  0.00  0.00     0.166 A 
ATOM      3  N   UNL d   1      13.398  13.776  -4.143  0.00  0.00    -0.240 NA
ATOM      4  N   UNL d   1      13.608  12.196  -3.749  0.00  0.00    -0.225 NA
ATOM      5  C   UNL d   1      13.226  13.188  -4.687  0.00  0.00     0.099 A 
ATOM      6  C   UNL d   1      13.330  12.397  -4.493  0.00  0.00     0.101 A 
ATOM      7  C   UNL d   1      13.155  11.811  -5.046  0.00  0.00     0.021 A 
ATOM      8  C   UNL d   1      12.947  13.398  -5.435  0.00  0.00     0.021 A 
ATOM      9  C   UNL d   1      12.772  12.812  -5.987  0.00  0.00     0.002 A 
ATOM     10  C   UNL d   1      12.877  12.021  -5.790  0.00  0.00     0.002 A 
ENDROOT
BRANCH   1  11
ATOM     11  C   UNL d   1      13.848  14.157  -2.856  0.00  0.00     0.129 C 
BRANCH  11  12
ATOM     12  S   UNL d   1      13.712  15.012  -3.095  0.00  0.00     0.213 S 
ATOM     13  O   UNL d   1      12.957  14.710  -2.899  0.00  0.00    -0.217 OA
ATOM     14  O   UNL d   1      12.880  15.324  -3.073  0.00  0.00    -0.217 OA
BRANCH  12  15
ATOM     15  C   UNL d   1      14.228  15.616  -3.349  0.00  0.00     0.088 A 
ATOM     16  C   UNL d   1      14.303  15.781  -4.156  0.00  0.00     0.011 A 
ATOM     17  C   UNL d   1      14.812  16.378  -4.409  0.00  0.00     0.001 A 
ATOM     18  C   UNL d   1      14.889  16.545  -5.210  0.00  0.00     0.000 C 
ATOM     19  C   UNL d   1      15.249  16.812  -3.852  0.00  0.00     0.000 A 
ATOM     20  C   UNL d   1      15.170  16.644  -3.046  0.00  0.00     0.001 A 
ATOM     21  C   UNL d   1      15.760  17.412  -4.103  0.00  0.00     0.000 C 
ATOM     22  C   UNL d   1      14.660  16.046  -2.790  0.00  0.00     0.011 A 
ENDBRANCH  12  15
ENDBRANCH  11  12
BRANCH  11  23
ATOM     23  C   UNL d   1      14.155  14.104  -2.044  0.00  0.00     0.135 C 
ATOM     24  N   UNL d   1      14.335  14.763  -1.483  0.00  0.00    -0.146 N 
ENDBRANCH  11  23
ENDBRANCH   1  11
BRANCH   2  25
ATOM     25  N   UNL d   1      14.065  12.583  -2.442  0.00  0.00    -0.285 N 
ATOM     26  C   UNL d   1      13.541  12.362  -1.845  0.00  0.00     0.101 A 
ATOM     27  C   UNL d   1      13.834  12.169  -1.091  0.00  0.00     0.100 A 
ATOM     28  N   UNL d   1      14.654  12.199  -0.942  0.00  0.00    -0.300 N 
ATOM     29  C   UNL d   1      15.180  12.422  -1.547  0.00  0.00     0.100 A 
ATOM     30  C   UNL d   1      14.885  12.613  -2.293  0.00  0.00     0.101 A 
BRANCH  28  31
ATOM     31  C   UNL d   1      14.947  12.003  -0.179  0.00  0.00     0.080 C 
ATOM     32  C   UNL d   1      15.746  11.779  -0.096  0.00  0.00     0.021 C 
ENDBRANCH  28  31
ENDBRANCH   2  25
TORSDOF 6
ENDMDL
