MODEL 1
REMARK VINA RESULT:      64.2      0.000      0.000
REMARK  6 active torsions:
REMARK  status: ('A' for Active; 'I' for Inactive)
REMARK    1  A    between atoms: N_2  and  S_1 
REMARK    2  A    between atoms: C_4  and  S_1 
REMARK    3  A    between atoms: C_5  and  N_3 
REMARK    4  A    between atoms: C_10  and  C_4 
REMARK    5  A    between atoms: C_14  and  C_10 
REMARK    6  A    between atoms: O_15  and  C_13 
ROOT
ATOM      1  N   UNL d   1     -48.798  28.267  34.556  0.00  0.00    -0.226 N 
ATOM      2  N   UNL d   1     -48.085  29.731  34.864  0.00  0.00    -0.300 N 
ATOM      3  C   UNL d   1     -49.142  28.970  34.267  0.00  0.00     0.111 A 
ATOM      4  C   UNL d   1     -48.114  28.307  34.986  0.00  0.00     0.111 A 
ATOM      5  C   UNL d   1     -47.754  29.024  35.144  0.00  0.00     0.100 A 
ATOM      6  C   UNL d   1     -48.783  29.686  34.425  0.00  0.00     0.100 A 
ENDROOT
BRANCH   1   7
ATOM      7  S   UNL d   1     -49.156  27.532  34.400  0.00  0.00     0.272 S 
ATOM      8  O   UNL d   1     -49.237  27.747  33.585  0.00  0.00    -0.200 OA
ATOM      9  O   UNL d   1     -49.076  27.327  35.187  0.00  0.00    -0.200 OA
BRANCH   7  10
ATOM     10  C   UNL d   1     -49.509  26.813  34.238  0.00  0.00     0.116 C 
BRANCH  10  11
ATOM     11  C   UNL d   1     -49.973  26.725  33.546  0.00  0.00     0.014 C 
BRANCH  11  12
ATOM     12  C   UNL d   1     -50.516  26.070  33.465  0.00  0.00     0.001 A 
ATOM     13  C   UNL d   1     -50.222  25.280  33.419  0.00  0.00     0.000 A 
ATOM     14  C   UNL d   1     -50.758  24.658  33.341  0.00  0.00     0.000 A 
ATOM     15  C   UNL d   1     -51.560  24.795  33.307  0.00  0.00     0.000 A 
ATOM     16  C   UNL d   1     -51.837  25.585  33.354  0.00  0.00     0.000 A 
ATOM     17  C   UNL d   1     -51.319  26.223  33.432  0.00  0.00     0.000 A 
ENDBRANCH  11  12
ENDBRANCH  10  11
ENDBRANCH   7  10
ENDBRANCH   1   7
BRANCH   2  18
ATOM     18  C   UNL d   1     -47.742  30.458  35.011  0.00  0.00     0.086 A 
ATOM     19  C   UNL d   1     -47.245  30.556  35.688  0.00  0.00     0.110 A 
ATOM     20  C   UNL d   1     -46.895  31.291  35.840  0.00  0.00     0.026 A 
ATOM     21  C   UNL d   1     -47.031  31.950  35.319  0.00  0.00     0.002 A 
ATOM     22  C   UNL d   1     -47.519  31.831  34.666  0.00  0.00     0.002 A 
ATOM     23  C   UNL d   1     -47.870  31.083  34.519  0.00  0.00     0.019 A 
BRANCH  19  24
ATOM     24  O   UNL d   1     -47.111  29.922  36.192  0.00  0.00    -0.327 OA
ATOM     25  C   UNL d   1     -47.007  30.038  37.002  0.00  0.00     0.181 C 
ENDBRANCH  19  24
ENDBRANCH   2  18
TORSDOF 6
ENDMDL
MODEL 2
REMARK VINA RESULT:      64.6      1.049      1.708
REMARK  6 active torsions:
REMARK  status: ('A' for Active; 'I' for Inactive)
REMARK    1  A    between atoms: N_2  and  S_1 
REMARK    2  A    between atoms: C_4  and  S_1 
REMARK    3  A    between atoms: C_5  and  N_3 
REMARK    4  A    between atoms: C_10  and  C_4 
REMARK    5  A    between atoms: C_14  and  C_10 
REMARK    6  A    between atoms: O_15  and  C_13 
ROOT
ATOM      1  N   UNL d   1     -49.502  27.341  34.134  0.00  0.00    -0.226 N 
ATOM      2  N   UNL d   1     -48.639  28.496  34.952  0.00  0.00    -0.300 N 
ATOM      3  C   UNL d   1     -49.334  28.073  33.772  0.00  0.00     0.111 A 
ATOM      4  C   UNL d   1     -49.240  27.201  34.887  0.00  0.00     0.111 A 
ATOM      5  C   UNL d   1     -48.814  27.763  35.299  0.00  0.00     0.100 A 
ATOM      6  C   UNL d   1     -48.908  28.635  34.184  0.00  0.00     0.100 A 
ENDROOT
BRANCH   1   7
ATOM      7  S   UNL d   1     -49.935  26.761  33.724  0.00  0.00     0.272 S 
ATOM      8  O   UNL d   1     -50.498  27.350  33.493  0.00  0.00    -0.200 OA
ATOM      9  O   UNL d   1     -49.390  26.195  33.948  0.00  0.00    -0.200 OA
BRANCH   7  10
ATOM     10  C   UNL d   1     -50.368  26.199  33.318  0.00  0.00     0.116 C 
BRANCH  10  11
ATOM     11  C   UNL d   1     -51.191  26.129  33.455  0.00  0.00     0.014 C 
BRANCH  11  12
ATOM     12  C   UNL d   1     -51.579  25.368  33.405  0.00  0.00     0.001 A 
ATOM     13  C   UNL d   1     -51.120  24.662  33.369  0.00  0.00     0.000 A 
ATOM     14  C   UNL d   1     -51.507  23.935  33.320  0.00  0.00     0.000 A 
ATOM     15  C   UNL d   1     -52.320  23.892  33.308  0.00  0.00     0.000 A 
ATOM     16  C   UNL d   1     -52.764  24.603  33.345  0.00  0.00     0.000 A 
ATOM     17  C   UNL d   1     -52.396  25.341  33.393  0.00  0.00     0.000 A 
ENDBRANCH  11  12
ENDBRANCH  10  11
ENDBRANCH   7  10
ENDBRANCH   1   7
BRANCH   2  18
ATOM     18  C   UNL d   1     -48.214  29.072  35.346  0.00  0.00     0.086 A 
ATOM     19  C   UNL d   1     -48.040  29.802  34.957  0.00  0.00     0.110 A 
ATOM     20  C   UNL d   1     -47.609  30.388  35.354  0.00  0.00     0.026 A 
ATOM     21  C   UNL d   1     -47.341  30.261  36.151  0.00  0.00     0.002 A 
ATOM     22  C   UNL d   1     -47.523  29.542  36.510  0.00  0.00     0.002 A 
ATOM     23  C   UNL d   1     -47.959  28.953  36.101  0.00  0.00     0.019 A 
BRANCH  19  24
ATOM     24  O   UNL d   1     -48.297  29.927  34.188  0.00  0.00    -0.327 OA
ATOM     25  C   UNL d   1     -48.850  30.514  34.015  0.00  0.00     0.181 C 
ENDBRANCH  19  24
ENDBRANCH   2  18
TORSDOF 6
ENDMDL
MODEL 3
REMARK VINA RESULT:      66.4      1.712      6.075
REMARK  6 active torsions:
REMARK  status: ('A' for Active; 'I' for Inactive)
REMARK    1  A    between atoms: N_2  and  S_1 
REMARK    2  A    between atoms: C_4  and  S_1 
REMARK    3  A    between atoms: C_5  and  N_3 
REMARK    4  A    between atoms: C_10  and  C_4 
REMARK    5  A    between atoms: C_14  and  C_10 
REMARK    6  A    between atoms: O_15  and  C_13 
ROOT
ATOM      1  N   UNL d   1     -50.451  26.539  34.397  0.00  0.00    -0.226 N 
ATOM      2  N   UNL d   1     -51.353  25.223  33.951  0.00  0.00    -0.300 N 
ATOM      3  C   UNL d   1     -51.072  26.272  34.886  0.00  0.00     0.111 A 
ATOM      4  C   UNL d   1     -50.294  26.150  33.705  0.00  0.00     0.111 A 
ATOM      5  C   UNL d   1     -50.733  25.500  33.476  0.00  0.00     0.100 A 
ATOM      6  C   UNL d   1     -51.511  25.622  34.656  0.00  0.00     0.100 A 
ENDROOT
BRANCH   1   7
ATOM      7  S   UNL d   1     -49.998  27.200  34.621  0.00  0.00     0.272 S 
ATOM      8  O   UNL d   1     -49.307  26.833  34.295  0.00  0.00    -0.200 OA
ATOM      9  O   UNL d   1     -50.666  27.551  34.935  0.00  0.00    -0.200 OA
BRANCH   7  10
ATOM     10  C   UNL d   1     -49.544  27.844  34.837  0.00  0.00     0.116 C 
BRANCH  10  11
ATOM     11  C   UNL d   1     -48.751  27.901  34.576  0.00  0.00     0.014 C 
BRANCH  11  12
ATOM     12  C   UNL d   1     -48.223  28.489  34.903  0.00  0.00     0.001 A 
ATOM     13  C   UNL d   1     -47.389  28.414  34.794  0.00  0.00     0.000 A 
ATOM     14  C   UNL d   1     -46.891  28.988  35.116  0.00  0.00     0.000 A 
ATOM     15  C   UNL d   1     -47.192  29.619  35.532  0.00  0.00     0.000 A 
ATOM     16  C   UNL d   1     -48.022  29.680  35.632  0.00  0.00     0.000 A 
ATOM     17  C   UNL d   1     -48.538  29.117  35.320  0.00  0.00     0.000 A 
ENDBRANCH  11  12
ENDBRANCH  10  11
ENDBRANCH   7  10
ENDBRANCH   1   7
BRANCH   2  18
ATOM     18  C   UNL d   1     -51.804  24.575  33.740  0.00  0.00     0.086 A 
ATOM     19  C   UNL d   1     -52.642  24.657  33.658  0.00  0.00     0.110 A 
ATOM     20  C   UNL d   1     -53.102  24.002  33.444  0.00  0.00     0.026 A 
ATOM     21  C   UNL d   1     -52.738  23.246  33.307  0.00  0.00     0.002 A 
ATOM     22  C   UNL d   1     -51.921  23.190  33.392  0.00  0.00     0.002 A 
ATOM     23  C   UNL d   1     -51.462  23.858  33.609  0.00  0.00     0.019 A 
BRANCH  19  24
ATOM     24  O   UNL d   1     -52.996  25.386  33.790  0.00  0.00    -0.327 OA
ATOM     25  C   UNL d   1     -53.810  25.485  33.706  0.00  0.00     0.181 C 
ENDBRANCH  19  24
ENDBRANCH   2  18
TORSDOF 6
ENDMDL
