MODEL 1
REMARK VINA RESULT:      -8.9      0.000      0.000
REMARK  4 active torsions:
REMARK  status: ('A' for Active; 'I' for Inactive)
REMARK    1  A    between atoms: N_3  and  S_1 
REMARK    2  A    between atoms: N_4  and  S_1 
REMARK    3  A    between atoms: N_2  and  C_7 
REMARK    4  A    between atoms: C_10  and  N_4 
ROOT
ATOM      1  N   UNL d   1      53.581  32.612  53.073  0.00  0.00    -0.144 NA
ENDROOT
BRANCH   1   2
ATOM      2  S   UNL d   1      53.871  33.078  53.690  0.00  0.00     0.351 S 
ATOM      3  O   UNL d   1      54.471  32.528  53.823  0.00  0.00    -0.180 OA
ATOM      4  O   UNL d   1      54.421  33.207  54.290  0.00  0.00    -0.180 OA
BRANCH   2   5
ATOM      5  N   UNL d   1      53.495  33.787  53.882  0.00  0.00    -0.215 N 
ATOM      6  C   UNL d   1      53.490  34.052  54.663  0.00  0.00     0.093 A 
ATOM      7  C   UNL d   1      53.115  34.761  54.855  0.00  0.00     0.020 A 
ATOM      8  C   UNL d   1      52.746  35.201  54.266  0.00  0.00     0.003 A 
ATOM      9  C   UNL d   1      52.748  34.939  53.485  0.00  0.00     0.020 A 
ATOM     10  C   UNL d   1      53.124  34.230  53.293  0.00  0.00     0.093 A 
ENDBRANCH   2   5
ENDBRANCH   1   2
BRANCH   1  11
ATOM     11  C   UNL d   1      53.399  31.818  53.206  0.00  0.00     0.095 A 
ATOM     12  C   UNL d   1      53.993  31.291  53.431  0.00  0.00     0.022 A 
ATOM     13  C   UNL d   1      53.810  30.498  53.564  0.00  0.00     0.025 A 
ATOM     14  C   UNL d   1      53.034  30.231  53.472  0.00  0.00     0.127 A 
ATOM     15  C   UNL d   1      52.437  30.760  53.246  0.00  0.00     0.025 A 
ATOM     16  C   UNL d   1      52.619  31.554  53.113  0.00  0.00     0.022 A 
BRANCH  14  17
ATOM     17  N   UNL d   1      52.852  29.438  53.605  0.00  0.00    -0.114 N 
ATOM     18  O   UNL d   1      53.135  29.059  54.285  0.00  0.00    -0.532 OA
ATOM     19  O   UNL d   1      52.389  29.025  53.061  0.00  0.00    -0.532 OA
ENDBRANCH  14  17
ENDBRANCH   1  11
TORSDOF 4
ENDMDL
MODEL 2
REMARK VINA RESULT:      -8.9      1.500      4.142
REMARK  4 active torsions:
REMARK  status: ('A' for Active; 'I' for Inactive)
REMARK    1  A    between atoms: N_3  and  S_1 
REMARK    2  A    between atoms: N_4  and  S_1 
REMARK    3  A    between atoms: N_2  and  C_7 
REMARK    4  A    between atoms: C_10  and  N_4 
ROOT
ATOM      1  N   UNL d   1      53.724  32.444  53.232  0.00  0.00    -0.144 NA
ENDROOT
BRANCH   1   2
ATOM      2  S   UNL d   1      53.099  31.969  52.976  0.00  0.00     0.351 S 
ATOM      3  O   UNL d   1      52.769  32.616  52.583  0.00  0.00    -0.180 OA
ATOM      4  O   UNL d   1      52.393  31.882  52.558  0.00  0.00    -0.180 OA
BRANCH   2   5
ATOM      5  N   UNL d   1      53.072  31.173  53.188  0.00  0.00    -0.215 N 
ATOM      6  C   UNL d   1      52.345  30.792  53.268  0.00  0.00     0.093 A 
ATOM      7  C   UNL d   1      52.318  29.995  53.480  0.00  0.00     0.020 A 
ATOM      8  C   UNL d   1      53.018  29.584  53.612  0.00  0.00     0.003 A 
ATOM      9  C   UNL d   1      53.746  29.961  53.533  0.00  0.00     0.020 A 
ATOM     10  C   UNL d   1      53.773  30.758  53.321  0.00  0.00     0.093 A 
ENDBRANCH   2   5
ENDBRANCH   1   2
BRANCH   1  11
ATOM     11  C   UNL d   1      53.570  33.143  53.642  0.00  0.00     0.095 A 
ATOM     12  C   UNL d   1      53.233  33.786  53.250  0.00  0.00     0.022 A 
ATOM     13  C   UNL d   1      53.079  34.485  53.661  0.00  0.00     0.025 A 
ATOM     14  C   UNL d   1      53.263  34.540  54.464  0.00  0.00     0.127 A 
ATOM     15  C   UNL d   1      53.602  33.895  54.859  0.00  0.00     0.025 A 
ATOM     16  C   UNL d   1      53.755  33.196  54.448  0.00  0.00     0.022 A 
BRANCH  14  17
ATOM     17  N   UNL d   1      53.109  35.239  54.875  0.00  0.00    -0.114 N 
ATOM     18  O   UNL d   1      52.877  35.918  54.461  0.00  0.00    -0.532 OA
ATOM     19  O   UNL d   1      53.187  35.260  55.696  0.00  0.00    -0.532 OA
ENDBRANCH  14  17
ENDBRANCH   1  11
TORSDOF 4
ENDMDL
MODEL 3
REMARK VINA RESULT:      -8.6      2.427      4.167
REMARK  4 active torsions:
REMARK  status: ('A' for Active; 'I' for Inactive)
REMARK    1  A    between atoms: N_3  and  S_1 
REMARK    2  A    between atoms: N_4  and  S_1 
REMARK    3  A    between atoms: N_2  and  C_7 
REMARK    4  A    between atoms: C_10  and  N_4 
ROOT
ATOM      1  N   UNL d   1      52.598  32.643  53.442  0.00  0.00    -0.144 NA
ENDROOT
BRANCH   1   2
ATOM      2  S   UNL d   1      52.781  32.009  52.946  0.00  0.00     0.351 S 
ATOM      3  O   UNL d   1      52.657  32.491  52.287  0.00  0.00    -0.180 OA
ATOM      4  O   UNL d   1      52.877  31.701  52.186  0.00  0.00    -0.180 OA
BRANCH   2   5
ATOM      5  N   UNL d   1      52.979  31.277  53.268  0.00  0.00    -0.215 N 
ATOM      6  C   UNL d   1      52.631  30.589  52.975  0.00  0.00     0.093 A 
ATOM      7  C   UNL d   1      52.829  29.856  53.298  0.00  0.00     0.020 A 
ATOM      8  C   UNL d   1      53.375  29.815  53.912  0.00  0.00     0.003 A 
ATOM      9  C   UNL d   1      53.725  30.499  54.207  0.00  0.00     0.020 A 
ATOM     10  C   UNL d   1      53.526  31.232  53.884  0.00  0.00     0.093 A 
ENDBRANCH   2   5
ENDBRANCH   1   2
BRANCH   1  11
ATOM     11  C   UNL d   1      51.965  33.140  53.261  0.00  0.00     0.095 A 
ATOM     12  C   UNL d   1      51.195  32.912  53.452  0.00  0.00     0.022 A 
ATOM     13  C   UNL d   1      50.561  33.409  53.271  0.00  0.00     0.025 A 
ATOM     14  C   UNL d   1      50.698  34.133  52.899  0.00  0.00     0.127 A 
ATOM     15  C   UNL d   1      51.471  34.363  52.706  0.00  0.00     0.025 A 
ATOM     16  C   UNL d   1      52.104  33.866  52.887  0.00  0.00     0.022 A 
BRANCH  14  17
ATOM     17  N   UNL d   1      50.064  34.630  52.718  0.00  0.00    -0.114 N 
ATOM     18  O   UNL d   1      49.660  34.537  52.000  0.00  0.00    -0.532 OA
ATOM     19  O   UNL d   1      49.835  35.216  53.251  0.00  0.00    -0.532 OA
ENDBRANCH  14  17
ENDBRANCH   1  11
TORSDOF 4
ENDMDL
MODEL 4
REMARK VINA RESULT:      -8.5      2.276      3.363
REMARK  4 active torsions:
REMARK  status: ('A' for Active; 'I' for Inactive)
REMARK    1  A    between atoms: N_3  and  S_1 
REMARK    2  A    between atoms: N_4  and  S_1 
REMARK    3  A    between atoms: N_2  and  C_7 
REMARK    4  A    between atoms: C_10  and  N_4 
ROOT
ATOM      1  N   UNL d   1      53.271  33.106  53.048  0.00  0.00    -0.144 NA
ENDROOT
BRANCH   1   2
ATOM      2  S   UNL d   1      53.481  32.698  53.734  0.00  0.00     0.351 S 
ATOM      3  O   UNL d   1      52.935  32.107  53.549  0.00  0.00    -0.180 OA
ATOM      4  O   UNL d   1      53.390  32.049  54.236  0.00  0.00    -0.180 OA
BRANCH   2   5
ATOM      5  N   UNL d   1      54.059  33.006  54.236  0.00  0.00    -0.215 N 
ATOM      6  C   UNL d   1      53.923  33.041  55.048  0.00  0.00     0.093 A 
ATOM      7  C   UNL d   1      54.501  33.349  55.550  0.00  0.00     0.020 A 
ATOM      8  C   UNL d   1      55.211  33.619  55.237  0.00  0.00     0.003 A 
ATOM      9  C   UNL d   1      55.351  33.585  54.427  0.00  0.00     0.020 A 
ATOM     10  C   UNL d   1      54.773  33.278  53.924  0.00  0.00     0.093 A 
ENDBRANCH   2   5
ENDBRANCH   1   2
BRANCH   1  11
ATOM     11  C   UNL d   1      52.513  33.424  52.973  0.00  0.00     0.095 A 
ATOM     12  C   UNL d   1      51.856  32.925  52.957  0.00  0.00     0.022 A 
ATOM     13  C   UNL d   1      51.099  33.243  52.882  0.00  0.00     0.025 A 
ATOM     14  C   UNL d   1      50.998  34.061  52.823  0.00  0.00     0.127 A 
ATOM     15  C   UNL d   1      51.658  34.563  52.838  0.00  0.00     0.025 A 
ATOM     16  C   UNL d   1      52.415  34.245  52.913  0.00  0.00     0.022 A 
BRANCH  14  17
ATOM     17  N   UNL d   1      50.241  34.379  52.748  0.00  0.00    -0.114 N 
ATOM     18  O   UNL d   1      49.903  34.792  53.382  0.00  0.00    -0.532 OA
ATOM     19  O   UNL d   1      49.823  34.285  52.043  0.00  0.00    -0.532 OA
ENDBRANCH  14  17
ENDBRANCH   1  11
TORSDOF 4
ENDMDL
