MODEL 1
REMARK VINA RESULT:      -7.4      0.000      0.000
REMARK  6 active torsions:
REMARK  status: ('A' for Active; 'I' for Inactive)
REMARK    1  A    between atoms: N_2  and  S_1 
REMARK    2  A    between atoms: C_11  and  S_1 
REMARK    3  A    between atoms: C_3  and  N_2 
REMARK    4  A    between atoms: C_4  and  C_3 
REMARK    5  A    between atoms: N_5  and  C_4 
REMARK    6  A    between atoms: C_6  and  C_4 
ROOT
ATOM      1  C   UNL d   1      53.211  32.710  53.616  0.00  0.00     0.089 C 
ENDROOT
BRANCH   1   2
ATOM      2  C   UNL d   1      53.354  32.014  53.201  0.00  0.00     0.110 C 
ATOM      3  C   UNL d   1      53.864  32.019  52.552  0.00  0.00     0.023 C 
BRANCH   2   4
ATOM      4  N   UNL d   1      52.991  31.318  53.432  0.00  0.00    -0.157 NA
BRANCH   4   5
ATOM      5  S   UNL d   1      53.029  30.646  52.959  0.00  0.00     0.285 S 
ATOM      6  O   UNL d   1      52.985  31.165  52.314  0.00  0.00    -0.198 OA
ATOM      7  O   UNL d   1      53.037  30.350  52.187  0.00  0.00    -0.198 OA
BRANCH   5   8
ATOM      8  C   UNL d   1      53.076  30.078  53.552  0.00  0.00     0.105 A 
ATOM      9  C   UNL d   1      52.391  29.846  53.948  0.00  0.00     0.013 A 
ATOM     10  C   UNL d   1      52.446  29.275  54.542  0.00  0.00     0.001 A 
ATOM     11  C   UNL d   1      53.169  28.938  54.739  0.00  0.00     0.000 A 
ATOM     12  C   UNL d   1      53.852  29.173  54.340  0.00  0.00     0.001 A 
ATOM     13  C   UNL d   1      53.796  29.744  53.747  0.00  0.00     0.013 A 
ENDBRANCH   5   8
ENDBRANCH   4   5
ENDBRANCH   2   4
ENDBRANCH   1   2
BRANCH   1  14
ATOM     14  N   UNL d   1      52.558  33.171  53.434  0.00  0.00    -0.300 N 
ATOM     15  C   UNL d   1      51.846  33.061  53.836  0.00  0.00     0.100 A 
ATOM     16  C   UNL d   1      51.187  33.528  53.651  0.00  0.00     0.100 A 
ATOM     17  N   UNL d   1      51.237  34.104  53.067  0.00  0.00    -0.299 N 
ATOM     18  C   UNL d   1      51.952  34.216  52.661  0.00  0.00     0.100 A 
ATOM     19  C   UNL d   1      50.576  34.570  52.884  0.00  0.00     0.100 C 
ATOM     20  C   UNL d   1      52.605  33.755  52.844  0.00  0.00     0.100 A 
ENDBRANCH   1  14
BRANCH   1  21
ATOM     21  C   UNL d   1      53.726  32.943  54.216  0.00  0.00     0.047 A 
ATOM     22  S   UNL d   1      54.468  33.299  54.112  0.00  0.00    -0.085 SA
ATOM     23  C   UNL d   1      54.786  33.435  54.863  0.00  0.00     0.035 A 
ATOM     24  C   UNL d   1      54.257  33.172  55.428  0.00  0.00     0.007 A 
ATOM     25  C   UNL d   1      53.595  32.865  55.028  0.00  0.00     0.009 A 
ENDBRANCH   1  21
TORSDOF 6
ENDMDL
MODEL 2
REMARK VINA RESULT:      -6.8      0.910      2.220
REMARK  6 active torsions:
REMARK  status: ('A' for Active; 'I' for Inactive)
REMARK    1  A    between atoms: N_2  and  S_1 
REMARK    2  A    between atoms: C_11  and  S_1 
REMARK    3  A    between atoms: C_3  and  N_2 
REMARK    4  A    between atoms: C_4  and  C_3 
REMARK    5  A    between atoms: N_5  and  C_4 
REMARK    6  A    between atoms: C_6  and  C_4 
ROOT
ATOM      1  C   UNL d   1      52.879  32.682  53.390  0.00  0.00     0.089 C 
ENDROOT
BRANCH   1   2
ATOM      2  C   UNL d   1      52.965  31.979  52.971  0.00  0.00     0.110 C 
ATOM      3  C   UNL d   1      53.171  31.997  52.173  0.00  0.00     0.023 C 
BRANCH   2   4
ATOM      4  N   UNL d   1      52.845  31.262  53.347  0.00  0.00    -0.157 NA
BRANCH   4   5
ATOM      5  S   UNL d   1      52.874  30.555  52.926  0.00  0.00     0.285 S 
ATOM      6  O   UNL d   1      52.751  31.018  52.249  0.00  0.00    -0.198 OA
ATOM      7  O   UNL d   1      52.830  30.198  52.182  0.00  0.00    -0.198 OA
BRANCH   5   8
ATOM      8  C   UNL d   1      52.997  30.039  53.554  0.00  0.00     0.105 A 
ATOM      9  C   UNL d   1      52.353  29.774  53.996  0.00  0.00     0.013 A 
ATOM     10  C   UNL d   1      52.484  29.256  54.625  0.00  0.00     0.001 A 
ATOM     11  C   UNL d   1      53.243  29.005  54.813  0.00  0.00     0.000 A 
ATOM     12  C   UNL d   1      53.885  29.272  54.369  0.00  0.00     0.001 A 
ATOM     13  C   UNL d   1      53.753  29.790  53.740  0.00  0.00     0.013 A 
ENDBRANCH   5   8
ENDBRANCH   4   5
ENDBRANCH   2   4
ENDBRANCH   1   2
BRANCH   1  14
ATOM     14  N   UNL d   1      53.474  32.938  53.893  0.00  0.00    -0.300 N 
ATOM     15  C   UNL d   1      53.354  32.947  54.709  0.00  0.00     0.100 A 
ATOM     16  C   UNL d   1      53.957  33.205  55.215  0.00  0.00     0.100 A 
ATOM     17  N   UNL d   1      54.678  33.455  54.909  0.00  0.00    -0.299 N 
ATOM     18  C   UNL d   1      54.800  33.446  54.088  0.00  0.00     0.100 A 
ATOM     19  C   UNL d   1      55.280  33.713  55.418  0.00  0.00     0.100 C 
ATOM     20  C   UNL d   1      54.204  33.190  53.586  0.00  0.00     0.100 A 
ENDBRANCH   1  14
BRANCH   1  21
ATOM     21  C   UNL d   1      52.192  33.130  53.303  0.00  0.00     0.047 A 
ATOM     22  S   UNL d   1      52.085  33.764  52.780  0.00  0.00    -0.085 SA
ATOM     23  C   UNL d   1      51.314  34.045  52.884  0.00  0.00     0.035 A 
ATOM     24  C   UNL d   1      50.943  33.598  53.458  0.00  0.00     0.007 A 
ATOM     25  C   UNL d   1      51.488  33.026  53.722  0.00  0.00     0.009 A 
ENDBRANCH   1  21
TORSDOF 6
ENDMDL
MODEL 3
REMARK VINA RESULT:      -6.7      1.843      3.794
REMARK  6 active torsions:
REMARK  status: ('A' for Active; 'I' for Inactive)
REMARK    1  A    between atoms: N_2  and  S_1 
REMARK    2  A    between atoms: C_11  and  S_1 
REMARK    3  A    between atoms: C_3  and  N_2 
REMARK    4  A    between atoms: C_4  and  C_3 
REMARK    5  A    between atoms: N_5  and  C_4 
REMARK    6  A    between atoms: C_6  and  C_4 
ROOT
ATOM      1  C   UNL d   1      53.831  33.202  54.313  0.00  0.00     0.089 C 
ENDROOT
BRANCH   1   2
ATOM      2  C   UNL d   1      53.211  33.740  54.359  0.00  0.00     0.110 C 
ATOM      3  C   UNL d   1      52.929  33.982  55.096  0.00  0.00     0.023 C 
BRANCH   2   4
ATOM      4  N   UNL d   1      52.874  34.036  53.674  0.00  0.00    -0.157 NA
BRANCH   4   5
ATOM      5  S   UNL d   1      52.368  34.685  53.699  0.00  0.00     0.285 S 
ATOM      6  O   UNL d   1      52.859  34.973  54.303  0.00  0.00    -0.198 OA
ATOM      7  O   UNL d   1      52.202  35.411  54.058  0.00  0.00    -0.198 OA
BRANCH   5   8
ATOM      8  C   UNL d   1      51.843  34.458  53.109  0.00  0.00     0.105 A 
ATOM      9  C   UNL d   1      52.069  34.520  52.318  0.00  0.00     0.013 A 
ATOM     10  C   UNL d   1      51.536  34.291  51.731  0.00  0.00     0.001 A 
ATOM     11  C   UNL d   1      50.791  34.004  51.925  0.00  0.00     0.000 A 
ATOM     12  C   UNL d   1      50.569  33.944  52.717  0.00  0.00     0.001 A 
ATOM     13  C   UNL d   1      51.102  34.173  53.304  0.00  0.00     0.013 A 
ENDBRANCH   5   8
ENDBRANCH   4   5
ENDBRANCH   2   4
ENDBRANCH   1   2
BRANCH   1  14
ATOM     14  N   UNL d   1      53.688  32.426  54.090  0.00  0.00    -0.300 N 
ATOM     15  C   UNL d   1      53.386  31.886  54.636  0.00  0.00     0.100 A 
ATOM     16  C   UNL d   1      53.242  31.102  54.410  0.00  0.00     0.100 A 
ATOM     17  N   UNL d   1      53.400  30.857  53.641  0.00  0.00    -0.299 N 
ATOM     18  C   UNL d   1      53.704  31.398  53.091  0.00  0.00     0.100 A 
ATOM     19  C   UNL d   1      53.255  30.071  53.417  0.00  0.00     0.100 C 
ATOM     20  C   UNL d   1      53.846  32.174  53.314  0.00  0.00     0.100 A 
ENDBRANCH   1  14
BRANCH   1  21
ATOM     21  C   UNL d   1      54.599  33.445  54.491  0.00  0.00     0.047 A 
ATOM     22  S   UNL d   1      54.906  33.581  55.249  0.00  0.00    -0.085 SA
ATOM     23  C   UNL d   1      55.694  33.815  55.161  0.00  0.00     0.035 A 
ATOM     24  C   UNL d   1      55.881  33.827  54.365  0.00  0.00     0.007 A 
ATOM     25  C   UNL d   1      55.200  33.597  53.944  0.00  0.00     0.009 A 
ENDBRANCH   1  21
TORSDOF 6
ENDMDL
MODEL 4
REMARK VINA RESULT:      -6.0      1.992      3.878
REMARK  6 active torsions:
REMARK  status: ('A' for Active; 'I' for Inactive)
REMARK    1  A    between atoms: N_2  and  S_1 
REMARK    2  A    between atoms: C_11  and  S_1 
REMARK    3  A    between atoms: C_3  and  N_2 
REMARK    4  A    between atoms: C_4  and  C_3 
REMARK    5  A    between atoms: N_5  and  C_4 
REMARK    6  A    between atoms: C_6  and  C_4 
ROOT
ATOM      1  C   UNL d   1      51.998  33.602  53.036  0.00  0.00     0.089 C 
ENDROOT
BRANCH   1   2
ATOM      2  C   UNL d   1      52.564  34.144  53.289  0.00  0.00     0.110 C 
ATOM      3  C   UNL d   1      52.856  34.709  52.764  0.00  0.00     0.023 C 
BRANCH   2   4
ATOM      4  N   UNL d   1      52.835  34.122  54.061  0.00  0.00    -0.157 NA
BRANCH   4   5
ATOM      5  S   UNL d   1      53.286  34.738  54.366  0.00  0.00     0.285 S 
ATOM      6  O   UNL d   1      52.741  35.245  54.001  0.00  0.00    -0.198 OA
ATOM      7  O   UNL d   1      53.375  35.558  54.429  0.00  0.00    -0.198 OA
BRANCH   5   8
ATOM      8  C   UNL d   1      53.861  34.295  54.752  0.00  0.00     0.105 A 
ATOM      9  C   UNL d   1      53.675  33.913  55.459  0.00  0.00     0.013 A 
ATOM     10  C   UNL d   1      54.257  33.470  55.840  0.00  0.00     0.001 A 
ATOM     11  C   UNL d   1      55.013  33.405  55.525  0.00  0.00     0.000 A 
ATOM     12  C   UNL d   1      55.195  33.788  54.817  0.00  0.00     0.001 A 
ATOM     13  C   UNL d   1      54.613  34.231  54.437  0.00  0.00     0.013 A 
ENDBRANCH   5   8
ENDBRANCH   4   5
ENDBRANCH   2   4
ENDBRANCH   1   2
BRANCH   1  14
ATOM     14  N   UNL d   1      52.177  32.802  53.010  0.00  0.00    -0.300 N 
ATOM     15  C   UNL d   1      52.755  32.522  52.492  0.00  0.00     0.100 A 
ATOM     16  C   UNL d   1      52.934  31.713  52.467  0.00  0.00     0.100 A 
ATOM     17  N   UNL d   1      52.538  31.185  52.957  0.00  0.00    -0.299 N 
ATOM     18  C   UNL d   1      51.956  31.465  53.478  0.00  0.00     0.100 A 
ATOM     19  C   UNL d   1      52.719  30.376  52.929  0.00  0.00     0.100 C 
ATOM     20  C   UNL d   1      51.778  32.265  53.503  0.00  0.00     0.100 A 
ENDBRANCH   1  14
BRANCH   1  21
ATOM     21  C   UNL d   1      51.251  33.865  52.809  0.00  0.00     0.047 A 
ATOM     22  S   UNL d   1      51.032  34.120  52.051  0.00  0.00    -0.085 SA
ATOM     23  C   UNL d   1      50.232  34.331  52.081  0.00  0.00     0.035 A 
ATOM     24  C   UNL d   1      49.953  34.212  52.840  0.00  0.00     0.007 A 
ATOM     25  C   UNL d   1      50.586  33.921  53.297  0.00  0.00     0.009 A 
ENDBRANCH   1  21
TORSDOF 6
ENDMDL
MODEL 5
REMARK VINA RESULT:      -5.2      2.098      3.377
REMARK  6 active torsions:
REMARK  status: ('A' for Active; 'I' for Inactive)
REMARK    1  A    between atoms: N_2  and  S_1 
REMARK    2  A    between atoms: C_11  and  S_1 
REMARK    3  A    between atoms: C_3  and  N_2 
REMARK    4  A    between atoms: C_4  and  C_3 
REMARK    5  A    between atoms: N_5  and  C_4 
REMARK    6  A    between atoms: C_6  and  C_4 
ROOT
ATOM      1  C   UNL d   1      52.026  33.575  52.987  0.00  0.00     0.089 C 
ENDROOT
BRANCH   1   2
ATOM      2  C   UNL d   1      52.610  34.099  53.233  0.00  0.00     0.110 C 
ATOM      3  C   UNL d   1      52.951  34.621  52.692  0.00  0.00     0.023 C 
BRANCH   2   4
ATOM      4  N   UNL d   1      52.853  34.104  54.015  0.00  0.00    -0.157 NA
BRANCH   4   5
ATOM      5  S   UNL d   1      53.297  34.728  54.315  0.00  0.00     0.285 S 
ATOM      6  O   UNL d   1      52.764  35.225  53.919  0.00  0.00    -0.198 OA
ATOM      7  O   UNL d   1      53.386  35.549  54.355  0.00  0.00    -0.198 OA
BRANCH   5   8
ATOM      8  C   UNL d   1      53.859  34.295  54.730  0.00  0.00     0.105 A 
ATOM      9  C   UNL d   1      53.654  33.942  55.446  0.00  0.00     0.013 A 
ATOM     10  C   UNL d   1      54.224  33.508  55.857  0.00  0.00     0.001 A 
ATOM     11  C   UNL d   1      54.986  33.426  55.561  0.00  0.00     0.000 A 
ATOM     12  C   UNL d   1      55.187  33.781  54.844  0.00  0.00     0.001 A 
ATOM     13  C   UNL d   1      54.617  34.214  54.434  0.00  0.00     0.013 A 
ENDBRANCH   5   8
ENDBRANCH   4   5
ENDBRANCH   2   4
ENDBRANCH   1   2
BRANCH   1  14
ATOM     14  N   UNL d   1      51.294  33.855  52.746  0.00  0.00    -0.300 N 
ATOM     15  C   UNL d   1      50.673  33.912  53.285  0.00  0.00     0.100 A 
ATOM     16  C   UNL d   1      49.933  34.195  53.040  0.00  0.00     0.100 A 
ATOM     17  N   UNL d   1      49.815  34.423  52.259  0.00  0.00    -0.299 N 
ATOM     18  C   UNL d   1      50.439  34.367  51.716  0.00  0.00     0.100 A 
ATOM     19  C   UNL d   1      49.074  34.706  52.017  0.00  0.00     0.100 C 
ATOM     20  C   UNL d   1      51.171  34.086  51.957  0.00  0.00     0.100 A 
ENDBRANCH   1  14
BRANCH   1  21
ATOM     21  C   UNL d   1      52.179  32.764  52.982  0.00  0.00     0.047 A 
ATOM     22  S   UNL d   1      52.726  32.373  52.498  0.00  0.00    -0.085 SA
ATOM     23  C   UNL d   1      52.691  31.567  52.683  0.00  0.00     0.035 A 
ATOM     24  C   UNL d   1      52.135  31.453  53.271  0.00  0.00     0.007 A 
ATOM     25  C   UNL d   1      51.813  32.198  53.460  0.00  0.00     0.009 A 
ENDBRANCH   1  21
TORSDOF 6
ENDMDL
