MODEL 1
REMARK VINA RESULT:      53.2      0.000      0.000
REMARK  4 active torsions:
REMARK  status: ('A' for Active; 'I' for Inactive)
REMARK    1  A    between atoms: C_10  and  C_3 
REMARK       I    between atoms: N_11  and  C_10 
REMARK    2  A    between atoms: C_15  and  N_11 
REMARK    3  A    between atoms: C_17  and  C_15 
REMARK    4  A    between atoms: O_25  and  C_18 
ROOT
ATOM      1  C   UNL d   1     -51.311  25.531  33.462  0.00  0.00     0.071 A 
ATOM      2  C   UNL d   1     -50.827  24.839  33.409  0.00  0.00     0.142 A 
ATOM      3  C   UNL d   1     -50.817  26.191  33.507  0.00  0.00     0.086 A 
ATOM      4  C   UNL d   1     -52.126  25.461  33.463  0.00  0.00     0.198 A 
ATOM      5  O   UNL d   1     -50.035  25.072  33.421  0.00  0.00    -0.304 OA
ATOM      6  C   UNL d   1     -50.042  25.905  33.481  0.00  0.00     0.105 A 
ATOM      7  C   UNL d   1     -51.181  24.108  33.358  0.00  0.00     0.218 A 
ATOM      8  C   UNL d   1     -52.482  24.717  33.411  0.00  0.00     0.042 A 
ATOM      9  C   UNL d   1     -51.998  24.024  33.357  0.00  0.00     0.044 A 
ATOM     10  O   UNL d   1     -52.599  26.137  33.515  0.00  0.00    -0.286 OA
ATOM     11  O   UNL d   1     -50.708  23.431  33.306  0.00  0.00    -0.284 OA
ATOM     12  C   UNL d   1     -49.364  26.377  33.511  0.00  0.00     0.027 C 
ATOM     13  C   UNL d   1     -53.290  24.652  33.412  0.00  0.00     0.003 A 
ATOM     14  C   UNL d   1     -52.344  23.299  33.307  0.00  0.00     0.003 A 
ATOM     15  C   UNL d   1     -53.658  23.900  33.359  0.00  0.00     0.000 A 
ATOM     16  C   UNL d   1     -53.174  23.207  33.306  0.00  0.00     0.000 A 
ENDROOT
BRANCH   3  17
ATOM     17  C   UNL d   1     -51.035  26.991  33.567  0.00  0.00     0.281 C 
ATOM     18  N   UNL d   1     -50.509  27.527  33.882  0.00  0.00    -0.206 NA
ATOM     19  O   UNL d   1     -51.775  27.218  33.306  0.00  0.00    -0.265 OA
BRANCH  18  20
ATOM     20  C   UNL d   1     -49.789  27.288  34.133  0.00  0.00     0.102 C 
BRANCH  20  21
ATOM     21  C   UNL d   1     -49.295  27.834  34.503  0.00  0.00     0.019 A 
ATOM     22  C   UNL d   1     -48.923  27.644  35.211  0.00  0.00     0.004 A 
ATOM     23  C   UNL d   1     -48.432  28.172  35.590  0.00  0.00     0.024 A 
ATOM     24  C   UNL d   1     -48.296  28.904  35.273  0.00  0.00     0.094 A 
ATOM     25  C   UNL d   1     -48.668  29.109  34.551  0.00  0.00     0.024 A 
ATOM     26  C   UNL d   1     -49.156  28.568  34.189  0.00  0.00     0.004 A 
BRANCH  24  27
ATOM     27  O   UNL d   1     -47.787  29.426  35.681  0.00  0.00    -0.328 OA
ATOM     28  C   UNL d   1     -47.528  30.090  35.310  0.00  0.00     0.181 C 
ENDBRANCH  24  27
ENDBRANCH  20  21
ENDBRANCH  18  20
ENDBRANCH   3  17
TORSDOF 4
ENDMDL
MODEL 2
REMARK VINA RESULT:      54.6      0.593      1.613
REMARK  4 active torsions:
REMARK  status: ('A' for Active; 'I' for Inactive)
REMARK    1  A    between atoms: C_10  and  C_3 
REMARK       I    between atoms: N_11  and  C_10 
REMARK    2  A    between atoms: C_15  and  N_11 
REMARK    3  A    between atoms: C_17  and  C_15 
REMARK    4  A    between atoms: O_25  and  C_18 
ROOT
ATOM      1  C   UNL d   1     -50.971  25.720  33.474  0.00  0.00     0.071 A 
ATOM      2  C   UNL d   1     -51.715  26.122  33.420  0.00  0.00     0.142 A 
ATOM      3  C   UNL d   1     -50.372  26.285  33.515  0.00  0.00     0.086 A 
ATOM      4  C   UNL d   1     -50.949  24.902  33.478  0.00  0.00     0.198 A 
ATOM      5  O   UNL d   1     -51.573  26.935  33.428  0.00  0.00    -0.304 OA
ATOM      6  C   UNL d   1     -50.745  27.023  33.486  0.00  0.00     0.105 A 
ATOM      7  C   UNL d   1     -52.401  25.687  33.372  0.00  0.00     0.218 A 
ATOM      8  C   UNL d   1     -51.647  24.464  33.429  0.00  0.00     0.042 A 
ATOM      9  C   UNL d   1     -52.391  24.866  33.375  0.00  0.00     0.044 A 
ATOM     10  O   UNL d   1     -50.223  24.509  33.530  0.00  0.00    -0.286 OA
ATOM     11  O   UNL d   1     -53.127  26.080  33.319  0.00  0.00    -0.284 OA
ATOM     12  C   UNL d   1     -50.353  27.751  33.512  0.00  0.00     0.027 C 
ATOM     13  C   UNL d   1     -51.620  23.654  33.433  0.00  0.00     0.003 A 
ATOM     14  C   UNL d   1     -53.072  24.439  33.327  0.00  0.00     0.003 A 
ATOM     15  C   UNL d   1     -52.326  23.202  33.384  0.00  0.00     0.000 A 
ATOM     16  C   UNL d   1     -53.069  23.604  33.330  0.00  0.00     0.000 A 
ENDROOT
BRANCH   3  17
ATOM     17  C   UNL d   1     -49.552  26.160  33.574  0.00  0.00     0.281 C 
ATOM     18  N   UNL d   1     -49.080  26.744  33.890  0.00  0.00    -0.206 NA
ATOM     19  O   UNL d   1     -49.243  25.452  33.311  0.00  0.00    -0.265 OA
BRANCH  18  20
ATOM     20  C   UNL d   1     -49.399  27.431  34.143  0.00  0.00     0.102 C 
BRANCH  20  21
ATOM     21  C   UNL d   1     -48.936  27.944  34.592  0.00  0.00     0.019 A 
ATOM     22  C   UNL d   1     -48.337  28.380  34.237  0.00  0.00     0.004 A 
ATOM     23  C   UNL d   1     -47.870  28.892  34.666  0.00  0.00     0.024 A 
ATOM     24  C   UNL d   1     -47.987  28.983  35.461  0.00  0.00     0.094 A 
ATOM     25  C   UNL d   1     -48.595  28.544  35.835  0.00  0.00     0.024 A 
ATOM     26  C   UNL d   1     -49.051  28.038  35.388  0.00  0.00     0.004 A 
BRANCH  24  27
ATOM     27  O   UNL d   1     -47.494  29.514  35.878  0.00  0.00    -0.328 OA
ATOM     28  C   UNL d   1     -47.579  30.304  35.756  0.00  0.00     0.181 C 
ENDBRANCH  24  27
ENDBRANCH  20  21
ENDBRANCH  18  20
ENDBRANCH   3  17
TORSDOF 4
ENDMDL
