MODEL 1
REMARK VINA RESULT:      -4.5      0.000      0.000
REMARK  2 active torsions:
REMARK  status: ('A' for Active; 'I' for Inactive)
REMARK    1  A    between atoms: C_6  and  C_1 
REMARK    2  A    between atoms: O_16  and  C_13 
ROOT
ATOM      1  C   UNL d   1      56.742   0.291  33.395  0.00  0.00     0.148 A 
ATOM      2  N   UNL d   1      55.962   0.372  33.607  0.00  0.00    -0.289 N 
ATOM      3  N   UNL d   1      57.204   0.428  34.056  0.00  0.00    -0.225 NA
ATOM      4  C   UNL d   1      55.913   0.566  34.414  0.00  0.00     0.085 A 
ATOM      5  C   UNL d   1      56.703   0.599  34.689  0.00  0.00     0.118 A 
ATOM      6  C   UNL d   1      55.225   0.296  33.155  0.00  0.00     0.082 A 
ATOM      7  C   UNL d   1      55.197   0.682  34.781  0.00  0.00     0.019 A 
ATOM      8  C   UNL d   1      54.509   0.412  33.522  0.00  0.00     0.019 A 
ATOM      9  C   UNL d   1      54.479   0.613  34.366  0.00  0.00     0.003 A 
ENDROOT
BRANCH   1  10
ATOM     10  C   UNL d   1      56.950   0.095  32.606  0.00  0.00     0.035 A 
ATOM     11  C   UNL d   1      56.811  -0.668  32.308  0.00  0.00     0.005 A 
ATOM     12  C   UNL d   1      57.017  -0.852  31.536  0.00  0.00     0.024 A 
ATOM     13  C   UNL d   1      57.361  -0.283  31.050  0.00  0.00     0.094 A 
ATOM     14  C   UNL d   1      57.498   0.464  31.338  0.00  0.00     0.024 A 
ATOM     15  C   UNL d   1      57.292   0.663  32.124  0.00  0.00     0.005 A 
BRANCH  13  16
ATOM     16  O   UNL d   1      57.582  -0.449  30.248  0.00  0.00    -0.328 OA
ATOM     17  C   UNL d   1      58.238  -0.083  29.908  0.00  0.00     0.181 C 
ENDBRANCH  13  16
ENDBRANCH   1  10
TORSDOF 2
ENDMDL
MODEL 2
REMARK VINA RESULT:      -4.5      1.827      3.939
REMARK  2 active torsions:
REMARK  status: ('A' for Active; 'I' for Inactive)
REMARK    1  A    between atoms: C_6  and  C_1 
REMARK    2  A    between atoms: O_16  and  C_13 
ROOT
ATOM      1  C   UNL d   1      57.485   0.050  30.984  0.00  0.00     0.148 A 
ATOM      2  N   UNL d   1      58.254   0.267  31.128  0.00  0.00    -0.289 N 
ATOM      3  N   UNL d   1      57.399  -0.078  30.181  0.00  0.00    -0.225 NA
ATOM      4  C   UNL d   1      58.677   0.282  30.412  0.00  0.00     0.085 A 
ATOM      5  C   UNL d   1      58.128   0.062  29.819  0.00  0.00     0.118 A 
ATOM      6  C   UNL d   1      58.675   0.472  31.859  0.00  0.00     0.082 A 
ATOM      7  C   UNL d   1      59.465   0.482  30.386  0.00  0.00     0.019 A 
ATOM      8  C   UNL d   1      59.463   0.672  31.834  0.00  0.00     0.019 A 
ATOM      9  C   UNL d   1      59.885   0.681  31.076  0.00  0.00     0.003 A 
ENDROOT
BRANCH   1  10
ATOM     10  C   UNL d   1      56.935  -0.009  31.615  0.00  0.00     0.035 A 
ATOM     11  C   UNL d   1      56.563   0.669  31.918  0.00  0.00     0.005 A 
ATOM     12  C   UNL d   1      56.027   0.605  32.534  0.00  0.00     0.024 A 
ATOM     13  C   UNL d   1      55.853  -0.132  32.859  0.00  0.00     0.094 A 
ATOM     14  C   UNL d   1      56.215  -0.797  32.565  0.00  0.00     0.024 A 
ATOM     15  C   UNL d   1      56.763  -0.743  31.937  0.00  0.00     0.005 A 
BRANCH  13  16
ATOM     16  O   UNL d   1      55.301  -0.225  33.497  0.00  0.00    -0.328 OA
ATOM     17  C   UNL d   1      55.351   0.252  34.168  0.00  0.00     0.181 C 
ENDBRANCH  13  16
ENDBRANCH   1  10
TORSDOF 2
ENDMDL
MODEL 3
REMARK VINA RESULT:      -4.2      2.147      4.457
REMARK  2 active torsions:
REMARK  status: ('A' for Active; 'I' for Inactive)
REMARK    1  A    between atoms: C_6  and  C_1 
REMARK    2  A    between atoms: O_16  and  C_13 
ROOT
ATOM      1  C   UNL d   1      58.138   0.085  30.066  0.00  0.00     0.148 A 
ATOM      2  N   UNL d   1      58.919   0.287  30.156  0.00  0.00    -0.289 N 
ATOM      3  N   UNL d   1      57.988  -0.015  29.268  0.00  0.00    -0.225 NA
ATOM      4  C   UNL d   1      59.285   0.320  29.410  0.00  0.00     0.085 A 
ATOM      5  C   UNL d   1      58.689   0.128  28.855  0.00  0.00     0.118 A 
ATOM      6  C   UNL d   1      59.397   0.462  30.859  0.00  0.00     0.082 A 
ATOM      7  C   UNL d   1      60.071   0.511  29.330  0.00  0.00     0.019 A 
ATOM      8  C   UNL d   1      60.184   0.653  30.779  0.00  0.00     0.019 A 
ATOM      9  C   UNL d   1      60.546   0.682  29.991  0.00  0.00     0.003 A 
ENDROOT
BRANCH   1  10
ATOM     10  C   UNL d   1      57.637   0.012  30.736  0.00  0.00     0.035 A 
ATOM     11  C   UNL d   1      57.482  -0.733  31.069  0.00  0.00     0.005 A 
ATOM     12  C   UNL d   1      56.992  -0.797  31.723  0.00  0.00     0.024 A 
ATOM     13  C   UNL d   1      56.650  -0.124  32.055  0.00  0.00     0.094 A 
ATOM     14  C   UNL d   1      56.800   0.605  31.731  0.00  0.00     0.024 A 
ATOM     15  C   UNL d   1      57.298   0.682  31.064  0.00  0.00     0.005 A 
BRANCH  13  16
ATOM     16  O   UNL d   1      56.140  -0.165  32.732  0.00  0.00    -0.328 OA
ATOM     17  C   UNL d   1      55.883  -0.893  33.021  0.00  0.00     0.181 C 
ENDBRANCH  13  16
ENDBRANCH   1  10
TORSDOF 2
ENDMDL
MODEL 4
REMARK VINA RESULT:      -4.0      0.712      1.429
REMARK  2 active torsions:
REMARK  status: ('A' for Active; 'I' for Inactive)
REMARK    1  A    between atoms: C_6  and  C_1 
REMARK    2  A    between atoms: O_16  and  C_13 
ROOT
ATOM      1  C   UNL d   1      56.171  -0.008  32.579  0.00  0.00     0.148 A 
ATOM      2  N   UNL d   1      56.441   0.222  33.310  0.00  0.00    -0.289 N 
ATOM      3  N   UNL d   1      55.378  -0.195  32.644  0.00  0.00    -0.225 NA
ATOM      4  C   UNL d   1      55.818   0.185  33.859  0.00  0.00     0.085 A 
ATOM      5  C   UNL d   1      55.151  -0.080  33.430  0.00  0.00     0.118 A 
ATOM      6  C   UNL d   1      57.221   0.482  33.588  0.00  0.00     0.082 A 
ATOM      7  C   UNL d   1      55.927   0.385  34.640  0.00  0.00     0.019 A 
ATOM      8  C   UNL d   1      57.330   0.682  34.368  0.00  0.00     0.019 A 
ATOM      9  C   UNL d   1      56.667   0.636  34.925  0.00  0.00     0.003 A 
ENDROOT
BRANCH   1  10
ATOM     10  C   UNL d   1      56.691  -0.021  31.920  0.00  0.00     0.035 A 
ATOM     11  C   UNL d   1      57.009  -0.738  31.645  0.00  0.00     0.005 A 
ATOM     12  C   UNL d   1      57.515  -0.744  31.001  0.00  0.00     0.024 A 
ATOM     13  C   UNL d   1      57.712  -0.040  30.620  0.00  0.00     0.094 A 
ATOM     14  C   UNL d   1      57.403   0.662  30.886  0.00  0.00     0.024 A 
ATOM     15  C   UNL d   1      56.885   0.680  31.542  0.00  0.00     0.005 A 
BRANCH  13  16
ATOM     16  O   UNL d   1      58.234  -0.020  29.951  0.00  0.00    -0.328 OA
ATOM     17  C   UNL d   1      58.513  -0.720  29.615  0.00  0.00     0.181 C 
ENDBRANCH  13  16
ENDBRANCH   1  10
TORSDOF 2
ENDMDL
MODEL 5
REMARK VINA RESULT:      -3.0      3.838      6.121
REMARK  2 active torsions:
REMARK  status: ('A' for Active; 'I' for Inactive)
REMARK    1  A    between atoms: C_6  and  C_1 
REMARK    2  A    between atoms: O_16  and  C_13 
ROOT
ATOM      1  C   UNL d   1      58.919  -2.620  28.854  0.00  0.00     0.148 A 
ATOM      2  N   UNL d   1      59.684  -2.894  28.857  0.00  0.00    -0.289 N 
ATOM      3  N   UNL d   1      58.426  -3.233  28.630  0.00  0.00    -0.225 NA
ATOM      4  C   UNL d   1      59.692  -3.695  28.633  0.00  0.00     0.085 A 
ATOM      5  C   UNL d   1      58.893  -3.899  28.491  0.00  0.00     0.118 A 
ATOM      6  C   UNL d   1      60.439  -2.510  29.044  0.00  0.00     0.082 A 
ATOM      7  C   UNL d   1      60.385  -4.116  28.586  0.00  0.00     0.019 A 
ATOM      8  C   UNL d   1      61.133  -2.932  28.998  0.00  0.00     0.019 A 
ATOM      9  C   UNL d   1      61.120  -3.767  28.762  0.00  0.00     0.003 A 
ENDROOT
BRANCH   1  10
ATOM     10  C   UNL d   1      58.753  -1.823  29.061  0.00  0.00     0.035 A 
ATOM     11  C   UNL d   1      58.852  -1.212  28.508  0.00  0.00     0.005 A 
ATOM     12  C   UNL d   1      58.687  -0.437  28.716  0.00  0.00     0.024 A 
ATOM     13  C   UNL d   1      58.423  -0.258  29.475  0.00  0.00     0.094 A 
ATOM     14  C   UNL d   1      58.325  -0.853  30.019  0.00  0.00     0.024 A 
ATOM     15  C   UNL d   1      58.490  -1.647  29.817  0.00  0.00     0.005 A 
BRANCH  13  16
ATOM     16  O   UNL d   1      58.245   0.537  29.715  0.00  0.00    -0.328 OA
ATOM     17  C   UNL d   1      57.751   0.681  30.358  0.00  0.00     0.181 C 
ENDBRANCH  13  16
ENDBRANCH   1  10
TORSDOF 2
ENDMDL
