MODEL 1
REMARK VINA RESULT:      27.9      0.000      0.000
REMARK  1 active torsions:
REMARK  status: ('A' for Active; 'I' for Inactive)
REMARK    1  A    between atoms: C_12  and  N_1 
ROOT
ATOM      1  N   UNL d   1      45.905 -16.617  43.805  0.00  0.00    -0.244 N 
ATOM      2  C   UNL d   1      46.003 -16.799  43.028  0.00  0.00     0.251 A 
ATOM      3  C   UNL d   1      46.000 -17.352  44.182  0.00  0.00     0.260 A 
ATOM      4  C   UNL d   1      46.145 -17.927  43.649  0.00  0.00     0.033 A 
ATOM      5  C   UNL d   1      46.148 -17.585  42.927  0.00  0.00     0.125 A 
ATOM      6  C   UNL d   1      46.592 -19.978  42.581  0.00  0.00     0.068 A 
ATOM      7  C   UNL d   1      46.285 -18.403  42.980  0.00  0.00    -0.010 A 
ATOM      8  C   UNL d   1      46.331 -18.959  43.569  0.00  0.00    -0.007 A 
ATOM      9  C   UNL d   1      46.485 -19.744  43.366  0.00  0.00    -0.015 A 
ATOM     10  C   UNL d   1      46.539 -19.388  42.007  0.00  0.00    -0.015 A 
ATOM     11  C   UNL d   1      46.387 -18.605  42.203  0.00  0.00    -0.007 A 
ATOM     12  O   UNL d   1      45.959 -16.325  42.573  0.00  0.00    -0.271 OA
ATOM     13  O   UNL d   1      45.943 -17.361  44.876  0.00  0.00    -0.267 OA
ATOM     14  C   UNL d   1      46.338 -18.034  41.615  0.00  0.00    -0.001 A 
ATOM     15  C   UNL d   1      46.227 -18.744  44.350  0.00  0.00    -0.001 A 
ATOM     16  C   UNL d   1      46.535 -20.330  43.965  0.00  0.00    -0.004 A 
ATOM     17  C   UNL d   1      46.643 -19.601  41.221  0.00  0.00    -0.004 A 
ATOM     18  C   UNL d   1      46.445 -18.261  40.824  0.00  0.00    -0.000 A 
ATOM     19  C   UNL d   1      46.278 -19.337  44.954  0.00  0.00    -0.000 A 
ATOM     20  C   UNL d   1      46.433 -20.125  44.751  0.00  0.00    -0.000 A 
ATOM     21  C   UNL d   1      46.594 -19.028  40.636  0.00  0.00    -0.000 A 
ENDROOT
BRANCH   1  22
ATOM     22  C   UNL d   1      45.742 -15.841  44.141  0.00  0.00     0.089 A 
ATOM     23  C   UNL d   1      46.303 -15.194  44.019  0.00  0.00     0.117 A 
ATOM     24  N   UNL d   1      46.143 -14.406  44.357  0.00  0.00    -0.241 NA
ATOM     25  C   UNL d   1      45.412 -14.264  44.822  0.00  0.00     0.099 A 
ATOM     26  C   UNL d   1      44.855 -14.916  44.941  0.00  0.00     0.022 A 
ATOM     27  C   UNL d   1      45.020 -15.707  44.598  0.00  0.00     0.021 A 
ENDBRANCH   1  22
TORSDOF 1
ENDMDL
