MODEL 1
REMARK VINA RESULT:      -4.4      0.000      0.000
REMARK  8 active torsions:
REMARK  status: ('A' for Active; 'I' for Inactive)
REMARK    1  A    between atoms: C_20  and  N_7 
REMARK    2  A    between atoms: C_10  and  C_8 
REMARK       I    between atoms: N_18  and  C_10 
REMARK    3  A    between atoms: N_14  and  C_22 
REMARK    4  A    between atoms: C_21  and  N_18 
REMARK    5  A    between atoms: C_23  and  C_20 
REMARK    6  A    between atoms: C_22  and  C_21 
REMARK    7  A    between atoms: C_30  and  C_23 
REMARK    8  A    between atoms: O_27  and  C_30 
ROOT
ATOM      1  C   UNL d   1     -48.254  13.936  22.834  0.00  0.00     0.154 A 
ATOM      2  C   UNL d   1     -48.287  14.612  22.363  0.00  0.00     0.093 A 
ATOM      3  N   UNL d   1     -48.934  13.605  23.119  0.00  0.00    -0.210 NA
ATOM      4  N   UNL d   1     -49.667  14.617  22.468  0.00  0.00    -0.258 N 
ATOM      5  C   UNL d   1     -49.634  13.941  22.939  0.00  0.00     0.152 A 
ATOM      6  C   UNL d   1     -48.992  14.957  22.177  0.00  0.00     0.269 A 
ATOM      7  N   UNL d   1     -47.559  13.600  23.015  0.00  0.00    -0.285 N 
ATOM      8  C   UNL d   1     -46.887  13.931  22.731  0.00  0.00     0.137 A 
ATOM      9  C   UNL d   1     -46.920  14.597  22.267  0.00  0.00     0.031 A 
ATOM     10  C   UNL d   1     -50.301  13.613  23.220  0.00  0.00     0.035 A 
ATOM     11  C   UNL d   1     -50.368  14.966  22.278  0.00  0.00     0.084 A 
ATOM     12  O   UNL d   1     -49.026  15.634  21.706  0.00  0.00    -0.266 OA
ATOM     13  C   UNL d   1     -51.034  14.622  22.571  0.00  0.00     0.019 A 
ATOM     14  C   UNL d   1     -51.000  13.946  23.042  0.00  0.00     0.005 A 
ATOM     15  C   UNL d   1     -50.259  12.926  23.698  0.00  0.00     0.003 C 
ENDROOT
BRANCH   8  16
ATOM     16  C   UNL d   1     -46.174  13.585  22.917  0.00  0.00     0.344 C 
ATOM     17  O   UNL d   1     -45.998  13.400  23.698  0.00  0.00    -0.249 OA
ATOM     18  N   UNL d   1     -45.631  13.423  22.304  0.00  0.00    -0.359 NA
BRANCH  18  19
ATOM     19  C   UNL d   1     -45.084  13.258  21.698  0.00  0.00     0.184 C 
BRANCH  19  20
ATOM     20  C   UNL d   1     -44.424  12.765  21.850  0.00  0.00     0.116 C 
BRANCH  20  21
ATOM     21  N   UNL d   1     -43.686  12.945  21.501  0.00  0.00    -0.297 N 
ATOM     22  C   UNL d   1     -43.210  13.371  20.963  0.00  0.00     0.107 A 
ATOM     23  C   UNL d   1     -42.385  13.223  20.924  0.00  0.00     0.142 A 
ATOM     24  O   UNL d   1     -42.038  12.644  21.430  0.00  0.00    -0.300 OA
ATOM     25  C   UNL d   1     -42.519  12.215  21.973  0.00  0.00     0.142 A 
ATOM     26  C   UNL d   1     -43.343  12.366  22.008  0.00  0.00     0.107 A 
ENDBRANCH  20  21
ENDBRANCH  19  20
ENDBRANCH  18  19
ENDBRANCH   8  16
BRANCH   7  27
ATOM     27  C   UNL d   1     -47.534  12.917  23.492  0.00  0.00     0.084 C 
BRANCH  27  28
ATOM     28  C   UNL d   1     -47.554  12.162  23.143  0.00  0.00     0.045 C 
BRANCH  28  29
ATOM     29  C   UNL d   1     -47.473  11.485  23.621  0.00  0.00     0.118 C 
BRANCH  29  30
ATOM     30  O   UNL d   1     -47.498  10.731  23.273  0.00  0.00    -0.326 OA
ATOM     31  C   UNL d   1     -46.873  10.189  23.405  0.00  0.00     0.181 C 
ENDBRANCH  29  30
ENDBRANCH  28  29
ENDBRANCH  27  28
ENDBRANCH   7  27
TORSDOF 8
ENDMDL
MODEL 2
REMARK VINA RESULT:      -3.9      0.947      2.502
REMARK  8 active torsions:
REMARK  status: ('A' for Active; 'I' for Inactive)
REMARK    1  A    between atoms: C_20  and  N_7 
REMARK    2  A    between atoms: C_10  and  C_8 
REMARK       I    between atoms: N_18  and  C_10 
REMARK    3  A    between atoms: N_14  and  C_22 
REMARK    4  A    between atoms: C_21  and  N_18 
REMARK    5  A    between atoms: C_23  and  C_20 
REMARK    6  A    between atoms: C_22  and  C_21 
REMARK    7  A    between atoms: C_30  and  C_23 
REMARK    8  A    between atoms: O_27  and  C_30 
ROOT
ATOM      1  C   UNL d   1     -48.298  12.760  23.444  0.00  0.00     0.154 A 
ATOM      2  C   UNL d   1     -48.306  11.935  23.448  0.00  0.00     0.093 A 
ATOM      3  N   UNL d   1     -48.990  13.174  23.505  0.00  0.00    -0.210 NA
ATOM      4  N   UNL d   1     -49.684  11.948  23.574  0.00  0.00    -0.258 N 
ATOM      5  C   UNL d   1     -49.677  12.773  23.569  0.00  0.00     0.152 A 
ATOM      6  C   UNL d   1     -48.997  11.524  23.513  0.00  0.00     0.269 A 
ATOM      7  N   UNL d   1     -47.616  13.160  23.380  0.00  0.00    -0.285 N 
ATOM      8  C   UNL d   1     -46.933  12.747  23.320  0.00  0.00     0.137 A 
ATOM      9  C   UNL d   1     -46.940  11.935  23.324  0.00  0.00     0.031 A 
ATOM     10  C   UNL d   1     -50.355  13.182  23.629  0.00  0.00     0.035 A 
ATOM     11  C   UNL d   1     -50.370  11.532  23.638  0.00  0.00     0.084 A 
ATOM     12  O   UNL d   1     -49.004  10.699  23.518  0.00  0.00    -0.266 OA
ATOM     13  C   UNL d   1     -51.048  11.961  23.698  0.00  0.00     0.019 A 
ATOM     14  C   UNL d   1     -51.041  12.786  23.693  0.00  0.00     0.005 A 
ATOM     15  C   UNL d   1     -50.339  14.020  23.624  0.00  0.00     0.003 C 
ENDROOT
BRANCH   8  16
ATOM     16  C   UNL d   1     -46.234  13.159  23.254  0.00  0.00     0.344 C 
ATOM     17  O   UNL d   1     -46.115  13.839  23.698  0.00  0.00    -0.249 OA
ATOM     18  N   UNL d   1     -45.646  12.878  22.730  0.00  0.00    -0.359 NA
BRANCH  18  19
ATOM     19  C   UNL d   1     -45.057  12.604  22.211  0.00  0.00     0.184 C 
BRANCH  19  20
ATOM     20  C   UNL d   1     -44.550  13.149  21.826  0.00  0.00     0.116 C 
BRANCH  20  21
ATOM     21  N   UNL d   1     -43.776  12.915  21.616  0.00  0.00    -0.297 N 
ATOM     22  C   UNL d   1     -43.184  12.334  21.514  0.00  0.00     0.107 A 
ATOM     23  C   UNL d   1     -42.422  12.555  21.243  0.00  0.00     0.142 A 
ATOM     24  O   UNL d   1     -42.254  13.364  21.075  0.00  0.00    -0.300 OA
ATOM     25  C   UNL d   1     -42.851  13.949  21.178  0.00  0.00     0.142 A 
ATOM     26  C   UNL d   1     -43.611  13.724  21.449  0.00  0.00     0.107 A 
ENDBRANCH  20  21
ENDBRANCH  19  20
ENDBRANCH  18  19
ENDBRANCH   8  16
BRANCH   7  27
ATOM     27  C   UNL d   1     -47.618  13.993  23.376  0.00  0.00     0.084 C 
BRANCH  27  28
ATOM     28  C   UNL d   1     -47.709  14.409  22.661  0.00  0.00     0.045 C 
BRANCH  28  29
ATOM     29  C   UNL d   1     -47.803  15.236  22.675  0.00  0.00     0.118 C 
BRANCH  29  30
ATOM     30  O   UNL d   1     -47.811  15.660  21.960  0.00  0.00    -0.326 OA
ATOM     31  C   UNL d   1     -48.541  15.896  21.623  0.00  0.00     0.181 C 
ENDBRANCH  29  30
ENDBRANCH  28  29
ENDBRANCH  27  28
ENDBRANCH   7  27
TORSDOF 8
ENDMDL
MODEL 3
REMARK VINA RESULT:      -3.4      3.962      8.701
REMARK  8 active torsions:
REMARK  status: ('A' for Active; 'I' for Inactive)
REMARK    1  A    between atoms: C_20  and  N_7 
REMARK    2  A    between atoms: C_10  and  C_8 
REMARK       I    between atoms: N_18  and  C_10 
REMARK    3  A    between atoms: N_14  and  C_22 
REMARK    4  A    between atoms: C_21  and  N_18 
REMARK    5  A    between atoms: C_23  and  C_20 
REMARK    6  A    between atoms: C_22  and  C_21 
REMARK    7  A    between atoms: C_30  and  C_23 
REMARK    8  A    between atoms: O_27  and  C_30 
ROOT
ATOM      1  C   UNL d   1     -40.084  14.383  18.785  0.00  0.00     0.154 A 
ATOM      2  C   UNL d   1     -40.566  14.750  18.224  0.00  0.00     0.093 A 
ATOM      3  N   UNL d   1     -39.366  14.081  18.569  0.00  0.00    -0.210 NA
ATOM      4  N   UNL d   1     -39.613  14.512  17.249  0.00  0.00    -0.258 N 
ATOM      5  C   UNL d   1     -39.131  14.144  17.810  0.00  0.00     0.152 A 
ATOM      6  C   UNL d   1     -40.335  14.817  17.454  0.00  0.00     0.269 A 
ATOM      7  N   UNL d   1     -40.316  14.319  19.541  0.00  0.00    -0.285 N 
ATOM      8  C   UNL d   1     -41.028  14.619  19.750  0.00  0.00     0.137 A 
ATOM      9  C   UNL d   1     -41.502  14.980  19.199  0.00  0.00     0.031 A 
ATOM     10  C   UNL d   1     -38.425  13.847  17.600  0.00  0.00     0.035 A 
ATOM     11  C   UNL d   1     -39.388  14.582  16.479  0.00  0.00     0.084 A 
ATOM     12  O   UNL d   1     -40.816  15.185  16.894  0.00  0.00    -0.266 OA
ATOM     13  C   UNL d   1     -38.670  14.276  16.284  0.00  0.00     0.019 A 
ATOM     14  C   UNL d   1     -38.188  13.908  16.844  0.00  0.00     0.005 A 
ATOM     15  C   UNL d   1     -37.942  13.476  18.175  0.00  0.00     0.003 C 
ENDROOT
BRANCH   8  16
ATOM     16  C   UNL d   1     -41.264  14.552  20.527  0.00  0.00     0.344 C 
ATOM     17  O   UNL d   1     -41.058  15.132  21.071  0.00  0.00    -0.249 OA
ATOM     18  N   UNL d   1     -41.717  13.888  20.756  0.00  0.00    -0.359 NA
BRANCH  18  19
ATOM     19  C   UNL d   1     -42.167  13.230  20.993  0.00  0.00     0.184 C 
BRANCH  19  20
ATOM     20  C   UNL d   1     -42.958  13.332  21.249  0.00  0.00     0.116 C 
BRANCH  20  21
ATOM     21  N   UNL d   1     -43.319  12.742  21.718  0.00  0.00    -0.297 N 
ATOM     22  C   UNL d   1     -43.291  12.039  22.168  0.00  0.00     0.107 A 
ATOM     23  C   UNL d   1     -43.987  11.741  22.527  0.00  0.00     0.142 A 
ATOM     24  O   UNL d   1     -44.717  12.154  22.433  0.00  0.00    -0.300 OA
ATOM     25  C   UNL d   1     -44.746  12.863  21.979  0.00  0.00     0.142 A 
ATOM     26  C   UNL d   1     -44.047  13.157  21.622  0.00  0.00     0.107 A 
ENDBRANCH  20  21
ENDBRANCH  19  20
ENDBRANCH  18  19
ENDBRANCH   8  16
BRANCH   7  27
ATOM     27  C   UNL d   1     -39.823  13.946  20.100  0.00  0.00     0.084 C 
BRANCH  27  28
ATOM     28  C   UNL d   1     -39.265  14.390  20.528  0.00  0.00     0.045 C 
BRANCH  28  29
ATOM     29  C   UNL d   1     -38.766  14.007  21.074  0.00  0.00     0.118 C 
BRANCH  29  30
ATOM     30  O   UNL d   1     -38.057  14.372  21.307  0.00  0.00    -0.326 OA
ATOM     31  C   UNL d   1     -37.953  14.613  22.103  0.00  0.00     0.181 C 
ENDBRANCH  29  30
ENDBRANCH  28  29
ENDBRANCH  27  28
ENDBRANCH   7  27
TORSDOF 8
ENDMDL
