MODEL 1
REMARK VINA RESULT:      -2.9      0.000      0.000
REMARK  3 active torsions:
REMARK  status: ('A' for Active; 'I' for Inactive)
REMARK    1  A    between atoms: C_8  and  N_1 
REMARK    2  A    between atoms: C_6  and  C_2 
REMARK    3  A    between atoms: C_14  and  C_8 
ROOT
ATOM      1  N   UNL d   1      58.644  -0.777  29.715  0.00  0.00    -0.289 N 
ATOM      2  C   UNL d   1      58.465  -1.587  29.767  0.00  0.00     0.154 A 
ATOM      3  N   UNL d   1      57.889  -1.682  30.346  0.00  0.00    -0.226 NA
ATOM      4  C   UNL d   1      58.177  -0.376  30.266  0.00  0.00     0.083 A 
ATOM      5  C   UNL d   1      57.710  -0.933  30.657  0.00  0.00     0.099 A 
ATOM      6  C   UNL d   1      58.109   0.430  30.470  0.00  0.00     0.019 A 
ATOM      7  C   UNL d   1      57.179  -0.691  31.246  0.00  0.00     0.021 A 
ATOM      8  C   UNL d   1      57.581   0.666  31.057  0.00  0.00     0.002 A 
ATOM      9  C   UNL d   1      57.116   0.106  31.445  0.00  0.00     0.002 A 
ENDROOT
BRANCH   2  10
ATOM     10  C   UNL d   1      58.806  -2.184  29.314  0.00  0.00     0.064 A 
ATOM     11  S   UNL d   1      58.622  -2.541  28.713  0.00  0.00    -0.083 SA
ATOM     12  C   UNL d   1      59.062  -3.049  28.455  0.00  0.00     0.035 A 
ATOM     13  C   UNL d   1      59.679  -3.204  28.785  0.00  0.00     0.008 A 
ATOM     14  C   UNL d   1      59.863  -2.847  29.384  0.00  0.00     0.010 A 
ENDBRANCH   2  10
BRANCH   1  15
ATOM     15  C   UNL d   1      59.217  -0.592  29.153  0.00  0.00     0.082 C 
BRANCH  15  16
ATOM     16  C   UNL d   1      59.438   0.192  29.036  0.00  0.00     0.018 C 
ATOM     17  C   UNL d   1      59.061   0.641  28.456  0.00  0.00     0.002 C 
ATOM     18  C   UNL d   1      60.034   0.528  29.497  0.00  0.00     0.002 C 
ENDBRANCH  15  16
ENDBRANCH   1  15
TORSDOF 3
ENDMDL
MODEL 2
REMARK VINA RESULT:      -2.0      1.060      3.087
REMARK  3 active torsions:
REMARK  status: ('A' for Active; 'I' for Inactive)
REMARK    1  A    between atoms: C_8  and  N_1 
REMARK    2  A    between atoms: C_6  and  C_2 
REMARK    3  A    between atoms: C_14  and  C_8 
ROOT
ATOM      1  N   UNL d   1      59.331  -0.881  29.445  0.00  0.00    -0.289 N 
ATOM      2  C   UNL d   1      58.556  -0.932  29.740  0.00  0.00     0.154 A 
ATOM      3  N   UNL d   1      58.277  -1.690  29.588  0.00  0.00    -0.226 NA
ATOM      4  C   UNL d   1      59.527  -1.611  29.113  0.00  0.00     0.083 A 
ATOM      5  C   UNL d   1      58.878  -2.112  29.200  0.00  0.00     0.099 A 
ATOM      6  C   UNL d   1      60.215  -1.895  28.737  0.00  0.00     0.019 A 
ATOM      7  C   UNL d   1      58.912  -2.891  28.916  0.00  0.00     0.021 A 
ATOM      8  C   UNL d   1      60.245  -2.669  28.456  0.00  0.00     0.002 A 
ATOM      9  C   UNL d   1      59.593  -3.167  28.546  0.00  0.00     0.002 A 
ENDROOT
BRANCH   2  10
ATOM     10  C   UNL d   1      58.145  -0.325  30.116  0.00  0.00     0.064 A 
ATOM     11  S   UNL d   1      57.762   0.248  29.897  0.00  0.00    -0.083 SA
ATOM     12  C   UNL d   1      57.465   0.682  30.388  0.00  0.00     0.035 A 
ATOM     13  C   UNL d   1      57.543   0.554  31.089  0.00  0.00     0.008 A 
ATOM     14  C   UNL d   1      57.925  -0.018  31.307  0.00  0.00     0.010 A 
ENDBRANCH   2  10
BRANCH   1  15
ATOM     15  C   UNL d   1      59.688  -0.146  29.556  0.00  0.00     0.082 C 
BRANCH  15  16
ATOM     16  C   UNL d   1      60.469  -0.031  29.322  0.00  0.00     0.018 C 
ATOM     17  C   UNL d   1      61.081  -0.178  29.854  0.00  0.00     0.002 C 
ATOM     18  C   UNL d   1      60.638   0.230  28.558  0.00  0.00     0.002 C 
ENDBRANCH  15  16
ENDBRANCH   1  15
TORSDOF 3
ENDMDL
MODEL 3
REMARK VINA RESULT:      -1.6      1.085      3.063
REMARK  3 active torsions:
REMARK  status: ('A' for Active; 'I' for Inactive)
REMARK    1  A    between atoms: C_8  and  N_1 
REMARK    2  A    between atoms: C_6  and  C_2 
REMARK    3  A    between atoms: C_14  and  C_8 
ROOT
ATOM      1  N   UNL d   1      58.510  -0.630  29.923  0.00  0.00    -0.289 N 
ATOM      2  C   UNL d   1      57.893  -0.862  30.428  0.00  0.00     0.154 A 
ATOM      3  N   UNL d   1      57.748  -1.662  30.301  0.00  0.00    -0.226 NA
ATOM      4  C   UNL d   1      58.744  -1.290  29.486  0.00  0.00     0.083 A 
ATOM      5  C   UNL d   1      58.275  -1.928  29.717  0.00  0.00     0.099 A 
ATOM      6  C   UNL d   1      59.327  -1.403  28.899  0.00  0.00     0.019 A 
ATOM      7  C   UNL d   1      58.384  -2.673  29.369  0.00  0.00     0.021 A 
ATOM      8  C   UNL d   1      59.432  -2.145  28.556  0.00  0.00     0.002 A 
ATOM      9  C   UNL d   1      58.960  -2.780  28.790  0.00  0.00     0.002 A 
ENDROOT
BRANCH   2  10
ATOM     10  C   UNL d   1      57.499  -0.373  30.961  0.00  0.00     0.064 A 
ATOM     11  S   UNL d   1      57.393  -0.373  31.676  0.00  0.00    -0.083 SA
ATOM     12  C   UNL d   1      57.008   0.156  31.976  0.00  0.00     0.035 A 
ATOM     13  C   UNL d   1      56.729   0.681  31.576  0.00  0.00     0.008 A 
ATOM     14  C   UNL d   1      56.835   0.681  30.863  0.00  0.00     0.010 A 
ENDBRANCH   2  10
BRANCH   1  15
ATOM     15  C   UNL d   1      58.720   0.164  29.988  0.00  0.00     0.082 C 
BRANCH  15  16
ATOM     16  C   UNL d   1      59.282   0.481  29.476  0.00  0.00     0.018 C 
ATOM     17  C   UNL d   1      60.054   0.599  29.738  0.00  0.00     0.002 C 
ATOM     18  C   UNL d   1      59.072   0.681  28.704  0.00  0.00     0.002 C 
ENDBRANCH  15  16
ENDBRANCH   1  15
TORSDOF 3
ENDMDL
MODEL 4
REMARK VINA RESULT:      -1.5      1.408      3.331
REMARK  3 active torsions:
REMARK  status: ('A' for Active; 'I' for Inactive)
REMARK    1  A    between atoms: C_8  and  N_1 
REMARK    2  A    between atoms: C_6  and  C_2 
REMARK    3  A    between atoms: C_14  and  C_8 
ROOT
ATOM      1  N   UNL d   1      58.775  -0.336  30.066  0.00  0.00    -0.289 N 
ATOM      2  C   UNL d   1      58.555   0.193  30.667  0.00  0.00     0.154 A 
ATOM      3  N   UNL d   1      59.210   0.656  30.850  0.00  0.00    -0.226 NA
ATOM      4  C   UNL d   1      59.567  -0.197  29.880  0.00  0.00     0.083 A 
ATOM      5  C   UNL d   1      59.838   0.416  30.362  0.00  0.00     0.099 A 
ATOM      6  C   UNL d   1      60.089  -0.546  29.331  0.00  0.00     0.019 A 
ATOM      7  C   UNL d   1      60.622   0.679  30.300  0.00  0.00     0.021 A 
ATOM      8  C   UNL d   1      60.867  -0.281  29.272  0.00  0.00     0.002 A 
ATOM      9  C   UNL d   1      61.133   0.332  29.756  0.00  0.00     0.002 A 
ENDROOT
BRANCH   2  10
ATOM     10  C   UNL d   1      57.810   0.241  31.016  0.00  0.00     0.064 A 
ATOM     11  S   UNL d   1      57.223   0.652  30.918  0.00  0.00    -0.083 SA
ATOM     12  C   UNL d   1      56.645   0.546  31.332  0.00  0.00     0.035 A 
ATOM     13  C   UNL d   1      56.642   0.039  31.839  0.00  0.00     0.008 A 
ATOM     14  C   UNL d   1      57.228  -0.370  31.937  0.00  0.00     0.010 A 
ENDBRANCH   2  10
BRANCH   1  15
ATOM     15  C   UNL d   1      58.171  -0.841  29.823  0.00  0.00     0.082 C 
BRANCH  15  16
ATOM     16  C   UNL d   1      58.325  -1.420  29.258  0.00  0.00     0.018 C 
ATOM     17  C   UNL d   1      58.587  -2.165  29.496  0.00  0.00     0.002 C 
ATOM     18  C   UNL d   1      58.219  -1.256  28.457  0.00  0.00     0.002 C 
ENDBRANCH  15  16
ENDBRANCH   1  15
TORSDOF 3
ENDMDL
MODEL 5
REMARK VINA RESULT:      -0.3      2.728      4.402
REMARK  3 active torsions:
REMARK  status: ('A' for Active; 'I' for Inactive)
REMARK    1  A    between atoms: C_8  and  N_1 
REMARK    2  A    between atoms: C_6  and  C_2 
REMARK    3  A    between atoms: C_14  and  C_8 
ROOT
ATOM      1  N   UNL d   1      56.722   0.155  33.070  0.00  0.00    -0.289 N 
ATOM      2  C   UNL d   1      57.403   0.309  32.620  0.00  0.00     0.154 A 
ATOM      3  N   UNL d   1      58.004   0.531  33.137  0.00  0.00    -0.226 NA
ATOM      4  C   UNL d   1      56.907   0.282  33.865  0.00  0.00     0.083 A 
ATOM      5  C   UNL d   1      57.698   0.514  33.908  0.00  0.00     0.099 A 
ATOM      6  C   UNL d   1      56.461   0.218  34.567  0.00  0.00     0.019 A 
ATOM      7  C   UNL d   1      58.042   0.682  34.644  0.00  0.00     0.021 A 
ATOM      8  C   UNL d   1      56.807   0.386  35.296  0.00  0.00     0.002 A 
ATOM      9  C   UNL d   1      57.598   0.618  35.334  0.00  0.00     0.002 A 
ENDROOT
BRANCH   2  10
ATOM     10  C   UNL d   1      57.461   0.250  31.800  0.00  0.00     0.064 A 
ATOM     11  S   UNL d   1      57.278   0.670  31.241  0.00  0.00    -0.083 SA
ATOM     12  C   UNL d   1      57.410   0.444  30.572  0.00  0.00     0.035 A 
ATOM     13  C   UNL d   1      57.720  -0.191  30.452  0.00  0.00     0.008 A 
ATOM     14  C   UNL d   1      57.903  -0.610  31.009  0.00  0.00     0.010 A 
ENDBRANCH   2  10
BRANCH   1  15
ATOM     15  C   UNL d   1      56.068  -0.076  32.626  0.00  0.00     0.082 C 
BRANCH  15  16
ATOM     16  C   UNL d   1      55.458  -0.496  32.984  0.00  0.00     0.018 C 
ATOM     17  C   UNL d   1      54.829  -0.091  33.330  0.00  0.00     0.002 C 
ATOM     18  C   UNL d   1      55.475  -1.321  32.997  0.00  0.00     0.002 C 
ENDBRANCH  15  16
ENDBRANCH   1  15
TORSDOF 3
ENDMDL
