MODEL 1
REMARK VINA RESULT:      -3.2      0.000      0.000
REMARK  1 active torsions:
REMARK  status: ('A' for Active; 'I' for Inactive)
REMARK    1  A    between atoms: C_13  and  N_3 
ROOT
ATOM      1  C   UNL d   1      33.236  21.841 -22.130  0.00  0.00     0.166 A 
ATOM      2  C   UNL d   1      33.235  21.547 -21.363  0.00  0.00     0.117 A 
ATOM      3  N   UNL d   1      33.238  22.667 -22.062  0.00  0.00    -0.289 N 
ATOM      4  C   UNL d   1      33.236  22.165 -20.839  0.00  0.00     0.038 A 
ATOM      5  N   UNL d   1      33.235  21.334 -22.788  0.00  0.00    -0.225 NA
ATOM      6  C   UNL d   1      33.238  22.863 -21.275  0.00  0.00     0.067 A 
ATOM      7  N   UNL d   1      33.233  20.725 -21.272  0.00  0.00    -0.241 NA
ATOM      8  C   UNL d   1      33.233  20.534 -22.680  0.00  0.00     0.101 A 
ATOM      9  C   UNL d   1      33.233  20.232 -21.908  0.00  0.00     0.099 A 
ATOM     10  C   UNL d   1      33.239  23.594 -20.886  0.00  0.00     0.018 A 
ATOM     11  C   UNL d   1      33.236  22.198 -20.015  0.00  0.00     0.015 A 
ATOM     12  C   UNL d   1      33.238  22.924 -19.624  0.00  0.00     0.058 A 
ATOM     13  C   UNL d   1      33.239  23.622 -20.060  0.00  0.00     0.013 A 
ATOM     14 CL   UNL d   1      33.237  22.957 -18.799  0.00  0.00    -0.082 Cl
ATOM     15  C   UNL d   1      33.233  20.033 -23.314  0.00  0.00     0.021 A 
ATOM     16  C   UNL d   1      33.231  19.423 -21.795  0.00  0.00     0.021 A 
ATOM     17  C   UNL d   1      33.231  19.204 -23.183  0.00  0.00     0.002 A 
ATOM     18  C   UNL d   1      33.230  18.891 -22.438  0.00  0.00     0.002 A 
ENDROOT
BRANCH   3  19
ATOM     19  C   UNL d   1      33.239  23.186 -22.682  0.00  0.00     0.082 C 
ATOM     20  C   UNL d   1      32.495  23.466 -22.969  0.00  0.00     0.021 C 
ENDBRANCH   3  19
TORSDOF 1
ENDMDL
MODEL 2
REMARK VINA RESULT:      -2.8      1.531      2.414
REMARK  1 active torsions:
REMARK  status: ('A' for Active; 'I' for Inactive)
REMARK    1  A    between atoms: C_13  and  N_3 
ROOT
ATOM      1  C   UNL d   1      33.212  20.703 -22.166  0.00  0.00     0.166 A 
ATOM      2  C   UNL d   1      33.224  20.952 -22.949  0.00  0.00     0.117 A 
ATOM      3  N   UNL d   1      33.204  21.392 -21.705  0.00  0.00    -0.289 N 
ATOM      4  C   UNL d   1      33.224  21.760 -22.974  0.00  0.00     0.038 A 
ATOM      5  N   UNL d   1      33.209  19.897 -21.967  0.00  0.00    -0.225 NA
ATOM      6  C   UNL d   1      33.211  22.035 -22.198  0.00  0.00     0.067 A 
ATOM      7  N   UNL d   1      33.233  20.364 -23.532  0.00  0.00    -0.241 NA
ATOM      8  C   UNL d   1      33.218  19.338 -22.550  0.00  0.00     0.101 A 
ATOM      9  C   UNL d   1      33.231  19.583 -23.342  0.00  0.00     0.099 A 
ATOM     10  C   UNL d   1      33.209  22.849 -22.048  0.00  0.00     0.018 A 
ATOM     11  C   UNL d   1      33.234  22.300 -23.598  0.00  0.00     0.015 A 
ATOM     12  C   UNL d   1      33.231  23.111 -23.452  0.00  0.00     0.058 A 
ATOM     13  C   UNL d   1      33.218  23.386 -22.677  0.00  0.00     0.013 A 
ATOM     14 CL   UNL d   1      33.240  23.651 -24.076  0.00  0.00    -0.082 Cl
ATOM     15  C   UNL d   1      33.216  18.552 -22.365  0.00  0.00     0.021 A 
ATOM     16  C   UNL d   1      33.240  19.020 -23.934  0.00  0.00     0.021 A 
ATOM     17  C   UNL d   1      33.226  17.984 -22.985  0.00  0.00     0.002 A 
ATOM     18  C   UNL d   1      33.238  18.203 -23.762  0.00  0.00     0.002 A 
ENDROOT
BRANCH   3  19
ATOM     19  C   UNL d   1      33.191  21.412 -20.897  0.00  0.00     0.082 C 
ATOM     20  C   UNL d   1      32.444  21.499 -20.511  0.00  0.00     0.021 C 
ENDBRANCH   3  19
TORSDOF 1
ENDMDL
MODEL 3
REMARK VINA RESULT:      -2.7      1.371      3.424
REMARK  1 active torsions:
REMARK  status: ('A' for Active; 'I' for Inactive)
REMARK    1  A    between atoms: C_13  and  N_3 
ROOT
ATOM      1  C   UNL d   1      33.216  22.301 -21.303  0.00  0.00     0.166 A 
ATOM      2  C   UNL d   1      33.221  21.575 -20.921  0.00  0.00     0.117 A 
ATOM      3  N   UNL d   1      33.218  22.136 -22.116  0.00  0.00    -0.289 N 
ATOM      4  C   UNL d   1      33.225  20.982 -21.471  0.00  0.00     0.038 A 
ATOM      5  N   UNL d   1      33.211  23.015 -20.878  0.00  0.00    -0.225 NA
ATOM      6  C   UNL d   1      33.224  21.331 -22.216  0.00  0.00     0.067 A 
ATOM      7  N   UNL d   1      33.219  21.583 -20.093  0.00  0.00    -0.241 NA
ATOM      8  C   UNL d   1      33.210  23.003 -20.071  0.00  0.00     0.101 A 
ATOM      9  C   UNL d   1      33.214  22.272 -19.679  0.00  0.00     0.099 A 
ATOM     10  C   UNL d   1      33.228  20.858 -22.896  0.00  0.00     0.018 A 
ATOM     11  C   UNL d   1      33.230  20.159 -21.407  0.00  0.00     0.015 A 
ATOM     12  C   UNL d   1      33.234  19.685 -22.080  0.00  0.00     0.058 A 
ATOM     13  C   UNL d   1      33.233  20.034 -22.825  0.00  0.00     0.013 A 
ATOM     14 CL   UNL d   1      33.240  18.862 -22.016  0.00  0.00    -0.082 Cl
ATOM     15  C   UNL d   1      33.205  23.692 -19.649  0.00  0.00     0.021 A 
ATOM     16  C   UNL d   1      33.214  22.257 -18.863  0.00  0.00     0.021 A 
ATOM     17  C   UNL d   1      33.204  23.660 -18.810  0.00  0.00     0.002 A 
ATOM     18  C   UNL d   1      33.208  22.958 -18.411  0.00  0.00     0.002 A 
ENDROOT
BRANCH   3  19
ATOM     19  C   UNL d   1      33.215  22.690 -22.704  0.00  0.00     0.082 C 
ATOM     20  C   UNL d   1      32.469  22.964 -22.991  0.00  0.00     0.021 C 
ENDBRANCH   3  19
TORSDOF 1
ENDMDL
MODEL 4
REMARK VINA RESULT:      -2.7      2.277      4.429
REMARK  1 active torsions:
REMARK  status: ('A' for Active; 'I' for Inactive)
REMARK    1  A    between atoms: C_13  and  N_3 
ROOT
ATOM      1  C   UNL d   1      33.219  19.554 -23.244  0.00  0.00     0.166 A 
ATOM      2  C   UNL d   1      33.228  18.969 -22.669  0.00  0.00     0.117 A 
ATOM      3  N   UNL d   1      33.214  19.162 -23.975  0.00  0.00    -0.289 N 
ATOM      4  C   UNL d   1      33.228  18.242 -23.025  0.00  0.00     0.038 A 
ATOM      5  N   UNL d   1      33.217  20.360 -23.044  0.00  0.00    -0.225 NA
ATOM      6  C   UNL d   1      33.219  18.362 -23.839  0.00  0.00     0.067 A 
ATOM      7  N   UNL d   1      33.236  19.215 -21.878  0.00  0.00    -0.241 NA
ATOM      8  C   UNL d   1      33.224  20.581 -22.267  0.00  0.00     0.101 A 
ATOM      9  C   UNL d   1      33.234  19.995 -21.681  0.00  0.00     0.099 A 
ATOM     10  C   UNL d   1      33.217  17.713 -24.353  0.00  0.00     0.018 A 
ATOM     11  C   UNL d   1      33.236  17.473 -22.726  0.00  0.00     0.015 A 
ATOM     12  C   UNL d   1      33.234  16.824 -23.234  0.00  0.00     0.058 A 
ATOM     13  C   UNL d   1      33.224  16.945 -24.048  0.00  0.00     0.013 A 
ATOM     14 CL   UNL d   1      33.241  16.055 -22.935  0.00  0.00    -0.082 Cl
ATOM     15  C   UNL d   1      33.223  21.363 -22.062  0.00  0.00     0.021 A 
ATOM     16  C   UNL d   1      33.241  20.215 -20.895  0.00  0.00     0.021 A 
ATOM     17  C   UNL d   1      33.230  21.574 -21.249  0.00  0.00     0.002 A 
ATOM     18  C   UNL d   1      33.239  21.017 -20.664  0.00  0.00     0.002 A 
ENDROOT
BRANCH   3  19
ATOM     19  C   UNL d   1      33.204  19.522 -24.698  0.00  0.00     0.082 C 
ATOM     20  C   UNL d   1      32.463  19.596 -25.097  0.00  0.00     0.021 C 
ENDBRANCH   3  19
TORSDOF 1
ENDMDL
MODEL 5
REMARK VINA RESULT:      -2.4      1.026      2.542
REMARK  1 active torsions:
REMARK  status: ('A' for Active; 'I' for Inactive)
REMARK    1  A    between atoms: C_13  and  N_3 
ROOT
ATOM      1  C   UNL d   1      33.119  21.885 -22.260  0.00  0.00     0.166 A 
ATOM      2  C   UNL d   1      32.996  22.651 -21.992  0.00  0.00     0.117 A 
ATOM      3  N   UNL d   1      33.133  21.403 -21.585  0.00  0.00    -0.289 N 
ATOM      4  C   UNL d   1      32.936  22.648 -21.185  0.00  0.00     0.038 A 
ATOM      5  N   UNL d   1      33.202  21.716 -23.069  0.00  0.00    -0.225 NA
ATOM      6  C   UNL d   1      33.022  21.870 -20.931  0.00  0.00     0.067 A 
ATOM      7  N   UNL d   1      32.958  23.250 -22.563  0.00  0.00    -0.241 NA
ATOM      8  C   UNL d   1      33.162  22.313 -23.611  0.00  0.00     0.101 A 
ATOM      9  C   UNL d   1      33.038  23.089 -23.347  0.00  0.00     0.099 A 
ATOM     10  C   UNL d   1      32.986  21.691 -20.124  0.00  0.00     0.018 A 
ATOM     11  C   UNL d   1      32.814  23.247 -20.631  0.00  0.00     0.015 A 
ATOM     12  C   UNL d   1      32.778  23.074 -19.826  0.00  0.00     0.058 A 
ATOM     13  C   UNL d   1      32.863  22.296 -19.572  0.00  0.00     0.013 A 
ATOM     14 CL   UNL d   1      32.656  23.673 -19.272  0.00  0.00    -0.082 Cl
ATOM     15  C   UNL d   1      33.241  22.158 -24.400  0.00  0.00     0.021 A 
ATOM     16  C   UNL d   1      32.997  23.695 -23.893  0.00  0.00     0.021 A 
ATOM     17  C   UNL d   1      33.197  22.792 -24.950  0.00  0.00     0.002 A 
ATOM     18  C   UNL d   1      33.076  23.554 -24.711  0.00  0.00     0.002 A 
ENDROOT
BRANCH   3  19
ATOM     19  C   UNL d   1      33.241  20.602 -21.586  0.00  0.00     0.082 C 
ATOM     20  C   UNL d   1      32.565  20.109 -21.701  0.00  0.00     0.021 C 
ENDBRANCH   3  19
TORSDOF 1
ENDMDL
MODEL 6
REMARK VINA RESULT:      -2.2      5.524      6.744
REMARK  1 active torsions:
REMARK  status: ('A' for Active; 'I' for Inactive)
REMARK    1  A    between atoms: C_13  and  N_3 
ROOT
ATOM      1  C   UNL d   1      30.314  16.747 -24.230  0.00  0.00     0.166 A 
ATOM      2  C   UNL d   1      30.554  16.196 -23.671  0.00  0.00     0.117 A 
ATOM      3  N   UNL d   1      31.006  17.091 -24.530  0.00  0.00    -0.289 N 
ATOM      4  C   UNL d   1      31.362  16.196 -23.625  0.00  0.00     0.038 A 
ATOM      5  N   UNL d   1      29.510  16.872 -24.400  0.00  0.00    -0.225 NA
ATOM      6  C   UNL d   1      31.644  16.754 -24.160  0.00  0.00     0.067 A 
ATOM      7  N   UNL d   1      29.962  15.768 -23.283  0.00  0.00    -0.241 NA
ATOM      8  C   UNL d   1      28.946  16.444 -24.010  0.00  0.00     0.101 A 
ATOM      9  C   UNL d   1      29.183  15.886 -23.445  0.00  0.00     0.099 A 
ATOM     10  C   UNL d   1      32.458  16.879 -24.237  0.00  0.00     0.018 A 
ATOM     11  C   UNL d   1      31.895  15.764 -23.167  0.00  0.00     0.015 A 
ATOM     12  C   UNL d   1      32.707  15.886 -23.240  0.00  0.00     0.058 A 
ATOM     13  C   UNL d   1      32.989  16.444 -23.775  0.00  0.00     0.013 A 
ATOM     14 CL   UNL d   1      33.240  15.454 -22.782  0.00  0.00    -0.082 Cl
ATOM     15  C   UNL d   1      28.162  16.558 -24.168  0.00  0.00     0.021 A 
ATOM     16  C   UNL d   1      28.615  15.453 -23.049  0.00  0.00     0.021 A 
ATOM     17  C   UNL d   1      27.589  16.105 -23.753  0.00  0.00     0.002 A 
ATOM     18  C   UNL d   1      27.801  15.557 -23.198  0.00  0.00     0.002 A 
ENDROOT
BRANCH   3  19
ATOM     19  C   UNL d   1      31.033  17.666 -25.097  0.00  0.00     0.082 C 
ATOM     20  C   UNL d   1      31.156  18.465 -24.850  0.00  0.00     0.021 C 
ENDBRANCH   3  19
TORSDOF 1
ENDMDL
MODEL 7
REMARK VINA RESULT:      -2.1      4.992      6.593
REMARK  1 active torsions:
REMARK  status: ('A' for Active; 'I' for Inactive)
REMARK    1  A    between atoms: C_13  and  N_3 
ROOT
ATOM      1  C   UNL d   1      31.559  16.786 -24.107  0.00  0.00     0.166 A 
ATOM      2  C   UNL d   1      30.892  17.216 -24.314  0.00  0.00     0.117 A 
ATOM      3  N   UNL d   1      31.287  16.054 -23.828  0.00  0.00    -0.289 N 
ATOM      4  C   UNL d   1      30.230  16.773 -24.170  0.00  0.00     0.038 A 
ATOM      5  N   UNL d   1      32.323  17.101 -24.195  0.00  0.00    -0.225 NA
ATOM      6  C   UNL d   1      30.477  16.048 -23.866  0.00  0.00     0.067 A 
ATOM      7  N   UNL d   1      31.011  17.979 -24.614  0.00  0.00    -0.241 NA
ATOM      8  C   UNL d   1      32.419  17.846 -24.490  0.00  0.00     0.101 A 
ATOM      9  C   UNL d   1      31.749  18.286 -24.700  0.00  0.00     0.099 A 
ATOM     10  C   UNL d   1      29.917  15.472 -23.664  0.00  0.00     0.018 A 
ATOM     11  C   UNL d   1      29.425  16.920 -24.270  0.00  0.00     0.015 A 
ATOM     12  C   UNL d   1      28.865  16.350 -24.069  0.00  0.00     0.058 A 
ATOM     13  C   UNL d   1      29.111  15.626 -23.766  0.00  0.00     0.013 A 
ATOM     14 CL   UNL d   1      28.059  16.498 -24.170  0.00  0.00    -0.082 Cl
ATOM     15  C   UNL d   1      33.158  18.161 -24.579  0.00  0.00     0.021 A 
ATOM     16  C   UNL d   1      31.843  19.040 -24.998  0.00  0.00     0.021 A 
ATOM     17  C   UNL d   1      33.239  18.938 -24.886  0.00  0.00     0.002 A 
ATOM     18  C   UNL d   1      32.598  19.382 -25.097  0.00  0.00     0.002 A 
ENDROOT
BRANCH   3  19
ATOM     19  C   UNL d   1      31.756  15.453 -23.562  0.00  0.00     0.082 C 
ATOM     20  C   UNL d   1      32.031  15.483 -22.764  0.00  0.00     0.021 C 
ENDBRANCH   3  19
TORSDOF 1
ENDMDL
MODEL 8
REMARK VINA RESULT:      -2.0      1.798      3.836
REMARK  1 active torsions:
REMARK  status: ('A' for Active; 'I' for Inactive)
REMARK    1  A    between atoms: C_13  and  N_3 
ROOT
ATOM      1  C   UNL d   1      33.171  20.679 -22.995  0.00  0.00     0.166 A 
ATOM      2  C   UNL d   1      33.151  20.066 -22.449  0.00  0.00     0.117 A 
ATOM      3  N   UNL d   1      33.209  20.323 -23.742  0.00  0.00    -0.289 N 
ATOM      4  C   UNL d   1      33.174  19.357 -22.839  0.00  0.00     0.038 A 
ATOM      5  N   UNL d   1      33.154  21.474 -22.755  0.00  0.00    -0.225 NA
ATOM      6  C   UNL d   1      33.211  19.518 -23.646  0.00  0.00     0.067 A 
ATOM      7  N   UNL d   1      33.112  20.273 -21.648  0.00  0.00    -0.241 NA
ATOM      8  C   UNL d   1      33.116  21.657 -21.969  0.00  0.00     0.101 A 
ATOM      9  C   UNL d   1      33.095  21.042 -21.414  0.00  0.00     0.099 A 
ATOM     10  C   UNL d   1      33.241  18.895 -24.191  0.00  0.00     0.018 A 
ATOM     11  C   UNL d   1      33.168  18.575 -22.579  0.00  0.00     0.015 A 
ATOM     12  C   UNL d   1      33.198  17.952 -23.117  0.00  0.00     0.058 A 
ATOM     13  C   UNL d   1      33.235  18.112 -23.924  0.00  0.00     0.013 A 
ATOM     14 CL   UNL d   1      33.192  17.169 -22.857  0.00  0.00    -0.082 Cl
ATOM     15  C   UNL d   1      33.099  22.427 -21.726  0.00  0.00     0.021 A 
ATOM     16  C   UNL d   1      33.056  21.223 -20.618  0.00  0.00     0.021 A 
ATOM     17  C   UNL d   1      33.059  22.598 -20.905  0.00  0.00     0.002 A 
ATOM     18  C   UNL d   1      33.037  22.013 -20.349  0.00  0.00     0.002 A 
ENDROOT
BRANCH   3  19
ATOM     19  C   UNL d   1      33.239  20.718 -24.446  0.00  0.00     0.082 C 
ATOM     20  C   UNL d   1      32.525  20.795 -24.892  0.00  0.00     0.021 C 
ENDBRANCH   3  19
TORSDOF 1
ENDMDL
MODEL 9
REMARK VINA RESULT:      -1.8      5.721      6.444
REMARK  1 active torsions:
REMARK  status: ('A' for Active; 'I' for Inactive)
REMARK    1  A    between atoms: C_13  and  N_3 
ROOT
ATOM      1  C   UNL d   1      30.312  17.392 -24.482  0.00  0.00     0.166 A 
ATOM      2  C   UNL d   1      30.399  16.835 -23.885  0.00  0.00     0.117 A 
ATOM      3  N   UNL d   1      29.497  17.514 -24.568  0.00  0.00    -0.289 N 
ATOM      4  C   UNL d   1      29.669  16.619 -23.611  0.00  0.00     0.038 A 
ATOM      5  N   UNL d   1      30.970  17.717 -24.870  0.00  0.00    -0.225 NA
ATOM      6  C   UNL d   1      29.106  17.042 -24.037  0.00  0.00     0.067 A 
ATOM      7  N   UNL d   1      31.171  16.610 -23.686  0.00  0.00    -0.241 NA
ATOM      8  C   UNL d   1      31.716  17.486 -24.662  0.00  0.00     0.101 A 
ATOM      9  C   UNL d   1      31.809  16.924 -24.060  0.00  0.00     0.099 A 
ATOM     10  C   UNL d   1      28.301  16.936 -23.878  0.00  0.00     0.018 A 
ATOM     11  C   UNL d   1      29.425  16.090 -23.026  0.00  0.00     0.015 A 
ATOM     12  C   UNL d   1      28.624  15.982 -22.865  0.00  0.00     0.058 A 
ATOM     13  C   UNL d   1      28.062  16.405 -23.291  0.00  0.00     0.013 A 
ATOM     14 CL   UNL d   1      28.381  15.453 -22.280  0.00  0.00    -0.082 Cl
ATOM     15  C   UNL d   1      32.362  17.797 -25.034  0.00  0.00     0.021 A 
ATOM     16  C   UNL d   1      32.562  16.688 -23.847  0.00  0.00     0.021 A 
ATOM     17  C   UNL d   1      33.129  17.546 -24.805  0.00  0.00     0.002 A 
ATOM     18  C   UNL d   1      33.241  16.999 -24.220  0.00  0.00     0.002 A 
ENDROOT
BRANCH   3  19
ATOM     19  C   UNL d   1      29.155  18.020 -25.097  0.00  0.00     0.082 C 
ATOM     20  C   UNL d   1      28.856  18.756 -24.808  0.00  0.00     0.021 C 
ENDBRANCH   3  19
TORSDOF 1
ENDMDL
