MODEL 1
REMARK VINA RESULT:      -2.3      0.000      0.000
REMARK  4 active torsions:
REMARK  status: ('A' for Active; 'I' for Inactive)
REMARK    1  A    between atoms: N_7  and  C_4 
REMARK    2  A    between atoms: N_9  and  N_7 
REMARK       I    between atoms: C_8  and  N_9 
REMARK    3  A    between atoms: C_11  and  C_8 
REMARK    4  A    between atoms: C_13  and  C_14 
ROOT
ATOM      1  C   UNL d   1      32.911  19.398 -23.713  0.00  0.00     0.297 C 
ATOM      2  N   UNL d   1      32.524  18.671 -23.693  0.00  0.00    -0.104 NA
ATOM      3  O   UNL d   1      33.241  19.670 -24.418  0.00  0.00    -0.264 OA
ENDROOT
BRANCH   1   4
ATOM      4  C   UNL d   1      32.969  19.851 -23.029  0.00  0.00     0.059 A 
ATOM      5  C   UNL d   1      33.020  20.673 -23.081  0.00  0.00     0.004 A 
ATOM      6  C   UNL d   1      33.078  21.127 -22.396  0.00  0.00    -0.004 A 
ATOM      7  C   UNL d   1      33.084  20.759 -21.660  0.00  0.00    -0.023 A 
ATOM      8  C   UNL d   1      33.032  19.930 -21.599  0.00  0.00    -0.004 A 
ATOM      9  C   UNL d   1      32.975  19.484 -22.284  0.00  0.00     0.004 A 
BRANCH   7  10
ATOM     10  C   UNL d   1      33.143  21.225 -20.976  0.00  0.00     0.019 C 
ATOM     11  C   UNL d   1      33.241  20.708 -20.355  0.00  0.00     0.004 C 
ATOM     12  C   UNL d   1      33.071  22.010 -21.266  0.00  0.00     0.004 C 
ATOM     13  C   UNL d   1      33.201  21.680 -20.297  0.00  0.00     0.004 C 
ENDBRANCH   7  10
ENDBRANCH   1   4
BRANCH   2  14
ATOM     14  N   UNL d   1      32.466  18.218 -24.377  0.00  0.00    -0.127 NA
BRANCH  14  15
ATOM     15  C   UNL d   1      31.909  17.609 -24.424  0.00  0.00     0.178 A 
ATOM     16  N   UNL d   1      32.151  16.833 -24.545  0.00  0.00    -0.240 N 
ATOM     17  C   UNL d   1      31.600  16.232 -24.592  0.00  0.00     0.343 A 
ATOM     18  C   UNL d   1      32.955  16.662 -24.620  0.00  0.00     0.105 C 
ATOM     19  N   UNL d   1      30.796  16.403 -24.517  0.00  0.00    -0.224 N 
ATOM     20  O   UNL d   1      31.846  15.453 -24.714  0.00  0.00    -0.245 OA
ATOM     21  C   UNL d   1      30.536  17.177 -24.395  0.00  0.00     0.271 A 
ATOM     22  C   UNL d   1      30.238  15.795 -24.564  0.00  0.00     0.107 C 
ATOM     23  C   UNL d   1      31.105  17.780 -24.349  0.00  0.00     0.101 A 
ATOM     24  O   UNL d   1      29.740  17.346 -24.321  0.00  0.00    -0.266 OA
ENDBRANCH  14  15
ENDBRANCH   2  14
TORSDOF 4
ENDMDL
MODEL 2
REMARK VINA RESULT:      -2.1      1.022      1.658
REMARK  4 active torsions:
REMARK  status: ('A' for Active; 'I' for Inactive)
REMARK    1  A    between atoms: N_7  and  C_4 
REMARK    2  A    between atoms: N_9  and  N_7 
REMARK       I    between atoms: C_8  and  N_9 
REMARK    3  A    between atoms: C_11  and  C_8 
REMARK    4  A    between atoms: C_13  and  C_14 
ROOT
ATOM      1  C   UNL d   1      33.019  20.148 -23.141  0.00  0.00     0.297 C 
ATOM      2  N   UNL d   1      32.870  19.339 -23.091  0.00  0.00    -0.104 NA
ATOM      3  O   UNL d   1      33.161  20.496 -23.875  0.00  0.00    -0.264 OA
ENDROOT
BRANCH   1   4
ATOM      4  C   UNL d   1      33.027  20.606 -22.459  0.00  0.00     0.059 A 
ATOM      5  C   UNL d   1      32.837  20.268 -21.731  0.00  0.00     0.004 A 
ATOM      6  C   UNL d   1      32.845  20.727 -21.047  0.00  0.00    -0.004 A 
ATOM      7  C   UNL d   1      33.043  21.525 -21.092  0.00  0.00    -0.023 A 
ATOM      8  C   UNL d   1      33.237  21.875 -21.823  0.00  0.00    -0.004 A 
ATOM      9  C   UNL d   1      33.227  21.412 -22.499  0.00  0.00     0.004 A 
BRANCH   7  10
ATOM     10  C   UNL d   1      33.049  21.979 -20.397  0.00  0.00     0.019 C 
ATOM     11  C   UNL d   1      33.240  21.468 -19.793  0.00  0.00     0.004 C 
ATOM     12  C   UNL d   1      32.852  22.750 -20.665  0.00  0.00     0.004 C 
ATOM     13  C   UNL d   1      33.055  22.422 -19.709  0.00  0.00     0.004 C 
ENDBRANCH   7  10
ENDBRANCH   1   4
BRANCH   2  14
ATOM     14  N   UNL d   1      32.862  18.880 -23.774  0.00  0.00    -0.127 NA
BRANCH  14  15
ATOM     15  C   UNL d   1      32.671  18.077 -23.731  0.00  0.00     0.178 A 
ATOM     16  N   UNL d   1      32.107  17.757 -24.235  0.00  0.00    -0.240 N 
ATOM     17  C   UNL d   1      31.919  16.963 -24.191  0.00  0.00     0.343 A 
ATOM     18  C   UNL d   1      31.729  18.240 -24.787  0.00  0.00     0.105 C 
ATOM     19  N   UNL d   1      32.297  16.480 -23.639  0.00  0.00    -0.224 N 
ATOM     20  O   UNL d   1      31.352  16.642 -24.699  0.00  0.00    -0.245 OA
ATOM     21  C   UNL d   1      32.867  16.786 -23.126  0.00  0.00     0.271 A 
ATOM     22  C   UNL d   1      32.108  15.676 -23.595  0.00  0.00     0.107 C 
ATOM     23  C   UNL d   1      33.049  17.594 -23.179  0.00  0.00     0.101 A 
ATOM     24  O   UNL d   1      33.241  16.308 -22.579  0.00  0.00    -0.266 OA
ENDBRANCH  14  15
ENDBRANCH   2  14
TORSDOF 4
ENDMDL
MODEL 3
REMARK VINA RESULT:      -2.0      2.075      5.297
REMARK  4 active torsions:
REMARK  status: ('A' for Active; 'I' for Inactive)
REMARK    1  A    between atoms: N_7  and  C_4 
REMARK    2  A    between atoms: N_9  and  N_7 
REMARK       I    between atoms: C_8  and  N_9 
REMARK    3  A    between atoms: C_11  and  C_8 
REMARK    4  A    between atoms: C_13  and  C_14 
ROOT
ATOM      1  C   UNL d   1      32.880  19.097 -22.496  0.00  0.00     0.297 C 
ATOM      2  N   UNL d   1      33.033  19.850 -22.791  0.00  0.00    -0.104 NA
ATOM      3  O   UNL d   1      32.882  18.964 -21.682  0.00  0.00    -0.264 OA
ENDROOT
BRANCH   1   4
ATOM      4  C   UNL d   1      32.724  18.477 -23.014  0.00  0.00     0.059 A 
ATOM      5  C   UNL d   1      33.219  17.817 -23.029  0.00  0.00     0.004 A 
ATOM      6  C   UNL d   1      33.064  17.196 -23.547  0.00  0.00    -0.004 A 
ATOM      7  C   UNL d   1      32.414  17.236 -24.051  0.00  0.00    -0.023 A 
ATOM      8  C   UNL d   1      31.909  17.899 -24.042  0.00  0.00    -0.004 A 
ATOM      9  C   UNL d   1      32.070  18.512 -23.523  0.00  0.00     0.004 A 
BRANCH   7  10
ATOM     10  C   UNL d   1      32.266  16.605 -24.570  0.00  0.00     0.019 C 
ATOM     11  C   UNL d   1      31.506  16.357 -24.414  0.00  0.00     0.004 C 
ATOM     12  C   UNL d   1      32.981  16.535 -25.003  0.00  0.00     0.004 C 
ATOM     13  C   UNL d   1      32.114  15.983 -25.079  0.00  0.00     0.004 C 
ENDBRANCH   7  10
ENDBRANCH   1   4
BRANCH   2  14
ATOM     14  N   UNL d   1      33.188  20.470 -22.273  0.00  0.00    -0.127 NA
BRANCH  14  15
ATOM     15  C   UNL d   1      33.196  21.249 -22.550  0.00  0.00     0.178 A 
ATOM     16  N   UNL d   1      33.187  21.878 -22.021  0.00  0.00    -0.240 N 
ATOM     17  C   UNL d   1      33.195  22.647 -22.296  0.00  0.00     0.343 A 
ATOM     18  C   UNL d   1      33.169  21.730 -21.209  0.00  0.00     0.105 C 
ATOM     19  N   UNL d   1      33.213  22.795 -23.107  0.00  0.00    -0.224 N 
ATOM     20  O   UNL d   1      33.185  23.278 -21.762  0.00  0.00    -0.245 OA
ATOM     21  C   UNL d   1      33.223  22.174 -23.652  0.00  0.00     0.271 A 
ATOM     22  C   UNL d   1      33.221  23.573 -23.385  0.00  0.00     0.107 C 
ATOM     23  C   UNL d   1      33.214  21.397 -23.361  0.00  0.00     0.101 A 
ATOM     24  O   UNL d   1      33.240  22.321 -24.455  0.00  0.00    -0.266 OA
ENDBRANCH  14  15
ENDBRANCH   2  14
TORSDOF 4
ENDMDL
MODEL 4
REMARK VINA RESULT:      -0.8      1.885      3.047
REMARK  4 active torsions:
REMARK  status: ('A' for Active; 'I' for Inactive)
REMARK    1  A    between atoms: N_7  and  C_4 
REMARK    2  A    between atoms: N_9  and  N_7 
REMARK       I    between atoms: C_8  and  N_9 
REMARK    3  A    between atoms: C_11  and  C_8 
REMARK    4  A    between atoms: C_13  and  C_14 
ROOT
ATOM      1  C   UNL d   1      32.986  21.543 -21.944  0.00  0.00     0.297 C 
ATOM      2  N   UNL d   1      33.114  20.732 -22.004  0.00  0.00    -0.104 NA
ATOM      3  O   UNL d   1      32.935  22.005 -22.626  0.00  0.00    -0.264 OA
ENDROOT
BRANCH   1   4
ATOM      4  C   UNL d   1      32.907  21.893 -21.203  0.00  0.00     0.059 A 
ATOM      5  C   UNL d   1      33.039  21.448 -20.521  0.00  0.00     0.004 A 
ATOM      6  C   UNL d   1      32.960  21.798 -19.779  0.00  0.00    -0.004 A 
ATOM      7  C   UNL d   1      32.751  22.592 -19.721  0.00  0.00    -0.023 A 
ATOM      8  C   UNL d   1      32.617  23.048 -20.405  0.00  0.00    -0.004 A 
ATOM      9  C   UNL d   1      32.696  22.693 -21.140  0.00  0.00     0.004 A 
BRANCH   7  10
ATOM     10  C   UNL d   1      32.675  22.936 -18.969  0.00  0.00     0.019 C 
ATOM     11  C   UNL d   1      33.233  22.577 -18.498  0.00  0.00     0.004 C 
ATOM     12  C   UNL d   1      32.052  23.489 -19.068  0.00  0.00     0.004 C 
ATOM     13  C   UNL d   1      32.604  23.270 -18.225  0.00  0.00     0.004 C 
ENDBRANCH   7  10
ENDBRANCH   1   4
BRANCH   2  14
ATOM     14  N   UNL d   1      33.192  20.383 -22.744  0.00  0.00    -0.127 NA
BRANCH  14  15
ATOM     15  C   UNL d   1      33.194  19.559 -22.815  0.00  0.00     0.178 A 
ATOM     16  N   UNL d   1      33.172  19.206 -23.557  0.00  0.00    -0.240 N 
ATOM     17  C   UNL d   1      33.174  18.392 -23.627  0.00  0.00     0.343 A 
ATOM     18  C   UNL d   1      33.150  19.677 -24.234  0.00  0.00     0.105 C 
ATOM     19  N   UNL d   1      33.196  17.921 -22.950  0.00  0.00    -0.224 N 
ATOM     20  O   UNL d   1      33.152  18.040 -24.373  0.00  0.00    -0.245 OA
ATOM     21  C   UNL d   1      33.218  18.260 -22.197  0.00  0.00     0.271 A 
ATOM     22  C   UNL d   1      33.197  17.098 -23.019  0.00  0.00     0.107 C 
ATOM     23  C   UNL d   1      33.216  19.088 -22.139  0.00  0.00     0.101 A 
ATOM     24  O   UNL d   1      33.240  17.793 -21.526  0.00  0.00    -0.266 OA
ENDBRANCH  14  15
ENDBRANCH   2  14
TORSDOF 4
ENDMDL
