MODEL 1
REMARK VINA RESULT:      -1.2      0.000      0.000
REMARK  2 active torsions:
REMARK  status: ('A' for Active; 'I' for Inactive)
REMARK    1  A    between atoms: N_9  and  C_3 
REMARK    2  A    between atoms: C_11  and  C_5 
ROOT
ATOM      1  N   UNL d   1      58.741  -0.290  30.431  0.00  0.00    -0.196 N 
ATOM      2  C   UNL d   1      58.027  -0.651  30.629  0.00  0.00     0.167 A 
ATOM      3  C   UNL d   1      59.133  -0.505  29.741  0.00  0.00     0.152 A 
ATOM      4  N   UNL d   1      58.918   0.252  31.018  0.00  0.00    -0.163 NA
ATOM      5  C   UNL d   1      57.764  -0.332  31.338  0.00  0.00     0.055 A 
ATOM      6  C   UNL d   1      58.313   0.226  31.580  0.00  0.00     0.104 A 
ATOM      7  N   UNL d   1      57.705  -1.227  30.137  0.00  0.00    -0.227 NA
ATOM      8  C   UNL d   1      58.812  -1.085  29.242  0.00  0.00     0.057 A 
ATOM      9  C   UNL d   1      58.099  -1.446  29.440  0.00  0.00     0.086 A 
ATOM     10  C   UNL d   1      58.268   0.682  32.266  0.00  0.00     0.023 C 
ATOM     11  C   UNL d   1      57.767  -2.029  28.948  0.00  0.00     0.021 C 
ENDROOT
BRANCH   5  12
ATOM     12  C   UNL d   1      57.094  -0.475  31.800  0.00  0.00     0.004 A 
ATOM     13  C   UNL d   1      56.548   0.134  31.934  0.00  0.00     0.000 A 
ATOM     14  C   UNL d   1      55.878  -0.008  32.396  0.00  0.00     0.000 A 
ATOM     15  C   UNL d   1      55.751  -0.755  32.724  0.00  0.00     0.000 A 
ATOM     16  C   UNL d   1      56.300  -1.364  32.587  0.00  0.00     0.000 A 
ATOM     17  C   UNL d   1      56.967  -1.221  32.128  0.00  0.00     0.000 A 
ENDBRANCH   5  12
BRANCH   3  18
ATOM     18  N   UNL d   1      59.848  -0.143  29.542  0.00  0.00    -0.289 N 
ATOM     19  C   UNL d   1      59.927   0.456  28.982  0.00  0.00     0.082 A 
ATOM     20  C   UNL d   1      60.726   0.671  28.942  0.00  0.00     0.021 A 
ATOM     21  C   UNL d   1      61.133   0.199  29.482  0.00  0.00     0.021 A 
ATOM     22  C   UNL d   1      60.609  -0.299  29.852  0.00  0.00     0.082 A 
ENDBRANCH   3  18
TORSDOF 2
ENDMDL
MODEL 2
REMARK VINA RESULT:      -0.0      1.059      4.159
REMARK  2 active torsions:
REMARK  status: ('A' for Active; 'I' for Inactive)
REMARK    1  A    between atoms: N_9  and  C_3 
REMARK    2  A    between atoms: C_11  and  C_5 
ROOT
ATOM      1  N   UNL d   1      57.619   0.046  31.421  0.00  0.00    -0.196 N 
ATOM      2  C   UNL d   1      58.390   0.144  31.147  0.00  0.00     0.167 A 
ATOM      3  C   UNL d   1      57.447   0.160  32.217  0.00  0.00     0.152 A 
ATOM      4  N   UNL d   1      57.151  -0.160  30.782  0.00  0.00    -0.163 NA
ATOM      5  C   UNL d   1      58.398  -0.003  30.339  0.00  0.00     0.055 A 
ATOM      6  C   UNL d   1      57.634  -0.191  30.112  0.00  0.00     0.104 A 
ATOM      7  N   UNL d   1      58.990   0.354  31.669  0.00  0.00    -0.227 NA
ATOM      8  C   UNL d   1      58.048   0.372  32.747  0.00  0.00     0.057 A 
ATOM      9  C   UNL d   1      58.820   0.469  32.474  0.00  0.00     0.086 A 
ATOM     10  C   UNL d   1      57.390  -0.378  29.346  0.00  0.00     0.023 C 
ATOM     11  C   UNL d   1      59.432   0.682  32.996  0.00  0.00     0.021 C 
ENDROOT
BRANCH   5  12
ATOM     12  C   UNL d   1      59.002   0.009  29.776  0.00  0.00     0.004 A 
ATOM     13  C   UNL d   1      59.092   0.669  29.282  0.00  0.00     0.000 A 
ATOM     14  C   UNL d   1      59.697   0.681  28.719  0.00  0.00     0.000 A 
ATOM     15  C   UNL d   1      60.209   0.039  28.646  0.00  0.00     0.000 A 
ATOM     16  C   UNL d   1      60.116  -0.621  29.143  0.00  0.00     0.000 A 
ATOM     17  C   UNL d   1      59.515  -0.633  29.703  0.00  0.00     0.000 A 
ENDBRANCH   5  12
BRANCH   3  18
ATOM     18  N   UNL d   1      56.675   0.062  32.491  0.00  0.00    -0.289 N 
ATOM     19  C   UNL d   1      56.184   0.679  32.730  0.00  0.00     0.082 A 
ATOM     20  C   UNL d   1      55.457   0.359  32.966  0.00  0.00     0.021 A 
ATOM     21  C   UNL d   1      55.509  -0.459  32.869  0.00  0.00     0.021 A 
ATOM     22  C   UNL d   1      56.245  -0.649  32.581  0.00  0.00     0.082 A 
ENDBRANCH   3  18
TORSDOF 2
ENDMDL
MODEL 3
REMARK VINA RESULT:       0.1      9.264      9.744
REMARK  2 active torsions:
REMARK  status: ('A' for Active; 'I' for Inactive)
REMARK    1  A    between atoms: N_9  and  C_3 
REMARK    2  A    between atoms: C_11  and  C_5 
ROOT
ATOM      1  N   UNL d   1      58.981  -9.497  32.358  0.00  0.00    -0.196 N 
ATOM      2  C   UNL d   1      59.694  -9.470  32.769  0.00  0.00     0.167 A 
ATOM      3  C   UNL d   1      58.977  -9.630  31.546  0.00  0.00     0.152 A 
ATOM      4  N   UNL d   1      58.377  -9.374  32.897  0.00  0.00    -0.163 NA
ATOM      5  C   UNL d   1      59.532  -9.331  33.562  0.00  0.00     0.055 A 
ATOM      6  C   UNL d   1      58.719  -9.271  33.643  0.00  0.00     0.104 A 
ATOM      7  N   UNL d   1      60.406  -9.577  32.369  0.00  0.00    -0.227 NA
ATOM      8  C   UNL d   1      59.692  -9.738  31.139  0.00  0.00     0.057 A 
ATOM      9  C   UNL d   1      60.405  -9.711  31.549  0.00  0.00     0.086 A 
ATOM     10  C   UNL d   1      58.313  -9.133  34.347  0.00  0.00     0.023 C 
ATOM     11  C   UNL d   1      61.129  -9.818  31.152  0.00  0.00     0.021 C 
ENDROOT
BRANCH   5  12
ATOM     12  C   UNL d   1      60.017  -9.250  34.225  0.00  0.00     0.004 A 
ATOM     13  C   UNL d   1      59.972  -9.806  34.839  0.00  0.00     0.000 A 
ATOM     14  C   UNL d   1      60.458  -9.725  35.502  0.00  0.00     0.000 A 
ATOM     15  C   UNL d   1      60.985  -9.094  35.556  0.00  0.00     0.000 A 
ATOM     16  C   UNL d   1      61.028  -8.538  34.939  0.00  0.00     0.000 A 
ATOM     17  C   UNL d   1      60.545  -8.619  34.279  0.00  0.00     0.000 A 
ENDBRANCH   5  12
BRANCH   3  18
ATOM     18  N   UNL d   1      58.263  -9.656  31.135  0.00  0.00    -0.289 N 
ATOM     19  C   UNL d   1      58.195  -9.621  30.315  0.00  0.00     0.082 A 
ATOM     20  C   UNL d   1      57.393  -9.663  30.116  0.00  0.00     0.021 A 
ATOM     21  C   UNL d   1      56.970  -9.725  30.822  0.00  0.00     0.021 A 
ATOM     22  C   UNL d   1      57.490  -9.722  31.447  0.00  0.00     0.082 A 
ENDBRANCH   3  18
TORSDOF 2
ENDMDL
MODEL 4
REMARK VINA RESULT:       1.2      1.354      2.337
REMARK  2 active torsions:
REMARK  status: ('A' for Active; 'I' for Inactive)
REMARK    1  A    between atoms: N_9  and  C_3 
REMARK    2  A    between atoms: C_11  and  C_5 
ROOT
ATOM      1  N   UNL d   1      58.133   0.258  31.182  0.00  0.00    -0.196 N 
ATOM      2  C   UNL d   1      58.190   0.404  31.991  0.00  0.00     0.167 A 
ATOM      3  C   UNL d   1      58.810   0.252  30.715  0.00  0.00     0.152 A 
ATOM      4  N   UNL d   1      57.343   0.140  31.005  0.00  0.00    -0.163 NA
ATOM      5  C   UNL d   1      57.436   0.376  32.313  0.00  0.00     0.055 A 
ATOM      6  C   UNL d   1      56.911   0.213  31.706  0.00  0.00     0.104 A 
ATOM      7  N   UNL d   1      58.925   0.544  32.334  0.00  0.00    -0.227 NA
ATOM      8  C   UNL d   1      59.553   0.393  31.057  0.00  0.00     0.057 A 
ATOM      9  C   UNL d   1      59.610   0.539  31.866  0.00  0.00     0.086 A 
ATOM     10  C   UNL d   1      56.093   0.136  31.781  0.00  0.00     0.023 C 
ATOM     11  C   UNL d   1      60.350   0.682  32.221  0.00  0.00     0.021 C 
ENDROOT
BRANCH   5  12
ATOM     12  C   UNL d   1      57.153   0.478  33.083  0.00  0.00     0.004 A 
ATOM     13  C   UNL d   1      56.336   0.523  33.219  0.00  0.00     0.000 A 
ATOM     14  C   UNL d   1      56.054   0.625  33.989  0.00  0.00     0.000 A 
ATOM     15  C   UNL d   1      56.581   0.682  34.620  0.00  0.00     0.000 A 
ATOM     16  C   UNL d   1      57.399   0.636  34.481  0.00  0.00     0.000 A 
ATOM     17  C   UNL d   1      57.680   0.535  33.714  0.00  0.00     0.000 A 
ENDBRANCH   5  12
BRANCH   3  18
ATOM     18  N   UNL d   1      58.753   0.106  29.905  0.00  0.00    -0.289 N 
ATOM     19  C   UNL d   1      58.927  -0.616  29.549  0.00  0.00     0.082 A 
ATOM     20  C   UNL d   1      58.802  -0.542  28.733  0.00  0.00     0.021 A 
ATOM     21  C   UNL d   1      58.550   0.232  28.595  0.00  0.00     0.021 A 
ATOM     22  C   UNL d   1      58.517   0.633  29.301  0.00  0.00     0.082 A 
ENDBRANCH   3  18
TORSDOF 2
ENDMDL
MODEL 5
REMARK VINA RESULT:       1.7      9.306      9.782
REMARK  2 active torsions:
REMARK  status: ('A' for Active; 'I' for Inactive)
REMARK    1  A    between atoms: N_9  and  C_3 
REMARK    2  A    between atoms: C_11  and  C_5 
ROOT
ATOM      1  N   UNL d   1      59.164  -9.565  32.569  0.00  0.00    -0.196 N 
ATOM      2  C   UNL d   1      59.060  -9.599  31.752  0.00  0.00     0.167 A 
ATOM      3  C   UNL d   1      59.920  -9.502  32.886  0.00  0.00     0.152 A 
ATOM      4  N   UNL d   1      58.424  -9.604  32.916  0.00  0.00    -0.163 NA
ATOM      5  C   UNL d   1      58.257  -9.659  31.595  0.00  0.00     0.055 A 
ATOM      6  C   UNL d   1      57.862  -9.663  32.313  0.00  0.00     0.104 A 
ATOM      7  N   UNL d   1      59.713  -9.570  31.251  0.00  0.00    -0.227 NA
ATOM      8  C   UNL d   1      60.581  -9.473  32.385  0.00  0.00     0.057 A 
ATOM      9  C   UNL d   1      60.478  -9.507  31.569  0.00  0.00     0.086 A 
ATOM     10  C   UNL d   1      57.045  -9.716  32.415  0.00  0.00     0.023 C 
ATOM     11  C   UNL d   1      61.133  -9.479  31.056  0.00  0.00     0.021 C 
ENDROOT
BRANCH   5  12
ATOM     12  C   UNL d   1      57.828  -9.712  30.891  0.00  0.00     0.004 A 
ATOM     13  C   UNL d   1      57.001  -9.764  30.915  0.00  0.00     0.000 A 
ATOM     14  C   UNL d   1      56.572  -9.816  30.211  0.00  0.00     0.000 A 
ATOM     15  C   UNL d   1      56.964  -9.818  29.486  0.00  0.00     0.000 A 
ATOM     16  C   UNL d   1      57.793  -9.766  29.464  0.00  0.00     0.000 A 
ATOM     17  C   UNL d   1      58.220  -9.713  30.165  0.00  0.00     0.000 A 
ENDBRANCH   5  12
BRANCH   3  18
ATOM     18  N   UNL d   1      60.024  -9.468  33.704  0.00  0.00    -0.289 N 
ATOM     19  C   UNL d   1      60.651  -9.816  34.109  0.00  0.00     0.082 A 
ATOM     20  C   UNL d   1      60.559  -9.659  34.917  0.00  0.00     0.021 A 
ATOM     21  C   UNL d   1      59.870  -9.213  35.002  0.00  0.00     0.021 A 
ATOM     22  C   UNL d   1      59.538  -9.091  34.270  0.00  0.00     0.082 A 
ENDBRANCH   3  18
TORSDOF 2
ENDMDL
