MODEL 1
REMARK VINA RESULT:      14.5      0.000      0.000
REMARK  3 active torsions:
REMARK  status: ('A' for Active; 'I' for Inactive)
REMARK    1  A    between atoms: N_2  and  S_1 
REMARK    2  A    between atoms: N_3  and  S_1 
REMARK    3  A    between atoms: C_6  and  N_3 
ROOT
ATOM      1  S   UNL d   1      45.548 -15.612  44.759  0.00  0.00     0.351 S 
ATOM      2  O   UNL d   1      46.353 -15.619  44.935  0.00  0.00    -0.180 OA
ATOM      3  O   UNL d   1      44.745 -15.605  44.583  0.00  0.00    -0.180 OA
ENDROOT
BRANCH   1   4
ATOM      4  N   UNL d   1      45.602 -14.818  44.547  0.00  0.00    -0.215 N 
ATOM      5  C   UNL d   1      46.212 -14.350  44.860  0.00  0.00     0.093 C 
ATOM      6  C   UNL d   1      46.261 -13.564  44.648  0.00  0.00     0.020 C 
ATOM      7  C   UNL d   1      45.662 -13.206  44.224  0.00  0.00     0.003 C 
ATOM      8  C   UNL d   1      45.000 -13.644  44.007  0.00  0.00     0.020 C 
ATOM      9  C   UNL d   1      44.937 -14.442  44.216  0.00  0.00     0.093 C 
ENDBRANCH   1   4
BRANCH   1  10
ATOM     10  N   UNL d   1      45.426 -16.403  44.955  0.00  0.00    -0.144 NA
BRANCH  10  11
ATOM     11  C   UNL d   1      45.737 -17.014  44.467  0.00  0.00     0.095 A 
ATOM     12  C   UNL d   1      46.117 -17.669  44.812  0.00  0.00     0.020 A 
ATOM     13  C   UNL d   1      46.412 -18.275  44.332  0.00  0.00     0.002 A 
ATOM     14  C   UNL d   1      46.333 -18.223  43.504  0.00  0.00     0.000 A 
ATOM     15  C   UNL d   1      45.952 -17.572  43.145  0.00  0.00     0.002 A 
ATOM     16  C   UNL d   1      46.647 -18.826  43.030  0.00  0.00     0.000 C 
ATOM     17  C   UNL d   1      45.650 -16.963  43.637  0.00  0.00     0.020 A 
ENDBRANCH  10  11
ENDBRANCH   1  10
TORSDOF 3
ENDMDL
