MODEL 1
REMARK VINA RESULT:      38.1      0.000      0.000
REMARK  4 active torsions:
REMARK  status: ('A' for Active; 'I' for Inactive)
REMARK    1  A    between atoms: S_3  and  N_1 
REMARK    2  A    between atoms: C_7  and  C_4 
REMARK    3  A    between atoms: C_10  and  C_5 
REMARK    4  A    between atoms: C_21  and  C_20 
ROOT
ATOM      1  N   UNL d   1      45.980 -17.412  43.158  0.00  0.00    -0.155 N 
ATOM      2  N   UNL d   1      46.046 -18.241  43.236  0.00  0.00    -0.153 NA
ATOM      3  C   UNL d   1      45.956 -18.421  44.031  0.00  0.00     0.126 A 
ATOM      4  C   UNL d   1      45.852 -17.104  43.898  0.00  0.00     0.096 A 
ATOM      5  C   UNL d   1      45.836 -17.702  44.434  0.00  0.00     0.043 A 
ENDROOT
BRANCH   4   6
ATOM      6  C   UNL d   1      45.756 -16.303  44.069  0.00  0.00     0.018 A 
ATOM      7  C   UNL d   1      46.359 -15.860  44.447  0.00  0.00     0.002 A 
ATOM      8  C   UNL d   1      46.262 -15.058  44.618  0.00  0.00     0.000 A 
ATOM      9  C   UNL d   1      45.562 -14.699  44.412  0.00  0.00     0.000 A 
ATOM     10  C   UNL d   1      44.962 -15.093  44.048  0.00  0.00     0.000 A 
ATOM     11  C   UNL d   1      45.059 -15.895  43.877  0.00  0.00     0.002 A 
BRANCH   9  12
ATOM     12  C   UNL d   1      45.466 -13.899  44.582  0.00  0.00     0.000 C 
ATOM     13  C   UNL d   1      44.995 -13.426  44.095  0.00  0.00     0.000 C 
ENDBRANCH   9  12
ENDBRANCH   4   6
BRANCH   1  14
ATOM     14  S   UNL d   1      46.042 -17.022  42.433  0.00  0.00     0.266 S 
ATOM     15  O   UNL d   1      45.431 -17.493  42.129  0.00  0.00    -0.203 OA
ATOM     16  O   UNL d   1      46.646 -16.545  42.709  0.00  0.00    -0.203 OA
ATOM     17  C   UNL d   1      46.081 -16.651  41.700  0.00  0.00     0.165 C 
ENDBRANCH   1  14
BRANCH   3  18
ATOM     18  C   UNL d   1      45.979 -19.175  44.375  0.00  0.00     0.119 A 
ATOM     19  O   UNL d   1      45.318 -19.562  44.656  0.00  0.00    -0.304 OA
ATOM     20  C   UNL d   1      45.593 -20.304  44.955  0.00  0.00     0.123 A 
ATOM     21  C   UNL d   1      46.405 -20.329  44.840  0.00  0.00     0.029 A 
ATOM     22  C   UNL d   1      46.646 -19.645  44.488  0.00  0.00     0.028 A 
ENDBRANCH   3  18
TORSDOF 4
ENDMDL
MODEL 2
REMARK VINA RESULT:      38.5      1.017      3.967
REMARK  4 active torsions:
REMARK  status: ('A' for Active; 'I' for Inactive)
REMARK    1  A    between atoms: S_3  and  N_1 
REMARK    2  A    between atoms: C_7  and  C_4 
REMARK    3  A    between atoms: C_10  and  C_5 
REMARK    4  A    between atoms: C_21  and  C_20 
ROOT
ATOM      1  N   UNL d   1      45.776 -16.406  43.141  0.00  0.00    -0.155 N 
ATOM      2  N   UNL d   1      45.651 -15.585  43.221  0.00  0.00    -0.153 NA
ATOM      3  C   UNL d   1      45.770 -15.394  44.010  0.00  0.00     0.126 A 
ATOM      4  C   UNL d   1      45.968 -16.700  43.872  0.00  0.00     0.096 A 
ATOM      5  C   UNL d   1      45.968 -16.100  44.406  0.00  0.00     0.043 A 
ENDROOT
BRANCH   4   6
ATOM      6  C   UNL d   1      46.135 -17.491  44.039  0.00  0.00     0.018 A 
ATOM      7  C   UNL d   1      45.966 -17.826  44.788  0.00  0.00     0.002 A 
ATOM      8  C   UNL d   1      46.134 -18.617  44.955  0.00  0.00     0.000 A 
ATOM      9  C   UNL d   1      46.471 -19.073  44.371  0.00  0.00     0.000 A 
ATOM     10  C   UNL d   1      46.646 -18.784  43.641  0.00  0.00     0.000 A 
ATOM     11  C   UNL d   1      46.479 -17.994  43.475  0.00  0.00     0.002 A 
BRANCH   9  12
ATOM     12  C   UNL d   1      46.638 -19.862  44.537  0.00  0.00     0.000 C 
ATOM     13  C   UNL d   1      46.080 -20.330  44.927  0.00  0.00     0.000 C 
ENDBRANCH   9  12
ENDBRANCH   4   6
BRANCH   1  14
ATOM     14  S   UNL d   1      45.705 -16.804  42.420  0.00  0.00     0.266 S 
ATOM     15  O   UNL d   1      46.508 -16.665  42.265  0.00  0.00    -0.203 OA
ATOM     16  O   UNL d   1      44.912 -16.953  42.548  0.00  0.00    -0.203 OA
ATOM     17  C   UNL d   1      45.664 -17.194  41.697  0.00  0.00     0.165 C 
ENDBRANCH   1  14
BRANCH   3  18
ATOM     18  C   UNL d   1      45.708 -14.643  44.353  0.00  0.00     0.119 A 
ATOM     19  O   UNL d   1      45.007 -14.226  44.401  0.00  0.00    -0.304 OA
ATOM     20  C   UNL d   1      45.196 -13.498  44.787  0.00  0.00     0.123 A 
ATOM     21  C   UNL d   1      45.999 -13.509  44.955  0.00  0.00     0.029 A 
ATOM     22  C   UNL d   1      46.316 -14.203  44.693  0.00  0.00     0.028 A 
ENDBRANCH   3  18
TORSDOF 4
ENDMDL
