MODEL 1
REMARK VINA RESULT:      -1.8      0.000      0.000
REMARK  9 active torsions:
REMARK  status: ('A' for Active; 'I' for Inactive)
REMARK    1  A    between atoms: C_10  and  N_1 
REMARK    2  A    between atoms: C_7  and  N_3 
REMARK    3  A    between atoms: C_8  and  C_7 
REMARK       I    between atoms: N_12  and  C_8 
REMARK    4  A    between atoms: C_13  and  C_10 
REMARK    5  A    between atoms: C_21  and  N_12 
REMARK    6  A    between atoms: C_28  and  N_12 
REMARK       I    between atoms: N_19  and  C_13 
REMARK    7  A    between atoms: C_17  and  C_26 
REMARK    8  A    between atoms: C_26  and  N_19 
REMARK    9  A    between atoms: C_27  and  C_21 
ROOT
ATOM      1  N   UNL d   1      33.002  20.012 -22.372  0.00  0.00    -0.220 N 
ATOM      2  C   UNL d   1      32.902  19.225 -22.597  0.00  0.00     0.342 A 
ATOM      3  N   UNL d   1      32.917  19.008 -23.410  0.00  0.00    -0.254 N 
ATOM      4  C   UNL d   1      33.135  20.393 -23.741  0.00  0.00     0.102 A 
ATOM      5  C   UNL d   1      33.117  20.586 -22.945  0.00  0.00     0.276 A 
ATOM      6  C   UNL d   1      33.033  19.591 -23.971  0.00  0.00     0.080 A 
ATOM      7  S   UNL d   1      33.241  20.854 -24.437  0.00  0.00    -0.080 SA
ATOM      8  C   UNL d   1      33.076  19.557 -24.817  0.00  0.00     0.025 A 
ATOM      9  O   UNL d   1      32.788  18.648 -22.038  0.00  0.00    -0.245 OA
ATOM     10  C   UNL d   1      33.205  20.343 -25.097  0.00  0.00     0.037 A 
ATOM     11  O   UNL d   1      33.216  21.364 -22.723  0.00  0.00    -0.266 OA
ENDROOT
BRANCH   3  12
ATOM     12  C   UNL d   1      32.820  18.233 -23.645  0.00  0.00     0.146 C 
BRANCH  12  13
ATOM     13  C   UNL d   1      32.112  17.834 -23.488  0.00  0.00     0.283 C 
ATOM     14  N   UNL d   1      31.824  17.283 -24.028  0.00  0.00    -0.271 N 
ATOM     15  O   UNL d   1      31.705  17.995 -22.793  0.00  0.00    -0.265 OA
BRANCH  14  16
ATOM     16  C   UNL d   1      31.115  16.889 -23.863  0.00  0.00     0.083 C 
BRANCH  16  17
ATOM     17  C   UNL d   1      30.403  17.204 -24.131  0.00  0.00     0.018 A 
ATOM     18  C   UNL d   1      30.384  17.646 -24.823  0.00  0.00     0.002 A 
ATOM     19  C   UNL d   1      29.665  17.967 -25.097  0.00  0.00     0.000 A 
ATOM     20  C   UNL d   1      28.978  17.840 -24.674  0.00  0.00     0.000 A 
ATOM     21  C   UNL d   1      28.990  17.396 -23.976  0.00  0.00     0.000 A 
ATOM     22  C   UNL d   1      29.704  17.077 -23.704  0.00  0.00     0.002 A 
ENDBRANCH  16  17
ENDBRANCH  14  16
BRANCH  14  23
ATOM     23  C   UNL d   1      32.233  17.128 -24.717  0.00  0.00     0.083 C 
ATOM     24  C   UNL d   1      32.402  16.351 -24.935  0.00  0.00     0.021 C 
ENDBRANCH  14  23
ENDBRANCH  12  13
ENDBRANCH   3  12
BRANCH   1  25
ATOM     25  C   UNL d   1      32.986  20.209 -21.591  0.00  0.00     0.150 C 
BRANCH  25  26
ATOM     26  C   UNL d   1      32.425  20.745 -21.313  0.00  0.00     0.297 C 
ATOM     27  N   UNL d   1      32.626  21.300 -20.737  0.00  0.00    -0.203 NA
ATOM     28  O   UNL d   1      31.656  20.731 -21.611  0.00  0.00    -0.264 OA
BRANCH  27  29
ATOM     29  C   UNL d   1      32.068  21.837 -20.457  0.00  0.00     0.127 C 
BRANCH  29  30
ATOM     30  C   UNL d   1      32.293  22.453 -19.964  0.00  0.00     0.119 A 
ATOM     31  O   UNL d   1      32.505  22.383 -19.166  0.00  0.00    -0.304 OA
ATOM     32  C   UNL d   1      32.688  23.136 -18.890  0.00  0.00     0.123 A 
ATOM     33  C   UNL d   1      32.592  23.674 -19.516  0.00  0.00     0.029 A 
ATOM     34  C   UNL d   1      32.348  23.239 -20.171  0.00  0.00     0.028 A 
ENDBRANCH  29  30
ENDBRANCH  27  29
ENDBRANCH  25  26
ENDBRANCH   1  25
TORSDOF 9
ENDMDL
MODEL 2
REMARK VINA RESULT:       0.2      1.314      2.104
REMARK  9 active torsions:
REMARK  status: ('A' for Active; 'I' for Inactive)
REMARK    1  A    between atoms: C_10  and  N_1 
REMARK    2  A    between atoms: C_7  and  N_3 
REMARK    3  A    between atoms: C_8  and  C_7 
REMARK       I    between atoms: N_12  and  C_8 
REMARK    4  A    between atoms: C_13  and  C_10 
REMARK    5  A    between atoms: C_21  and  N_12 
REMARK    6  A    between atoms: C_28  and  N_12 
REMARK       I    between atoms: N_19  and  C_13 
REMARK    7  A    between atoms: C_17  and  C_26 
REMARK    8  A    between atoms: C_26  and  N_19 
REMARK    9  A    between atoms: C_27  and  C_21 
ROOT
ATOM      1  N   UNL d   1      33.228  21.607 -21.529  0.00  0.00    -0.220 N 
ATOM      2  C   UNL d   1      33.233  20.837 -21.826  0.00  0.00     0.342 A 
ATOM      3  N   UNL d   1      33.235  20.698 -22.656  0.00  0.00    -0.254 N 
ATOM      4  C   UNL d   1      33.226  22.125 -22.860  0.00  0.00     0.102 A 
ATOM      5  C   UNL d   1      33.225  22.240 -22.048  0.00  0.00     0.276 A 
ATOM      6  C   UNL d   1      33.231  21.341 -23.162  0.00  0.00     0.080 A 
ATOM      7  S   UNL d   1      33.224  22.657 -23.511  0.00  0.00    -0.080 SA
ATOM      8  C   UNL d   1      33.232  21.390 -24.008  0.00  0.00     0.025 A 
ATOM      9  O   UNL d   1      33.237  20.201 -21.321  0.00  0.00    -0.245 OA
ATOM     10  C   UNL d   1      33.227  22.208 -24.215  0.00  0.00     0.037 A 
ATOM     11  O   UNL d   1      33.220  23.001 -21.755  0.00  0.00    -0.266 OA
ENDROOT
BRANCH   3  12
ATOM     12  C   UNL d   1      33.240  19.942 -22.961  0.00  0.00     0.146 C 
BRANCH  12  13
ATOM     13  C   UNL d   1      32.585  19.446 -22.859  0.00  0.00     0.283 C 
ATOM     14  N   UNL d   1      32.536  18.741 -23.284  0.00  0.00    -0.271 N 
ATOM     15  O   UNL d   1      31.992  19.664 -22.336  0.00  0.00    -0.265 OA
BRANCH  14  16
ATOM     16  C   UNL d   1      31.879  18.251 -23.177  0.00  0.00     0.083 C 
BRANCH  16  17
ATOM     17  C   UNL d   1      31.931  17.453 -23.374  0.00  0.00     0.018 A 
ATOM     18  C   UNL d   1      31.439  17.139 -23.953  0.00  0.00     0.002 A 
ATOM     19  C   UNL d   1      31.490  16.332 -24.154  0.00  0.00     0.000 A 
ATOM     20  C   UNL d   1      32.030  15.852 -23.774  0.00  0.00     0.000 A 
ATOM     21  C   UNL d   1      32.528  16.162 -23.190  0.00  0.00     0.000 A 
ATOM     22  C   UNL d   1      32.479  16.964 -22.990  0.00  0.00     0.002 A 
ENDBRANCH  16  17
ENDBRANCH  14  16
BRANCH  14  23
ATOM     23  C   UNL d   1      33.130  18.530 -23.804  0.00  0.00     0.083 C 
ATOM     24  C   UNL d   1      33.093  18.762 -24.594  0.00  0.00     0.021 C 
ENDBRANCH  14  23
ENDBRANCH  12  13
ENDBRANCH   3  12
BRANCH   1  25
ATOM     25  C   UNL d   1      33.227  21.727 -20.733  0.00  0.00     0.150 C 
BRANCH  25  26
ATOM     26  C   UNL d   1      32.729  22.296 -20.404  0.00  0.00     0.297 C 
ATOM     27  N   UNL d   1      32.742  22.446 -19.593  0.00  0.00    -0.203 NA
ATOM     28  O   UNL d   1      32.211  22.721 -20.886  0.00  0.00    -0.264 OA
BRANCH  27  29
ATOM     29  C   UNL d   1      32.247  23.012 -19.261  0.00  0.00     0.127 C 
BRANCH  29  30
ATOM     30  C   UNL d   1      32.240  23.137 -18.450  0.00  0.00     0.119 A 
ATOM     31  O   UNL d   1      32.794  22.844 -17.909  0.00  0.00    -0.304 OA
ATOM     32  C   UNL d   1      32.573  23.103 -17.160  0.00  0.00     0.123 A 
ATOM     33  C   UNL d   1      31.882  23.558 -17.235  0.00  0.00     0.029 A 
ATOM     34  C   UNL d   1      31.688  23.571 -18.035  0.00  0.00     0.028 A 
ENDBRANCH  29  30
ENDBRANCH  27  29
ENDBRANCH  25  26
ENDBRANCH   1  25
TORSDOF 9
ENDMDL
MODEL 3
REMARK VINA RESULT:       1.0      1.977      5.604
REMARK  9 active torsions:
REMARK  status: ('A' for Active; 'I' for Inactive)
REMARK    1  A    between atoms: C_10  and  N_1 
REMARK    2  A    between atoms: C_7  and  N_3 
REMARK    3  A    between atoms: C_8  and  C_7 
REMARK       I    between atoms: N_12  and  C_8 
REMARK    4  A    between atoms: C_13  and  C_10 
REMARK    5  A    between atoms: C_21  and  N_12 
REMARK    6  A    between atoms: C_28  and  N_12 
REMARK       I    between atoms: N_19  and  C_13 
REMARK    7  A    between atoms: C_17  and  C_26 
REMARK    8  A    between atoms: C_26  and  N_19 
REMARK    9  A    between atoms: C_27  and  C_21 
ROOT
ATOM      1  N   UNL d   1      30.673  17.054 -23.733  0.00  0.00    -0.220 N 
ATOM      2  C   UNL d   1      31.024  17.798 -23.790  0.00  0.00     0.342 A 
ATOM      3  N   UNL d   1      31.767  17.892 -24.175  0.00  0.00    -0.254 N 
ATOM      4  C   UNL d   1      31.775  16.475 -24.432  0.00  0.00     0.102 A 
ATOM      5  C   UNL d   1      31.051  16.402 -24.054  0.00  0.00     0.276 A 
ATOM      6  C   UNL d   1      32.133  17.233 -24.491  0.00  0.00     0.080 A 
ATOM      7  S   UNL d   1      32.281  15.916 -24.806  0.00  0.00    -0.080 SA
ATOM      8  C   UNL d   1      32.867  17.141 -24.904  0.00  0.00     0.025 A 
ATOM      9  O   UNL d   1      30.659  18.452 -23.476  0.00  0.00    -0.245 OA
ATOM     10  C   UNL d   1      32.951  16.323 -25.095  0.00  0.00     0.037 A 
ATOM     11  O   UNL d   1      30.705  15.666 -23.997  0.00  0.00    -0.266 OA
ENDROOT
BRANCH   3  12
ATOM     12  C   UNL d   1      32.123  18.623 -24.238  0.00  0.00     0.146 C 
BRANCH  12  13
ATOM     13  C   UNL d   1      32.566  18.928 -23.608  0.00  0.00     0.283 C 
ATOM     14  N   UNL d   1      32.796  19.719 -23.615  0.00  0.00    -0.271 N 
ATOM     15  O   UNL d   1      32.770  18.436 -22.984  0.00  0.00    -0.265 OA
BRANCH  14  16
ATOM     16  C   UNL d   1      33.238  20.016 -22.982  0.00  0.00     0.083 C 
BRANCH  16  17
ATOM     17  C   UNL d   1      32.906  20.586 -22.487  0.00  0.00     0.018 A 
ATOM     18  C   UNL d   1      33.106  21.377 -22.581  0.00  0.00     0.002 A 
ATOM     19  C   UNL d   1      32.773  21.955 -22.082  0.00  0.00     0.000 A 
ATOM     20  C   UNL d   1      32.246  21.733 -21.498  0.00  0.00     0.000 A 
ATOM     21  C   UNL d   1      32.041  20.937 -21.399  0.00  0.00     0.000 A 
ATOM     22  C   UNL d   1      32.372  20.362 -21.895  0.00  0.00     0.002 A 
ENDBRANCH  16  17
ENDBRANCH  14  16
BRANCH  14  23
ATOM     23  C   UNL d   1      32.590  20.203 -24.240  0.00  0.00     0.083 C 
ATOM     24  C   UNL d   1      33.167  20.487 -24.754  0.00  0.00     0.021 C 
ENDBRANCH  14  23
ENDBRANCH  12  13
ENDBRANCH   3  12
BRANCH   1  25
ATOM     25  C   UNL d   1      29.963  16.976 -23.363  0.00  0.00     0.150 C 
BRANCH  25  26
ATOM     26  C   UNL d   1      29.266  16.985 -23.803  0.00  0.00     0.297 C 
ATOM     27  N   UNL d   1      28.621  16.523 -23.576  0.00  0.00    -0.203 NA
ATOM     28  O   UNL d   1      29.208  17.459 -24.476  0.00  0.00    -0.264 OA
BRANCH  27  29
ATOM     29  C   UNL d   1      27.924  16.530 -24.013  0.00  0.00     0.127 C 
BRANCH  29  30
ATOM     30  C   UNL d   1      27.227  16.237 -23.693  0.00  0.00     0.119 A 
ATOM     31  O   UNL d   1      26.785  16.589 -23.088  0.00  0.00    -0.304 OA
ATOM     32  C   UNL d   1      26.134  16.108 -22.942  0.00  0.00     0.123 A 
ATOM     33  C   UNL d   1      26.171  15.456 -23.456  0.00  0.00     0.029 A 
ATOM     34  C   UNL d   1      26.850  15.549 -23.913  0.00  0.00     0.028 A 
ENDBRANCH  29  30
ENDBRANCH  27  29
ENDBRANCH  25  26
ENDBRANCH   1  25
TORSDOF 9
ENDMDL
