MODEL 1
REMARK VINA RESULT:       0.1      0.000      0.000
REMARK  3 active torsions:
REMARK  status: ('A' for Active; 'I' for Inactive)
REMARK       I    between atoms: C_4  and  N_1 
REMARK    1  A    between atoms: C_7  and  C_3 
REMARK    2  A    between atoms: C_8  and  C_4 
REMARK    3  A    between atoms: C_13  and  C_5 
ROOT
ATOM      1  N   UNL d   1     -42.664-122.993 -50.802  0.00  0.00    -0.194 N 
ATOM      2  N   UNL d   1     -42.667-122.933 -51.615  0.00  0.00    -0.163 NA
ATOM      3  C   UNL d   1     -41.878-122.993 -50.545  0.00  0.00     0.091 A 
ATOM      4  C   UNL d   1     -43.343-123.047 -50.291  0.00  0.00     0.286 C 
ATOM      5  C   UNL d   1     -41.881-122.896 -51.865  0.00  0.00     0.103 A 
ATOM      6  C   UNL d   1     -41.400-122.933 -51.206  0.00  0.00     0.040 A 
ATOM      7  O   UNL d   1     -44.096-123.040 -50.637  0.00  0.00    -0.265 OA
ENDROOT
BRANCH   3   8
ATOM      8  C   UNL d   1     -41.626-123.046 -49.755  0.00  0.00     0.057 A 
ATOM      9  C   UNL d   1     -41.397-122.373 -49.359  0.00  0.00     0.197 A 
ATOM     10  O   UNL d   1     -41.412-121.650 -49.728  0.00  0.00    -0.286 OA
ATOM     11  C   UNL d   1     -41.146-122.426 -48.568  0.00  0.00     0.042 A 
ATOM     12  C   UNL d   1     -41.123-123.148 -48.173  0.00  0.00     0.003 A 
ATOM     13  C   UNL d   1     -41.359-123.817 -48.592  0.00  0.00     0.000 A 
ATOM     14  C   UNL d   1     -41.603-123.770 -49.359  0.00  0.00     0.005 A 
ENDBRANCH   3   8
BRANCH   4  15
ATOM     15  C   UNL d   1     -43.256-123.104 -49.494  0.00  0.00     0.087 A 
ATOM     16  S   UNL d   1     -43.228-123.790 -49.081  0.00  0.00    -0.082 SA
ATOM     17  C   UNL d   1     -43.133-123.594 -48.273  0.00  0.00     0.036 A 
ATOM     18  C   UNL d   1     -43.103-122.764 -48.214  0.00  0.00     0.008 A 
ATOM     19  C   UNL d   1     -43.179-122.464 -48.968  0.00  0.00     0.012 A 
ENDBRANCH   4  15
BRANCH   5  20
ATOM     20  C   UNL d   1     -41.630-122.832 -52.649  0.00  0.00     0.019 A 
ATOM     21  C   UNL d   1     -41.385-123.513 -53.061  0.00  0.00     0.002 A 
ATOM     22  C   UNL d   1     -41.134-123.453 -53.846  0.00  0.00     0.000 A 
ATOM     23  C   UNL d   1     -41.125-122.716 -54.223  0.00  0.00     0.000 A 
ATOM     24  C   UNL d   1     -41.370-122.035 -53.811  0.00  0.00     0.000 A 
ATOM     25  C   UNL d   1     -41.621-122.099 -53.028  0.00  0.00     0.002 A 
ENDBRANCH   5  20
TORSDOF 3
ENDMDL
MODEL 2
REMARK VINA RESULT:       2.4      1.161      1.984
REMARK  3 active torsions:
REMARK  status: ('A' for Active; 'I' for Inactive)
REMARK       I    between atoms: C_4  and  N_1 
REMARK    1  A    between atoms: C_7  and  C_3 
REMARK    2  A    between atoms: C_8  and  C_4 
REMARK    3  A    between atoms: C_13  and  C_5 
ROOT
ATOM      1  N   UNL d   1     -41.700-121.921 -51.740  0.00  0.00    -0.194 N 
ATOM      2  N   UNL d   1     -41.585-121.747 -52.528  0.00  0.00    -0.163 NA
ATOM      3  C   UNL d   1     -42.066-122.661 -51.689  0.00  0.00     0.091 A 
ATOM      4  C   UNL d   1     -41.487-121.436 -51.074  0.00  0.00     0.286 C 
ATOM      5  C   UNL d   1     -41.880-122.381 -52.969  0.00  0.00     0.103 A 
ATOM      6  C   UNL d   1     -42.174-122.939 -52.450  0.00  0.00     0.040 A 
ATOM      7  O   UNL d   1     -41.123-120.706 -51.220  0.00  0.00    -0.265 OA
ENDROOT
BRANCH   3   8
ATOM      8  C   UNL d   1     -42.283-123.046 -50.985  0.00  0.00     0.057 A 
ATOM      9  C   UNL d   1     -43.063-123.061 -50.757  0.00  0.00     0.197 A 
ATOM     10  O   UNL d   1     -43.634-122.703 -51.210  0.00  0.00    -0.286 OA
ATOM     11  C   UNL d   1     -43.280-123.447 -50.053  0.00  0.00     0.042 A 
ATOM     12  C   UNL d   1     -42.719-123.817 -49.577  0.00  0.00     0.003 A 
ATOM     13  C   UNL d   1     -41.933-123.791 -49.826  0.00  0.00     0.000 A 
ATOM     14  C   UNL d   1     -41.720-123.418 -50.508  0.00  0.00     0.005 A 
ENDBRANCH   3   8
BRANCH   4  15
ATOM     15  C   UNL d   1     -41.636-121.680 -50.322  0.00  0.00     0.087 A 
ATOM     16  S   UNL d   1     -41.123-122.084 -49.859  0.00  0.00    -0.082 SA
ATOM     17  C   UNL d   1     -41.502-122.224 -49.126  0.00  0.00     0.036 A 
ATOM     18  C   UNL d   1     -42.262-121.888 -49.164  0.00  0.00     0.008 A 
ATOM     19  C   UNL d   1     -42.343-121.553 -49.903  0.00  0.00     0.012 A 
ENDBRANCH   4  15
BRANCH   5  20
ATOM     20  C   UNL d   1     -41.875-122.435 -53.792  0.00  0.00     0.019 A 
ATOM     21  C   UNL d   1     -41.479-123.067 -54.162  0.00  0.00     0.002 A 
ATOM     22  C   UNL d   1     -41.472-123.125 -54.987  0.00  0.00     0.000 A 
ATOM     23  C   UNL d   1     -41.858-122.554 -55.445  0.00  0.00     0.000 A 
ATOM     24  C   UNL d   1     -42.254-121.922 -55.076  0.00  0.00     0.000 A 
ATOM     25  C   UNL d   1     -42.259-121.868 -54.252  0.00  0.00     0.002 A 
ENDBRANCH   5  20
TORSDOF 3
ENDMDL
