MODEL 1
REMARK VINA RESULT:      -2.4      0.000      0.000
REMARK  4 active torsions:
REMARK  status: ('A' for Active; 'I' for Inactive)
REMARK    1  A    between atoms: C_8  and  N_1 
REMARK    2  A    between atoms: C_7  and  C_2 
REMARK    3  A    between atoms: C_9  and  C_7 
REMARK    4  A    between atoms: C_17  and  C_8 
ROOT
ATOM      1  N   UNL d   1      30.295  16.942 -25.007  0.00  0.00    -0.224 N 
ATOM      2  C   UNL d   1      31.712  16.929 -24.852  0.00  0.00     0.117 A 
ATOM      3  C   UNL d   1      30.998  16.518 -24.934  0.00  0.00     0.273 A 
ATOM      4  C   UNL d   1      30.302  17.754 -25.000  0.00  0.00     0.359 A 
ATOM      5  N   UNL d   1      31.011  18.151 -24.919  0.00  0.00    -0.153 NA
ATOM      6  C   UNL d   1      31.719  17.741 -24.845  0.00  0.00     0.288 A 
ATOM      7  O   UNL d   1      29.607  18.178 -25.073  0.00  0.00    -0.244 OA
ATOM      8  O   UNL d   1      30.991  15.703 -24.941  0.00  0.00    -0.266 OA
ATOM      9  O   UNL d   1      32.423  18.152 -24.764  0.00  0.00    -0.265 OA
ENDROOT
BRANCH   1  10
ATOM     10  C   UNL d   1      29.584  16.532 -25.089  0.00  0.00     0.087 C 
BRANCH  10  11
ATOM     11  C   UNL d   1      29.146  16.342 -24.414  0.00  0.00     0.018 A 
ATOM     12  C   UNL d   1      29.366  15.717 -23.944  0.00  0.00     0.002 A 
ATOM     13  C   UNL d   1      28.929  15.527 -23.269  0.00  0.00     0.000 A 
ATOM     14  C   UNL d   1      28.264  15.980 -23.077  0.00  0.00     0.000 A 
ATOM     15  C   UNL d   1      28.044  16.605 -23.546  0.00  0.00     0.000 A 
ATOM     16  C   UNL d   1      28.482  16.794 -24.221  0.00  0.00     0.002 A 
ENDBRANCH  10  11
ENDBRANCH   1  10
BRANCH   2  17
ATOM     17  C   UNL d   1      32.428  16.505 -24.777  0.00  0.00     0.034 C 
BRANCH  17  18
ATOM     18  C   UNL d   1      32.686  16.269 -24.040  0.00  0.00     0.100 A 
ATOM     19  O   UNL d   1      32.670  16.631 -23.300  0.00  0.00    -0.305 OA
ATOM     20  C   UNL d   1      33.008  16.128 -22.770  0.00  0.00     0.123 A 
ATOM     21  C   UNL d   1      33.241  15.453 -23.148  0.00  0.00     0.029 A 
ATOM     22  C   UNL d   1      33.044  15.532 -23.940  0.00  0.00     0.027 A 
ENDBRANCH  17  18
ENDBRANCH   2  17
TORSDOF 4
ENDMDL
MODEL 2
REMARK VINA RESULT:      -2.3      0.977      3.422
REMARK  4 active torsions:
REMARK  status: ('A' for Active; 'I' for Inactive)
REMARK    1  A    between atoms: C_8  and  N_1 
REMARK    2  A    between atoms: C_7  and  C_2 
REMARK    3  A    between atoms: C_9  and  C_7 
REMARK    4  A    between atoms: C_17  and  C_8 
ROOT
ATOM      1  N   UNL d   1      31.244  17.150 -24.909  0.00  0.00    -0.224 N 
ATOM      2  C   UNL d   1      29.902  16.671 -24.888  0.00  0.00     0.117 A 
ATOM      3  C   UNL d   1      30.715  16.523 -24.840  0.00  0.00     0.273 A 
ATOM      4  C   UNL d   1      30.973  17.906 -25.023  0.00  0.00     0.359 A 
ATOM      5  N   UNL d   1      30.169  18.045 -25.069  0.00  0.00    -0.153 NA
ATOM      6  C   UNL d   1      29.631  17.428 -25.002  0.00  0.00     0.288 A 
ATOM      7  O   UNL d   1      31.495  18.532 -25.092  0.00  0.00    -0.244 OA
ATOM      8  O   UNL d   1      30.987  15.763 -24.726  0.00  0.00    -0.266 OA
ATOM      9  O   UNL d   1      28.827  17.581 -25.051  0.00  0.00    -0.265 OA
ENDROOT
BRANCH   1  10
ATOM     10  C   UNL d   1      32.054  17.000 -24.861  0.00  0.00     0.087 C 
BRANCH  10  11
ATOM     11  C   UNL d   1      32.437  17.074 -24.132  0.00  0.00     0.018 A 
ATOM     12  C   UNL d   1      32.664  17.805 -23.860  0.00  0.00     0.002 A 
ATOM     13  C   UNL d   1      33.047  17.880 -23.132  0.00  0.00     0.000 A 
ATOM     14  C   UNL d   1      33.197  17.202 -22.682  0.00  0.00     0.000 A 
ATOM     15  C   UNL d   1      32.971  16.471 -22.954  0.00  0.00     0.000 A 
ATOM     16  C   UNL d   1      32.588  16.397 -23.683  0.00  0.00     0.002 A 
ENDBRANCH  10  11
ENDBRANCH   1  10
BRANCH   2  17
ATOM     17  C   UNL d   1      29.360  16.040 -24.819  0.00  0.00     0.034 C 
BRANCH  17  18
ATOM     18  C   UNL d   1      28.965  15.917 -24.117  0.00  0.00     0.100 A 
ATOM     19  O   UNL d   1      29.118  16.152 -23.341  0.00  0.00    -0.305 OA
ATOM     20  C   UNL d   1      28.529  15.865 -22.874  0.00  0.00     0.123 A 
ATOM     21  C   UNL d   1      28.001  15.453 -23.326  0.00  0.00     0.029 A 
ATOM     22  C   UNL d   1      28.265  15.480 -24.102  0.00  0.00     0.027 A 
ENDBRANCH  17  18
ENDBRANCH   2  17
TORSDOF 4
ENDMDL
MODEL 3
REMARK VINA RESULT:      -2.3      1.319      2.063
REMARK  4 active torsions:
REMARK  status: ('A' for Active; 'I' for Inactive)
REMARK    1  A    between atoms: C_8  and  N_1 
REMARK    2  A    between atoms: C_7  and  C_2 
REMARK    3  A    between atoms: C_9  and  C_7 
REMARK    4  A    between atoms: C_17  and  C_8 
ROOT
ATOM      1  N   UNL d   1      30.145  15.992 -24.019  0.00  0.00    -0.224 N 
ATOM      2  C   UNL d   1      31.566  16.054 -23.927  0.00  0.00     0.117 A 
ATOM      3  C   UNL d   1      30.870  16.195 -24.353  0.00  0.00     0.273 A 
ATOM      4  C   UNL d   1      30.112  15.656 -23.280  0.00  0.00     0.359 A 
ATOM      5  N   UNL d   1      30.804  15.521 -22.867  0.00  0.00    -0.153 NA
ATOM      6  C   UNL d   1      31.533  15.719 -23.189  0.00  0.00     0.288 A 
ATOM      7  O   UNL d   1      29.394  15.453 -22.945  0.00  0.00    -0.244 OA
ATOM      8  O   UNL d   1      30.903  16.532 -25.094  0.00  0.00    -0.266 OA
ATOM      9  O   UNL d   1      32.219  15.577 -22.763  0.00  0.00    -0.265 OA
ENDROOT
BRANCH   1  10
ATOM     10  C   UNL d   1      29.452  16.132 -24.444  0.00  0.00     0.087 C 
BRANCH  10  11
ATOM     11  C   UNL d   1      29.031  16.832 -24.313  0.00  0.00     0.018 A 
ATOM     12  C   UNL d   1      29.164  17.483 -24.779  0.00  0.00     0.002 A 
ATOM     13  C   UNL d   1      28.743  18.183 -24.649  0.00  0.00     0.000 A 
ATOM     14  C   UNL d   1      28.186  18.212 -24.038  0.00  0.00     0.000 A 
ATOM     15  C   UNL d   1      28.053  17.561 -23.572  0.00  0.00     0.000 A 
ATOM     16  C   UNL d   1      28.474  16.862 -23.703  0.00  0.00     0.002 A 
ENDBRANCH  10  11
ENDBRANCH   1  10
BRANCH   2  17
ATOM     17  C   UNL d   1      32.304  16.258 -24.260  0.00  0.00     0.034 C 
BRANCH  17  18
ATOM     18  C   UNL d   1      32.606  17.008 -24.152  0.00  0.00     0.100 A 
ATOM     19  O   UNL d   1      32.605  17.523 -23.509  0.00  0.00    -0.305 OA
ATOM     20  C   UNL d   1      32.991  18.195 -23.728  0.00  0.00     0.123 A 
ATOM     21  C   UNL d   1      33.241  18.126 -24.494  0.00  0.00     0.029 A 
ATOM     22  C   UNL d   1      33.005  17.389 -24.766  0.00  0.00     0.027 A 
ENDBRANCH  17  18
ENDBRANCH   2  17
TORSDOF 4
ENDMDL
MODEL 4
REMARK VINA RESULT:      -0.6      3.342      4.430
REMARK  4 active torsions:
REMARK  status: ('A' for Active; 'I' for Inactive)
REMARK    1  A    between atoms: C_8  and  N_1 
REMARK    2  A    between atoms: C_7  and  C_2 
REMARK    3  A    between atoms: C_9  and  C_7 
REMARK    4  A    between atoms: C_17  and  C_8 
ROOT
ATOM      1  N   UNL d   1      33.217  18.968 -23.327  0.00  0.00    -0.224 N 
ATOM      2  C   UNL d   1      33.231  20.058 -22.409  0.00  0.00     0.117 A 
ATOM      3  C   UNL d   1      33.227  19.242 -22.550  0.00  0.00     0.273 A 
ATOM      4  C   UNL d   1      33.211  19.491 -23.948  0.00  0.00     0.359 A 
ATOM      5  N   UNL d   1      33.215  20.294 -23.799  0.00  0.00    -0.153 NA
ATOM      6  C   UNL d   1      33.225  20.581 -23.030  0.00  0.00     0.288 A 
ATOM      7  O   UNL d   1      33.201  19.223 -24.720  0.00  0.00    -0.244 OA
ATOM      8  O   UNL d   1      33.233  18.717 -21.927  0.00  0.00    -0.266 OA
ATOM      9  O   UNL d   1      33.228  21.389 -22.895  0.00  0.00    -0.265 OA
ENDROOT
BRANCH   1  10
ATOM     10  C   UNL d   1      33.213  18.155 -23.466  0.00  0.00     0.087 C 
BRANCH  10  11
ATOM     11  C   UNL d   1      32.503  17.781 -23.666  0.00  0.00     0.018 A 
ATOM     12  C   UNL d   1      31.929  18.183 -24.076  0.00  0.00     0.002 A 
ATOM     13  C   UNL d   1      31.219  17.811 -24.275  0.00  0.00     0.000 A 
ATOM     14  C   UNL d   1      31.099  17.023 -24.053  0.00  0.00     0.000 A 
ATOM     15  C   UNL d   1      31.672  16.621 -23.643  0.00  0.00     0.000 A 
ATOM     16  C   UNL d   1      32.383  16.994 -23.443  0.00  0.00     0.002 A 
ENDBRANCH  10  11
ENDBRANCH   1  10
BRANCH   2  17
ATOM     17  C   UNL d   1      33.241  20.343 -21.623  0.00  0.00     0.034 C 
BRANCH  17  18
ATOM     18  C   UNL d   1      32.598  20.749 -21.330  0.00  0.00     0.100 A 
ATOM     19  O   UNL d   1      31.787  20.687 -21.467  0.00  0.00    -0.305 OA
ATOM     20  C   UNL d   1      31.417  21.241 -21.015  0.00  0.00     0.123 A 
ATOM     21  C   UNL d   1      31.965  21.657 -20.591  0.00  0.00     0.029 A 
ATOM     22  C   UNL d   1      32.704  21.356 -20.782  0.00  0.00     0.027 A 
ENDBRANCH  17  18
ENDBRANCH   2  17
TORSDOF 4
ENDMDL
MODEL 5
REMARK VINA RESULT:       0.3      2.809      4.078
REMARK  4 active torsions:
REMARK  status: ('A' for Active; 'I' for Inactive)
REMARK    1  A    between atoms: C_8  and  N_1 
REMARK    2  A    between atoms: C_7  and  C_2 
REMARK    3  A    between atoms: C_9  and  C_7 
REMARK    4  A    between atoms: C_17  and  C_8 
ROOT
ATOM      1  N   UNL d   1      32.797  19.462 -23.365  0.00  0.00    -0.224 N 
ATOM      2  C   UNL d   1      32.044  18.292 -23.673  0.00  0.00     0.117 A 
ATOM      3  C   UNL d   1      32.489  18.734 -23.134  0.00  0.00     0.273 A 
ATOM      4  C   UNL d   1      32.665  19.744 -24.115  0.00  0.00     0.359 A 
ATOM      5  N   UNL d   1      32.225  19.302 -24.642  0.00  0.00    -0.153 NA
ATOM      6  C   UNL d   1      31.912  18.574 -24.423  0.00  0.00     0.288 A 
ATOM      7  O   UNL d   1      32.969  20.467 -24.349  0.00  0.00    -0.244 OA
ATOM      8  O   UNL d   1      32.621  18.451 -22.381  0.00  0.00    -0.266 OA
ATOM      9  O   UNL d   1      31.472  18.141 -24.962  0.00  0.00    -0.265 OA
ENDROOT
BRANCH   1  10
ATOM     10  C   UNL d   1      33.240  19.901 -22.826  0.00  0.00     0.087 C 
BRANCH  10  11
ATOM     11  C   UNL d   1      32.857  20.440 -22.329  0.00  0.00     0.018 A 
ATOM     12  C   UNL d   1      32.559  20.197 -21.614  0.00  0.00     0.002 A 
ATOM     13  C   UNL d   1      32.175  20.734 -21.116  0.00  0.00     0.000 A 
ATOM     14  C   UNL d   1      32.099  21.522 -21.355  0.00  0.00     0.000 A 
ATOM     15  C   UNL d   1      32.397  21.766 -22.070  0.00  0.00     0.000 A 
ATOM     16  C   UNL d   1      32.780  21.227 -22.566  0.00  0.00     0.002 A 
ENDBRANCH  10  11
ENDBRANCH   1  10
BRANCH   2  17
ATOM     17  C   UNL d   1      31.729  17.553 -23.445  0.00  0.00     0.034 C 
BRANCH  17  18
ATOM     18  C   UNL d   1      32.170  16.875 -23.544  0.00  0.00     0.100 A 
ATOM     19  O   UNL d   1      32.852  16.593 -23.177  0.00  0.00    -0.305 OA
ATOM     20  C   UNL d   1      33.037  15.883 -23.508  0.00  0.00     0.123 A 
ATOM     21  C   UNL d   1      32.494  15.699 -24.077  0.00  0.00     0.029 A 
ATOM     22  C   UNL d   1      31.950  16.312 -24.106  0.00  0.00     0.027 A 
ENDBRANCH  17  18
ENDBRANCH   2  17
TORSDOF 4
ENDMDL
MODEL 6
REMARK VINA RESULT:       0.6      3.818      4.940
REMARK  4 active torsions:
REMARK  status: ('A' for Active; 'I' for Inactive)
REMARK    1  A    between atoms: C_8  and  N_1 
REMARK    2  A    between atoms: C_7  and  C_2 
REMARK    3  A    between atoms: C_9  and  C_7 
REMARK    4  A    between atoms: C_17  and  C_8 
ROOT
ATOM      1  N   UNL d   1      33.234  20.191 -22.176  0.00  0.00    -0.224 N 
ATOM      2  C   UNL d   1      33.222  19.188 -23.188  0.00  0.00     0.117 A 
ATOM      3  C   UNL d   1      33.228  19.395 -22.386  0.00  0.00     0.273 A 
ATOM      4  C   UNL d   1      33.234  20.768 -22.747  0.00  0.00     0.359 A 
ATOM      5  N   UNL d   1      33.227  20.555 -23.536  0.00  0.00    -0.153 NA
ATOM      6  C   UNL d   1      33.221  19.764 -23.759  0.00  0.00     0.288 A 
ATOM      7  O   UNL d   1      33.240  21.560 -22.543  0.00  0.00    -0.244 OA
ATOM      8  O   UNL d   1      33.229  18.817 -21.812  0.00  0.00    -0.266 OA
ATOM      9  O   UNL d   1      33.215  19.565 -24.554  0.00  0.00    -0.265 OA
ENDROOT
BRANCH   1  10
ATOM     10  C   UNL d   1      33.241  20.396 -21.377  0.00  0.00     0.087 C 
BRANCH  10  11
ATOM     11  C   UNL d   1      32.731  20.988 -21.106  0.00  0.00     0.018 A 
ATOM     12  C   UNL d   1      31.927  20.873 -21.118  0.00  0.00     0.002 A 
ATOM     13  C   UNL d   1      31.416  21.463 -20.847  0.00  0.00     0.000 A 
ATOM     14  C   UNL d   1      31.732  22.173 -20.564  0.00  0.00     0.000 A 
ATOM     15  C   UNL d   1      32.536  22.289 -20.552  0.00  0.00     0.000 A 
ATOM     16  C   UNL d   1      33.046  21.697 -20.823  0.00  0.00     0.002 A 
ENDBRANCH  10  11
ENDBRANCH   1  10
BRANCH   2  17
ATOM     17  C   UNL d   1      33.216  18.382 -23.408  0.00  0.00     0.034 C 
BRANCH  17  18
ATOM     18  C   UNL d   1      32.509  18.009 -23.566  0.00  0.00     0.100 A 
ATOM     19  O   UNL d   1      31.791  18.277 -23.872  0.00  0.00    -0.305 OA
ATOM     20  C   UNL d   1      31.286  17.651 -23.905  0.00  0.00     0.123 A 
ATOM     21  C   UNL d   1      31.657  16.988 -23.630  0.00  0.00     0.029 A 
ATOM     22  C   UNL d   1      32.420  17.202 -23.417  0.00  0.00     0.027 A 
ENDBRANCH  17  18
ENDBRANCH   2  17
TORSDOF 4
ENDMDL
