MODEL 1
REMARK VINA RESULT:      55.1      0.000      0.000
REMARK  3 active torsions:
REMARK  status: ('A' for Active; 'I' for Inactive)
REMARK    1  A    between atoms: C_8  and  C_6 
REMARK    2  A    between atoms: C_9  and  C_8 
REMARK       I    between atoms: N_10  and  C_9 
REMARK    3  A    between atoms: C_14  and  N_10 
ROOT
ATOM      1  N   UNL d   1     -57.491 -99.162 -45.027  0.00  0.00    -0.207 NA
ATOM      2  N   UNL d   1     -56.871 -98.961 -43.482  0.00  0.00    -0.240 NA
ATOM      3  C   UNL d   1     -56.730 -99.134 -44.743  0.00  0.00     0.297 A 
ATOM      4  C   UNL d   1     -58.207 -99.098 -44.626  0.00  0.00     0.086 A 
ATOM      5  C   UNL d   1     -57.670 -98.926 -43.302  0.00  0.00     0.083 A 
ATOM      6  C   UNL d   1     -56.523 -99.066 -44.219  0.00  0.00     0.144 A 
ATOM      7  C   UNL d   1     -58.325 -98.985 -43.806  0.00  0.00     0.035 A 
ATOM      8  O   UNL d   1     -56.139 -99.219 -45.308  0.00  0.00    -0.264 OA
ATOM      9  C   UNL d   1     -59.094 -98.935 -43.512  0.00  0.00     0.003 A 
ATOM     10  C   UNL d   1     -57.786 -98.815 -42.493  0.00  0.00     0.019 A 
ATOM     11  C   UNL d   1     -58.858 -99.157 -45.131  0.00  0.00     0.019 A 
ATOM     12  C   UNL d   1     -59.624 -99.105 -44.828  0.00  0.00     0.002 A 
ATOM     13  C   UNL d   1     -58.564 -98.762 -42.186  0.00  0.00     0.002 A 
ATOM     14  C   UNL d   1     -59.740 -98.994 -44.019  0.00  0.00     0.000 A 
ATOM     15  C   UNL d   1     -59.210 -98.822 -42.693  0.00  0.00     0.000 A 
ENDROOT
BRANCH   6  16
ATOM     16  C   UNL d   1     -55.700 -99.074 -44.192  0.00  0.00     0.086 C 
BRANCH  16  17
ATOM     17  C   UNL d   1     -55.271 -99.262 -44.879  0.00  0.00     0.281 C 
ATOM     18  N   UNL d   1     -54.821 -99.955 -44.907  0.00  0.00    -0.208 NA
ATOM     19  O   UNL d   1     -55.292 -98.760 -45.534  0.00  0.00    -0.265 OA
BRANCH  18  20
ATOM     20  C   UNL d   1     -54.796-100.461 -44.254  0.00  0.00     0.085 A 
ATOM     21  C   UNL d   1     -54.831-100.152 -43.492  0.00  0.00     0.019 A 
ATOM     22  C   UNL d   1     -54.806-100.659 -42.843  0.00  0.00     0.002 A 
ATOM     23  C   UNL d   1     -54.747-101.473 -42.957  0.00  0.00     0.000 A 
ATOM     24  C   UNL d   1     -54.713-101.781 -43.727  0.00  0.00     0.002 A 
ATOM     25  C   UNL d   1     -54.723-101.970 -42.321  0.00  0.00     0.000 C 
ATOM     26  C   UNL d   1     -54.738-101.271 -44.372  0.00  0.00     0.019 A 
ENDBRANCH  18  20
ENDBRANCH  16  17
ENDBRANCH   6  16
TORSDOF 3
ENDMDL
MODEL 2
REMARK VINA RESULT:      58.0      2.943      4.584
REMARK  3 active torsions:
REMARK  status: ('A' for Active; 'I' for Inactive)
REMARK    1  A    between atoms: C_8  and  C_6 
REMARK    2  A    between atoms: C_9  and  C_8 
REMARK       I    between atoms: N_10  and  C_9 
REMARK    3  A    between atoms: C_14  and  N_10 
ROOT
ATOM      1  N   UNL d   1     -54.874-100.036 -42.246  0.00  0.00    -0.207 NA
ATOM      2  N   UNL d   1     -54.872-101.700 -42.456  0.00  0.00    -0.240 NA
ATOM      3  C   UNL d   1     -54.802-100.653 -41.722  0.00  0.00     0.297 A 
ATOM      4  C   UNL d   1     -54.971-100.047 -43.064  0.00  0.00     0.086 A 
ATOM      5  C   UNL d   1     -54.968-101.475 -43.239  0.00  0.00     0.083 A 
ATOM      6  C   UNL d   1     -54.802-101.215 -41.796  0.00  0.00     0.144 A 
ATOM      7  C   UNL d   1     -55.019-100.715 -43.564  0.00  0.00     0.035 A 
ATOM      8  O   UNL d   1     -54.713-100.437 -40.934  0.00  0.00    -0.264 OA
ATOM      9  C   UNL d   1     -55.116-100.606 -44.376  0.00  0.00     0.003 A 
ATOM     10  C   UNL d   1     -55.015-102.135 -43.732  0.00  0.00     0.019 A 
ATOM     11  C   UNL d   1     -55.021 -99.287 -43.386  0.00  0.00     0.019 A 
ATOM     12  C   UNL d   1     -55.118 -99.187 -44.199  0.00  0.00     0.002 A 
ATOM     13  C   UNL d   1     -55.115-102.032 -44.558  0.00  0.00     0.002 A 
ATOM     14  C   UNL d   1     -55.166 -99.847 -44.692  0.00  0.00     0.000 A 
ATOM     15  C   UNL d   1     -55.164-101.273 -44.874  0.00  0.00     0.000 A 
ENDROOT
BRANCH   6  16
ATOM     16  C   UNL d   1     -54.712-101.635 -41.093  0.00  0.00     0.086 C 
BRANCH  16  17
ATOM     17  C   UNL d   1     -54.799-102.463 -41.098  0.00  0.00     0.281 C 
ATOM     18  N   UNL d   1     -54.909-102.869 -40.387  0.00  0.00    -0.208 NA
ATOM     19  O   UNL d   1     -54.777-102.880 -41.811  0.00  0.00    -0.265 OA
BRANCH  18  20
ATOM     20  C   UNL d   1     -54.932-102.457 -39.672  0.00  0.00     0.085 A 
ATOM     21  C   UNL d   1     -55.163-102.842 -38.981  0.00  0.00     0.019 A 
ATOM     22  C   UNL d   1     -55.185-102.428 -38.270  0.00  0.00     0.002 A 
ATOM     23  C   UNL d   1     -54.978-101.631 -38.249  0.00  0.00     0.000 A 
ATOM     24  C   UNL d   1     -54.745-101.246 -38.947  0.00  0.00     0.002 A 
ATOM     25  C   UNL d   1     -54.999-101.224 -37.551  0.00  0.00     0.000 C 
ATOM     26  C   UNL d   1     -54.724-101.663 -39.655  0.00  0.00     0.019 A 
ENDBRANCH  18  20
ENDBRANCH  16  17
ENDBRANCH   6  16
TORSDOF 3
ENDMDL
