MODEL 1
REMARK VINA RESULT:      -7.5      0.000      0.000
REMARK  4 active torsions:
REMARK  status: ('A' for Active; 'I' for Inactive)
REMARK    1  A    between atoms: C_2  and  S_1 
REMARK    2  A    between atoms: N_5  and  S_1 
REMARK    3  A    between atoms: C_13  and  N_5 
REMARK    4  A    between atoms: C_11  and  C_13 
ROOT
ATOM      1  C   UNL d   1     -47.164  13.252  22.963  0.00  0.00     0.105 A 
ATOM      2  C   UNL d   1     -47.662  12.631  23.150  0.00  0.00     0.012 A 
ATOM      3  C   UNL d   1     -47.476  14.011  22.868  0.00  0.00     0.012 A 
ATOM      4  C   UNL d   1     -48.287  14.143  22.960  0.00  0.00     0.001 A 
ATOM      5  C   UNL d   1     -48.471  12.754  23.244  0.00  0.00     0.001 A 
ATOM      6  C   UNL d   1     -48.787  13.513  23.149  0.00  0.00     0.000 A 
ATOM      7  C   UNL d   1     -47.351  11.873  23.246  0.00  0.00     0.001 C 
ATOM      8  C   UNL d   1     -46.973  14.640  22.679  0.00  0.00     0.001 C 
ATOM      9  C   UNL d   1     -48.974  12.129  23.433  0.00  0.00     0.000 C 
ATOM     10  C   UNL d   1     -48.599  14.900  22.865  0.00  0.00     0.000 C 
ENDROOT
BRANCH   1  11
ATOM     11  S   UNL d   1     -46.358  13.117  22.872  0.00  0.00     0.285 S 
ATOM     12  O   UNL d   1     -46.251  13.260  23.684  0.00  0.00    -0.198 OA
ATOM     13  O   UNL d   1     -46.471  12.978  22.078  0.00  0.00    -0.198 OA
BRANCH  11  14
ATOM     14  N   UNL d   1     -45.550  12.984  22.794  0.00  0.00    -0.155 NA
BRANCH  14  15
ATOM     15  C   UNL d   1     -45.203  12.968  22.046  0.00  0.00     0.137 C 
BRANCH  15  16
ATOM     16  C   UNL d   1     -44.432  12.696  21.962  0.00  0.00     0.120 A 
ATOM     17  O   UNL d   1     -43.904  12.138  22.255  0.00  0.00    -0.304 OA
ATOM     18  C   UNL d   1     -43.187  12.227  21.854  0.00  0.00     0.123 A 
ATOM     19  C   UNL d   1     -43.273  12.842  21.312  0.00  0.00     0.029 A 
ATOM     20  C   UNL d   1     -44.043  13.133  21.378  0.00  0.00     0.028 A 
ENDBRANCH  15  16
ENDBRANCH  14  15
ENDBRANCH  11  14
ENDBRANCH   1  11
TORSDOF 4
ENDMDL
MODEL 2
REMARK VINA RESULT:      -7.4      1.742      2.437
REMARK  4 active torsions:
REMARK  status: ('A' for Active; 'I' for Inactive)
REMARK    1  A    between atoms: C_2  and  S_1 
REMARK    2  A    between atoms: N_5  and  S_1 
REMARK    3  A    between atoms: C_13  and  N_5 
REMARK    4  A    between atoms: C_11  and  C_13 
ROOT
ATOM      1  C   UNL d   1     -49.412  12.660  22.471  0.00  0.00     0.105 A 
ATOM      2  C   UNL d   1     -49.827  12.261  23.053  0.00  0.00     0.012 A 
ATOM      3  C   UNL d   1     -49.818  13.139  21.935  0.00  0.00     0.012 A 
ATOM      4  C   UNL d   1     -50.640  13.216  21.985  0.00  0.00     0.001 A 
ATOM      5  C   UNL d   1     -50.645  12.333  23.109  0.00  0.00     0.001 A 
ATOM      6  C   UNL d   1     -51.056  12.812  22.574  0.00  0.00     0.000 A 
ATOM      7  C   UNL d   1     -49.422  11.783  23.588  0.00  0.00     0.001 C 
ATOM      8  C   UNL d   1     -49.399  13.542  21.347  0.00  0.00     0.001 C 
ATOM      9  C   UNL d   1     -51.064  11.932  23.695  0.00  0.00     0.000 C 
ATOM     10  C   UNL d   1     -51.046  13.695  21.450  0.00  0.00     0.000 C 
ENDROOT
BRANCH   1  11
ATOM     11  S   UNL d   1     -48.595  12.581  22.425  0.00  0.00     0.285 S 
ATOM     12  O   UNL d   1     -48.694  11.952  21.891  0.00  0.00    -0.198 OA
ATOM     13  O   UNL d   1     -48.505  13.198  22.948  0.00  0.00    -0.198 OA
BRANCH  11  14
ATOM     14  N   UNL d   1     -47.779  12.492  22.370  0.00  0.00    -0.155 NA
BRANCH  14  15
ATOM     15  C   UNL d   1     -47.278  13.090  22.635  0.00  0.00     0.137 C 
BRANCH  15  16
ATOM     16  C   UNL d   1     -46.466  12.960  22.656  0.00  0.00     0.120 A 
ATOM     17  O   UNL d   1     -45.898  12.442  22.947  0.00  0.00    -0.304 OA
ATOM     18  C   UNL d   1     -45.155  12.717  22.710  0.00  0.00     0.123 A 
ATOM     19  C   UNL d   1     -45.265  13.406  22.271  0.00  0.00     0.029 A 
ATOM     20  C   UNL d   1     -46.077  13.557  22.237  0.00  0.00     0.028 A 
ENDBRANCH  15  16
ENDBRANCH  14  15
ENDBRANCH  11  14
ENDBRANCH   1  11
TORSDOF 4
ENDMDL
MODEL 3
REMARK VINA RESULT:      -7.3      1.770      4.165
REMARK  4 active torsions:
REMARK  status: ('A' for Active; 'I' for Inactive)
REMARK    1  A    between atoms: C_2  and  S_1 
REMARK    2  A    between atoms: N_5  and  S_1 
REMARK    3  A    between atoms: C_13  and  N_5 
REMARK    4  A    between atoms: C_11  and  C_13 
ROOT
ATOM      1  C   UNL d   1     -47.345  12.856  22.932  0.00  0.00     0.105 A 
ATOM      2  C   UNL d   1     -47.191  12.144  23.306  0.00  0.00     0.012 A 
ATOM      3  C   UNL d   1     -46.729  13.265  22.564  0.00  0.00     0.012 A 
ATOM      4  C   UNL d   1     -45.961  12.959  22.573  0.00  0.00     0.001 A 
ATOM      5  C   UNL d   1     -46.429  11.833  23.319  0.00  0.00     0.001 A 
ATOM      6  C   UNL d   1     -45.810  12.240  22.952  0.00  0.00     0.000 A 
ATOM      7  C   UNL d   1     -47.805  11.736  23.674  0.00  0.00     0.001 C 
ATOM      8  C   UNL d   1     -46.884  13.984  22.186  0.00  0.00     0.001 C 
ATOM      9  C   UNL d   1     -46.273  11.116  23.696  0.00  0.00     0.000 C 
ATOM     10  C   UNL d   1     -45.346  13.367  22.206  0.00  0.00     0.000 C 
ENDROOT
BRANCH   1  11
ATOM     11  S   UNL d   1     -48.109  13.157  22.925  0.00  0.00     0.285 S 
ATOM     12  O   UNL d   1     -47.982  13.475  23.683  0.00  0.00    -0.198 OA
ATOM     13  O   UNL d   1     -48.227  12.843  22.184  0.00  0.00    -0.198 OA
BRANCH  11  14
ATOM     14  N   UNL d   1     -48.873  13.464  22.931  0.00  0.00    -0.155 NA
BRANCH  14  15
ATOM     15  C   UNL d   1     -49.010  14.231  23.199  0.00  0.00     0.137 C 
BRANCH  15  16
ATOM     16  C   UNL d   1     -49.782  14.503  23.274  0.00  0.00     0.120 A 
ATOM     17  O   UNL d   1     -50.564  14.248  23.278  0.00  0.00    -0.304 OA
ATOM     18  C   UNL d   1     -51.048  14.908  23.392  0.00  0.00     0.123 A 
ATOM     19  C   UNL d   1     -50.564  15.572  23.460  0.00  0.00     0.029 A 
ATOM     20  C   UNL d   1     -49.780  15.322  23.387  0.00  0.00     0.028 A 
ENDBRANCH  15  16
ENDBRANCH  14  15
ENDBRANCH  11  14
ENDBRANCH   1  11
TORSDOF 4
ENDMDL
MODEL 4
REMARK VINA RESULT:      -7.3      1.722      2.625
REMARK  4 active torsions:
REMARK  status: ('A' for Active; 'I' for Inactive)
REMARK    1  A    between atoms: C_2  and  S_1 
REMARK    2  A    between atoms: N_5  and  S_1 
REMARK    3  A    between atoms: C_13  and  N_5 
REMARK    4  A    between atoms: C_11  and  C_13 
ROOT
ATOM      1  C   UNL d   1     -48.669  13.507  22.467  0.00  0.00     0.105 A 
ATOM      2  C   UNL d   1     -48.686  14.320  22.563  0.00  0.00     0.012 A 
ATOM      3  C   UNL d   1     -49.366  13.104  22.281  0.00  0.00     0.012 A 
ATOM      4  C   UNL d   1     -50.076  13.518  22.192  0.00  0.00     0.001 A 
ATOM      5  C   UNL d   1     -49.389  14.738  22.476  0.00  0.00     0.001 A 
ATOM      6  C   UNL d   1     -50.088  14.338  22.290  0.00  0.00     0.000 A 
ATOM      7  C   UNL d   1     -47.991  14.722  22.749  0.00  0.00     0.001 C 
ATOM      8  C   UNL d   1     -49.349  12.283  22.184  0.00  0.00     0.001 C 
ATOM      9  C   UNL d   1     -49.406  15.557  22.573  0.00  0.00     0.000 C 
ATOM     10  C   UNL d   1     -50.771  13.115  22.007  0.00  0.00     0.000 C 
ENDROOT
BRANCH   1  11
ATOM     11  S   UNL d   1     -47.961  13.099  22.556  0.00  0.00     0.285 S 
ATOM     12  O   UNL d   1     -47.851  13.127  21.733  0.00  0.00    -0.198 OA
ATOM     13  O   UNL d   1     -48.076  13.076  23.362  0.00  0.00    -0.198 OA
BRANCH  11  14
ATOM     14  N   UNL d   1     -47.250  12.691  22.633  0.00  0.00    -0.155 NA
BRANCH  14  15
ATOM     15  C   UNL d   1     -47.101  12.242  23.307  0.00  0.00     0.137 C 
BRANCH  15  16
ATOM     16  C   UNL d   1     -46.382  11.851  23.383  0.00  0.00     0.120 A 
ATOM     17  O   UNL d   1     -45.571  11.959  23.302  0.00  0.00    -0.304 OA
ATOM     18  C   UNL d   1     -45.196  11.248  23.495  0.00  0.00     0.123 A 
ATOM     19  C   UNL d   1     -45.777  10.699  23.696  0.00  0.00     0.029 A 
ATOM     20  C   UNL d   1     -46.512  11.072  23.627  0.00  0.00     0.028 A 
ENDBRANCH  15  16
ENDBRANCH  14  15
ENDBRANCH  11  14
ENDBRANCH   1  11
TORSDOF 4
ENDMDL
