MODEL 1
REMARK VINA RESULT:      65.7      0.000      0.000
REMARK  3 active torsions:
REMARK  status: ('A' for Active; 'I' for Inactive)
REMARK    1  A    between atoms: N_2  and  S_1 
REMARK    2  A    between atoms: C_5  and  S_1 
REMARK    3  A    between atoms: C_4  and  N_3 
ROOT
ATOM      1  N   UNL d   1     -50.319  26.523  34.021  0.00  0.00    -0.226 N 
ATOM      2  N   UNL d   1     -51.315  25.239  33.735  0.00  0.00    -0.301 N 
ATOM      3  C   UNL d   1     -50.077  25.763  34.211  0.00  0.00     0.111 A 
ATOM      4  C   UNL d   1     -51.069  26.650  33.682  0.00  0.00     0.111 A 
ATOM      5  C   UNL d   1     -50.575  25.121  34.069  0.00  0.00     0.100 A 
ATOM      6  C   UNL d   1     -51.567  26.007  33.539  0.00  0.00     0.100 A 
ENDROOT
BRANCH   1   7
ATOM      7  S   UNL d   1     -49.821  27.166  34.164  0.00  0.00     0.271 S 
ATOM      8  O   UNL d   1     -49.767  27.304  33.353  0.00  0.00    -0.200 OA
ATOM      9  O   UNL d   1     -49.875  27.027  34.976  0.00  0.00    -0.200 OA
BRANCH   7  10
ATOM     10  C   UNL d   1     -49.323  27.808  34.306  0.00  0.00     0.104 A 
ATOM     11  C   UNL d   1     -49.528  28.555  34.039  0.00  0.00     0.015 A 
ATOM     12  C   UNL d   1     -49.031  29.197  34.182  0.00  0.00     0.030 A 
ATOM     13  C   UNL d   1     -48.329  29.090  34.591  0.00  0.00     0.140 A 
ATOM     14  C   UNL d   1     -48.114  28.334  34.865  0.00  0.00     0.030 A 
ATOM     15  F   UNL d   1     -47.831  29.733  34.734  0.00  0.00    -0.204 F 
ATOM     16  C   UNL d   1     -48.612  27.693  34.722  0.00  0.00     0.015 A 
ENDBRANCH   7  10
ENDBRANCH   1   7
BRANCH   2  17
ATOM     17  C   UNL d   1     -51.810  24.600  33.593  0.00  0.00     0.064 A 
ATOM     18  C   UNL d   1     -51.498  23.846  33.508  0.00  0.00     0.016 A 
ATOM     19  C   UNL d   1     -51.995  23.204  33.366  0.00  0.00     0.001 A 
ATOM     20  C   UNL d   1     -50.680  23.730  33.566  0.00  0.00     0.002 C 
ATOM     21  C   UNL d   1     -52.805  23.317  33.308  0.00  0.00     0.000 A 
ATOM     22  C   UNL d   1     -53.130  24.077  33.393  0.00  0.00     0.001 A 
ATOM     23  C   UNL d   1     -52.632  24.719  33.536  0.00  0.00     0.016 A 
ATOM     24  C   UNL d   1     -52.945  25.474  33.621  0.00  0.00     0.002 C 
ENDBRANCH   2  17
TORSDOF 3
ENDMDL
