MODEL 1
REMARK VINA RESULT:      -2.4      0.000      0.000
REMARK  5 active torsions:
REMARK  status: ('A' for Active; 'I' for Inactive)
REMARK    1  A    between atoms: N_8  and  S_1 
REMARK    2  A    between atoms: C_11  and  S_1 
REMARK    3  A    between atoms: S_2  and  C_10 
REMARK    4  A    between atoms: N_9  and  S_2 
REMARK    5  A    between atoms: N_20  and  C_5 
ROOT
ATOM      1  C   UNL d   1     -43.002  13.233  21.473  0.00  0.00     0.021 A 
ATOM      2  C   UNL d   1     -44.212  12.922  21.926  0.00  0.00     0.021 A 
ATOM      3  C   UNL d   1     -43.480  12.598  21.735  0.00  0.00     0.111 A 
ATOM      4  C   UNL d   1     -44.176  13.734  21.782  0.00  0.00     0.002 A 
ATOM      5  C   UNL d   1     -43.419  13.907  21.503  0.00  0.00     0.002 A 
ATOM      6  C   UNL d   1     -45.573  13.044  22.358  0.00  0.00     0.104 A 
ATOM      7  C   UNL d   1     -41.857  13.936  20.979  0.00  0.00     0.104 A 
ATOM      8  C   UNL d   1     -44.904  12.586  22.210  0.00  0.00     0.015 A 
ATOM      9  C   UNL d   1     -42.213  13.230  21.212  0.00  0.00     0.015 A 
ATOM     10  C   UNL d   1     -43.063  14.614  21.270  0.00  0.00     0.001 A 
ATOM     11  C   UNL d   1     -44.839  14.209  21.926  0.00  0.00     0.001 A 
ATOM     12  C   UNL d   1     -42.282  14.599  21.013  0.00  0.00     0.013 A 
ATOM     13  C   UNL d   1     -45.510  13.863  22.204  0.00  0.00     0.013 A 
ENDROOT
BRANCH   6  14
ATOM     14  S   UNL d   1     -46.287  12.703  22.650  0.00  0.00     0.271 S 
ATOM     15  O   UNL d   1     -45.959  12.689  23.433  0.00  0.00    -0.200 OA
ATOM     16  O   UNL d   1     -46.579  12.733  21.858  0.00  0.00    -0.200 OA
BRANCH  14  17
ATOM     17  N   UNL d   1     -46.989  12.372  22.912  0.00  0.00    -0.229 N 
ATOM     18  C   UNL d   1     -46.970  11.754  23.445  0.00  0.00     0.092 A 
ATOM     19  C   UNL d   1     -47.678  11.434  23.698  0.00  0.00     0.020 A 
ATOM     20  C   UNL d   1     -48.398  11.717  23.432  0.00  0.00     0.003 A 
ATOM     21  C   UNL d   1     -48.419  12.349  22.888  0.00  0.00     0.020 A 
ATOM     22  C   UNL d   1     -49.114  11.382  23.698  0.00  0.00     0.000 C 
ATOM     23  C   UNL d   1     -47.704  12.679  22.627  0.00  0.00     0.092 A 
ENDBRANCH  14  17
ENDBRANCH   6  14
BRANCH   3  24
ATOM     24  N   UNL d   1     -43.249  11.808  21.786  0.00  0.00    -0.096 NA
ATOM     25  O   UNL d   1     -43.075  11.504  22.546  0.00  0.00    -0.061 OA
ENDBRANCH   3  24
BRANCH   7  26
ATOM     26  S   UNL d   1     -41.069  13.966  20.712  0.00  0.00     0.271 S 
ATOM     27  O   UNL d   1     -40.807  14.072  21.506  0.00  0.00    -0.200 OA
ATOM     28  O   UNL d   1     -41.348  13.861  19.937  0.00  0.00    -0.200 OA
BRANCH  26  29
ATOM     29  N   UNL d   1     -40.270  13.998  20.455  0.00  0.00    -0.229 N 
ATOM     30  C   UNL d   1     -40.128  14.021  19.646  0.00  0.00     0.092 A 
ATOM     31  C   UNL d   1     -39.366  14.052  19.371  0.00  0.00     0.020 A 
ATOM     32  C   UNL d   1     -38.723  14.063  19.886  0.00  0.00     0.003 A 
ATOM     33  C   UNL d   1     -38.866  14.040  20.712  0.00  0.00     0.020 A 
ATOM     34  C   UNL d   1     -37.942  14.095  19.585  0.00  0.00     0.000 C 
ATOM     35  C   UNL d   1     -39.643  14.008  20.991  0.00  0.00     0.092 A 
ENDBRANCH  26  29
ENDBRANCH   7  26
TORSDOF 5
ENDMDL
MODEL 2
REMARK VINA RESULT:      -2.4      0.086      6.684
REMARK  5 active torsions:
REMARK  status: ('A' for Active; 'I' for Inactive)
REMARK    1  A    between atoms: N_8  and  S_1 
REMARK    2  A    between atoms: C_11  and  S_1 
REMARK    3  A    between atoms: S_2  and  C_10 
REMARK    4  A    between atoms: N_9  and  S_2 
REMARK    5  A    between atoms: N_20  and  C_5 
ROOT
ATOM      1  C   UNL d   1     -44.187  12.938  21.917  0.00  0.00     0.021 A 
ATOM      2  C   UNL d   1     -42.967  13.212  21.467  0.00  0.00     0.021 A 
ATOM      3  C   UNL d   1     -43.445  12.597  21.733  0.00  0.00     0.111 A 
ATOM      4  C   UNL d   1     -43.410  13.907  21.489  0.00  0.00     0.002 A 
ATOM      5  C   UNL d   1     -44.162  13.717  21.771  0.00  0.00     0.002 A 
ATOM      6  C   UNL d   1     -41.834  13.932  20.966  0.00  0.00     0.104 A 
ATOM      7  C   UNL d   1     -45.548  13.038  22.348  0.00  0.00     0.104 A 
ATOM      8  C   UNL d   1     -42.189  13.228  21.207  0.00  0.00     0.015 A 
ATOM      9  C   UNL d   1     -44.877  12.579  22.208  0.00  0.00     0.015 A 
ATOM     10  C   UNL d   1     -44.833  14.176  21.911  0.00  0.00     0.001 A 
ATOM     11  C   UNL d   1     -43.069  14.623  21.250  0.00  0.00     0.001 A 
ATOM     12  C   UNL d   1     -45.512  13.810  22.199  0.00  0.00     0.013 A 
ATOM     13  C   UNL d   1     -42.305  14.622  20.998  0.00  0.00     0.013 A 
ENDROOT
BRANCH   6  14
ATOM     14  S   UNL d   1     -41.035  13.955  20.698  0.00  0.00     0.271 S 
ATOM     15  O   UNL d   1     -40.782  14.186  21.474  0.00  0.00    -0.200 OA
ATOM     16  O   UNL d   1     -41.324  13.724  19.938  0.00  0.00    -0.200 OA
BRANCH  14  17
ATOM     17  N   UNL d   1     -40.266  13.971  20.417  0.00  0.00    -0.229 N 
ATOM     18  C   UNL d   1     -39.644  13.858  20.934  0.00  0.00     0.092 A 
ATOM     19  C   UNL d   1     -38.882  13.877  20.640  0.00  0.00     0.020 A 
ATOM     20  C   UNL d   1     -38.730  14.006  19.846  0.00  0.00     0.003 A 
ATOM     21  C   UNL d   1     -39.364  14.122  19.316  0.00  0.00     0.020 A 
ATOM     22  C   UNL d   1     -37.948  14.022  19.558  0.00  0.00     0.000 C 
ATOM     23  C   UNL d   1     -40.140  14.104  19.609  0.00  0.00     0.092 A 
ENDBRANCH  14  17
ENDBRANCH   6  14
BRANCH   3  24
ATOM     24  N   UNL d   1     -43.247  11.799  21.809  0.00  0.00    -0.096 NA
ATOM     25  O   UNL d   1     -42.960  11.541  22.552  0.00  0.00    -0.061 OA
ENDBRANCH   3  24
BRANCH   7  26
ATOM     26  S   UNL d   1     -46.255  12.709  22.639  0.00  0.00     0.271 S 
ATOM     27  O   UNL d   1     -46.507  12.558  21.850  0.00  0.00    -0.200 OA
ATOM     28  O   UNL d   1     -45.988  12.866  23.410  0.00  0.00    -0.200 OA
BRANCH  26  29
ATOM     29  N   UNL d   1     -46.973  12.374  22.921  0.00  0.00    -0.229 N 
ATOM     30  C   UNL d   1     -47.678  12.733  22.695  0.00  0.00     0.092 A 
ATOM     31  C   UNL d   1     -48.384  12.431  22.953  0.00  0.00     0.020 A 
ATOM     32  C   UNL d   1     -48.416  11.767  23.441  0.00  0.00     0.003 A 
ATOM     33  C   UNL d   1     -47.698  11.400  23.672  0.00  0.00     0.020 A 
ATOM     34  C   UNL d   1     -49.155  11.468  23.698  0.00  0.00     0.000 C 
ATOM     35  C   UNL d   1     -46.978  11.710  23.408  0.00  0.00     0.092 A 
ENDBRANCH  26  29
ENDBRANCH   7  26
TORSDOF 5
ENDMDL
MODEL 3
REMARK VINA RESULT:      -2.1      1.285      2.120
REMARK  5 active torsions:
REMARK  status: ('A' for Active; 'I' for Inactive)
REMARK    1  A    between atoms: N_8  and  S_1 
REMARK    2  A    between atoms: C_11  and  S_1 
REMARK    3  A    between atoms: S_2  and  C_10 
REMARK    4  A    between atoms: N_9  and  S_2 
REMARK    5  A    between atoms: N_20  and  C_5 
ROOT
ATOM      1  C   UNL d   1     -44.588  13.278  21.870  0.00  0.00     0.021 A 
ATOM      2  C   UNL d   1     -45.842  13.070  22.260  0.00  0.00     0.021 A 
ATOM      3  C   UNL d   1     -45.339  13.640  21.943  0.00  0.00     0.111 A 
ATOM      4  C   UNL d   1     -45.404  12.380  22.375  0.00  0.00     0.002 A 
ATOM      5  C   UNL d   1     -44.631  12.529  22.128  0.00  0.00     0.002 A 
ATOM      6  C   UNL d   1     -47.016  12.429  22.772  0.00  0.00     0.104 A 
ATOM      7  C   UNL d   1     -43.199  13.120  21.567  0.00  0.00     0.104 A 
ATOM      8  C   UNL d   1     -46.638  13.089  22.457  0.00  0.00     0.015 A 
ATOM      9  C   UNL d   1     -43.874  13.591  21.584  0.00  0.00     0.015 A 
ATOM     10  C   UNL d   1     -43.955  12.056  22.111  0.00  0.00     0.001 A 
ATOM     11  C   UNL d   1     -45.769  11.707  22.691  0.00  0.00     0.001 A 
ATOM     12  C   UNL d   1     -43.253  12.377  21.825  0.00  0.00     0.013 A 
ATOM     13  C   UNL d   1     -46.550  11.743  22.879  0.00  0.00     0.013 A 
ENDROOT
BRANCH   6  14
ATOM     14  S   UNL d   1     -47.834  12.443  22.977  0.00  0.00     0.271 S 
ATOM     15  O   UNL d   1     -47.649  12.871  23.685  0.00  0.00    -0.200 OA
ATOM     16  O   UNL d   1     -47.980  12.015  22.263  0.00  0.00    -0.200 OA
BRANCH  14  17
ATOM     17  N   UNL d   1     -48.633  12.444  23.157  0.00  0.00    -0.229 N 
ATOM     18  C   UNL d   1     -48.983  11.767  23.447  0.00  0.00     0.092 A 
ATOM     19  C   UNL d   1     -49.781  11.783  23.622  0.00  0.00     0.020 A 
ATOM     20  C   UNL d   1     -50.233  12.457  23.513  0.00  0.00     0.003 A 
ATOM     21  C   UNL d   1     -49.876  13.150  23.216  0.00  0.00     0.020 A 
ATOM     22  C   UNL d   1     -51.046  12.460  23.695  0.00  0.00     0.000 C 
ATOM     23  C   UNL d   1     -49.066  13.140  23.036  0.00  0.00     0.092 A 
ENDBRANCH  14  17
ENDBRANCH   6  14
BRANCH   3  24
ATOM     24  N   UNL d   1     -45.524  14.416  21.734  0.00  0.00    -0.096 NA
ATOM     25  O   UNL d   1     -45.672  14.959  22.354  0.00  0.00    -0.061 OA
ENDBRANCH   3  24
BRANCH   7  26
ATOM     26  S   UNL d   1     -42.468  13.404  21.286  0.00  0.00     0.271 S 
ATOM     27  O   UNL d   1     -42.418  13.923  21.947  0.00  0.00    -0.200 OA
ATOM     28  O   UNL d   1     -42.537  12.885  20.641  0.00  0.00    -0.200 OA
BRANCH  26  29
ATOM     29  N   UNL d   1     -41.730  13.699  21.012  0.00  0.00    -0.229 N 
ATOM     30  C   UNL d   1     -41.141  13.833  21.569  0.00  0.00     0.092 A 
ATOM     31  C   UNL d   1     -40.420  14.117  21.333  0.00  0.00     0.020 A 
ATOM     32  C   UNL d   1     -40.259  14.277  20.540  0.00  0.00     0.003 A 
ATOM     33  C   UNL d   1     -40.860  14.141  19.970  0.00  0.00     0.020 A 
ATOM     34  C   UNL d   1     -39.508  14.570  20.313  0.00  0.00     0.000 C 
ATOM     35  C   UNL d   1     -41.594  13.851  20.214  0.00  0.00     0.092 A 
ENDBRANCH  26  29
ENDBRANCH   7  26
TORSDOF 5
ENDMDL
MODEL 4
REMARK VINA RESULT:      -1.9      1.272      7.002
REMARK  5 active torsions:
REMARK  status: ('A' for Active; 'I' for Inactive)
REMARK    1  A    between atoms: N_8  and  S_1 
REMARK    2  A    between atoms: C_11  and  S_1 
REMARK    3  A    between atoms: S_2  and  C_10 
REMARK    4  A    between atoms: N_9  and  S_2 
REMARK    5  A    between atoms: N_20  and  C_5 
ROOT
ATOM      1  C   UNL d   1     -45.816  13.040  22.229  0.00  0.00     0.021 A 
ATOM      2  C   UNL d   1     -44.579  13.302  21.818  0.00  0.00     0.021 A 
ATOM      3  C   UNL d   1     -45.338  13.619  21.860  0.00  0.00     0.111 A 
ATOM      4  C   UNL d   1     -44.600  12.548  22.154  0.00  0.00     0.002 A 
ATOM      5  C   UNL d   1     -45.374  12.404  22.402  0.00  0.00     0.002 A 
ATOM      6  C   UNL d   1     -43.180  13.159  21.545  0.00  0.00     0.104 A 
ATOM      7  C   UNL d   1     -46.976  12.412  22.783  0.00  0.00     0.104 A 
ATOM      8  C   UNL d   1     -43.876  13.599  21.519  0.00  0.00     0.015 A 
ATOM      9  C   UNL d   1     -46.625  13.060  22.414  0.00  0.00     0.015 A 
ATOM     10  C   UNL d   1     -45.724  11.755  22.772  0.00  0.00     0.001 A 
ATOM     11  C   UNL d   1     -43.909  12.093  22.189  0.00  0.00     0.001 A 
ATOM     12  C   UNL d   1     -46.527  11.787  22.950  0.00  0.00     0.013 A 
ATOM     13  C   UNL d   1     -43.228  12.400  21.891  0.00  0.00     0.013 A 
ENDROOT
BRANCH   6  14
ATOM     14  S   UNL d   1     -42.454  13.460  21.239  0.00  0.00     0.271 S 
ATOM     15  O   UNL d   1     -42.355  12.754  20.780  0.00  0.00    -0.200 OA
ATOM     16  O   UNL d   1     -42.587  14.149  21.710  0.00  0.00    -0.200 OA
BRANCH  14  17
ATOM     17  N   UNL d   1     -41.752  13.772  20.955  0.00  0.00    -0.229 N 
ATOM     18  C   UNL d   1     -41.665  13.905  20.154  0.00  0.00     0.092 A 
ATOM     19  C   UNL d   1     -40.959  14.216  19.884  0.00  0.00     0.020 A 
ATOM     20  C   UNL d   1     -40.344  14.396  20.394  0.00  0.00     0.003 A 
ATOM     21  C   UNL d   1     -40.432  14.260  21.213  0.00  0.00     0.020 A 
ATOM     22  C   UNL d   1     -39.629  14.713  20.106  0.00  0.00     0.000 C 
ATOM     23  C   UNL d   1     -41.146  13.944  21.493  0.00  0.00     0.092 A 
ENDBRANCH  14  17
ENDBRANCH   6  14
BRANCH   3  24
ATOM     24  N   UNL d   1     -45.591  14.358  21.596  0.00  0.00    -0.096 NA
ATOM     25  O   UNL d   1     -45.806  14.924  22.175  0.00  0.00    -0.061 OA
ENDBRANCH   3  24
BRANCH   7  26
ATOM     26  S   UNL d   1     -47.785  12.401  22.982  0.00  0.00     0.271 S 
ATOM     27  O   UNL d   1     -47.957  12.020  22.250  0.00  0.00    -0.200 OA
ATOM     28  O   UNL d   1     -47.594  12.776  23.698  0.00  0.00    -0.200 OA
BRANCH  26  29
ATOM     29  N   UNL d   1     -48.604  12.384  23.171  0.00  0.00    -0.229 N 
ATOM     30  C   UNL d   1     -49.038  13.073  23.057  0.00  0.00     0.092 A 
ATOM     31  C   UNL d   1     -49.829  13.084  23.231  0.00  0.00     0.020 A 
ATOM     32  C   UNL d   1     -50.215  12.416  23.523  0.00  0.00     0.003 A 
ATOM     33  C   UNL d   1     -49.773  11.712  23.640  0.00  0.00     0.020 A 
ATOM     34  C   UNL d   1     -51.034  12.445  23.698  0.00  0.00     0.000 C 
ATOM     35  C   UNL d   1     -48.967  11.703  23.462  0.00  0.00     0.092 A 
ENDBRANCH  26  29
ENDBRANCH   7  26
TORSDOF 5
ENDMDL
