MODEL 1
REMARK VINA RESULT:      62.4      0.000      0.000
REMARK  5 active torsions:
REMARK  status: ('A' for Active; 'I' for Inactive)
REMARK    1  A    between atoms: C_2  and  S_1 
REMARK    2  A    between atoms: N_3  and  S_1 
REMARK    3  A    between atoms: C_18  and  N_7 
REMARK    4  A    between atoms: O_27  and  C_9 
REMARK    5  A    between atoms: C_17  and  C_18 
ROOT
ATOM      1  N   UNL d   1      13.520  14.929  -4.834  0.00  0.00    -0.226 N 
ATOM      2  N   UNL d   1      13.376  16.212  -5.869  0.00  0.00    -0.300 N 
ATOM      3  C   UNL d   1      13.040  15.576  -4.632  0.00  0.00     0.111 A 
ATOM      4  C   UNL d   1      13.926  14.930  -5.555  0.00  0.00     0.111 A 
ATOM      5  C   UNL d   1      12.972  16.215  -5.155  0.00  0.00     0.100 A 
ATOM      6  C   UNL d   1      13.857  15.565  -6.071  0.00  0.00     0.100 A 
ENDROOT
BRANCH   1   7
ATOM      7  S   UNL d   1      13.589  14.293  -4.315  0.00  0.00     0.273 S 
ATOM      8  O   UNL d   1      13.103  13.839  -4.816  0.00  0.00    -0.200 OA
ATOM      9  O   UNL d   1      14.069  14.740  -3.819  0.00  0.00    -0.200 OA
BRANCH   7  10
ATOM     10  C   UNL d   1      13.655  13.657  -3.800  0.00  0.00     0.128 A 
ATOM     11  C   UNL d   1      14.127  13.715  -3.122  0.00  0.00     0.044 A 
ATOM     12  C   UNL d   1      14.195  13.078  -2.603  0.00  0.00     0.141 A 
ATOM     13  F   UNL d   1      14.662  13.141  -1.936  0.00  0.00    -0.204 F 
ATOM     14  C   UNL d   1      13.787  12.371  -2.761  0.00  0.00     0.032 A 
ATOM     15  C   UNL d   1      13.318  12.312  -3.435  0.00  0.00     0.027 A 
ATOM     16  C   UNL d   1      13.247  12.950  -3.958  0.00  0.00     0.106 A 
BRANCH  16  17
ATOM     17  O   UNL d   1      12.775  12.883  -4.630  0.00  0.00    -0.327 OA
ATOM     18  C   UNL d   1      12.847  12.229  -5.119  0.00  0.00     0.181 C 
ENDBRANCH  16  17
ENDBRANCH   7  10
ENDBRANCH   1   7
BRANCH   2  19
ATOM     19  C   UNL d   1      13.308  16.849  -6.388  0.00  0.00     0.080 C 
BRANCH  19  20
ATOM     20  C   UNL d   1      13.625  17.588  -6.191  0.00  0.00     0.020 A 
ATOM     21  C   UNL d   1      13.220  18.277  -6.378  0.00  0.00     0.028 A 
ATOM     22  C   UNL d   1      13.538  19.012  -6.182  0.00  0.00     0.119 A 
ATOM     23  O   UNL d   1      13.268  19.783  -6.294  0.00  0.00    -0.300 OA
ATOM     24  C   UNL d   1      14.272  19.054  -5.793  0.00  0.00     0.119 A 
ATOM     25  C   UNL d   1      13.829  20.300  -5.978  0.00  0.00     0.304 A 
ATOM     26  O   UNL d   1      14.443  19.850  -5.671  0.00  0.00    -0.300 OA
ATOM     27  C   UNL d   1      14.676  18.360  -5.606  0.00  0.00     0.026 A 
ATOM     28  C   UNL d   1      14.359  17.630  -5.802  0.00  0.00     0.004 A 
ENDBRANCH  19  20
ENDBRANCH   2  19
TORSDOF 5
ENDMDL
MODEL 2
REMARK VINA RESULT:      64.1      2.966      6.083
REMARK  5 active torsions:
REMARK  status: ('A' for Active; 'I' for Inactive)
REMARK    1  A    between atoms: C_2  and  S_1 
REMARK    2  A    between atoms: N_3  and  S_1 
REMARK    3  A    between atoms: C_18  and  N_7 
REMARK    4  A    between atoms: O_27  and  C_9 
REMARK    5  A    between atoms: C_17  and  C_18 
ROOT
ATOM      1  N   UNL d   1      14.955  16.382  -2.505  0.00  0.00    -0.226 N 
ATOM      2  N   UNL d   1      14.949  15.660  -1.016  0.00  0.00    -0.300 N 
ATOM      3  C   UNL d   1      15.174  16.815  -1.830  0.00  0.00     0.111 A 
ATOM      4  C   UNL d   1      14.735  15.588  -2.427  0.00  0.00     0.111 A 
ATOM      5  C   UNL d   1      15.169  16.448  -1.088  0.00  0.00     0.100 A 
ATOM      6  C   UNL d   1      14.731  15.227  -1.690  0.00  0.00     0.100 A 
ENDROOT
BRANCH   1   7
ATOM      7  S   UNL d   1      14.960  16.746  -3.244  0.00  0.00     0.273 S 
ATOM      8  O   UNL d   1      15.762  16.543  -3.333  0.00  0.00    -0.200 OA
ATOM      9  O   UNL d   1      14.167  16.947  -3.157  0.00  0.00    -0.200 OA
BRANCH   7  10
ATOM     10  C   UNL d   1      14.967  17.108  -3.980  0.00  0.00     0.128 A 
ATOM     11  C   UNL d   1      15.150  17.913  -4.050  0.00  0.00     0.044 A 
ATOM     12  C   UNL d   1      15.157  18.278  -4.789  0.00  0.00     0.141 A 
ATOM     13  F   UNL d   1      15.338  19.073  -4.851  0.00  0.00    -0.204 F 
ATOM     14  C   UNL d   1      14.981  17.837  -5.470  0.00  0.00     0.032 A 
ATOM     15  C   UNL d   1      14.799  17.036  -5.403  0.00  0.00     0.027 A 
ATOM     16  C   UNL d   1      14.790  16.666  -4.662  0.00  0.00     0.106 A 
BRANCH  16  17
ATOM     17  O   UNL d   1      14.607  15.865  -4.603  0.00  0.00    -0.327 OA
ATOM     18  C   UNL d   1      14.546  15.407  -5.279  0.00  0.00     0.181 C 
ENDBRANCH  16  17
ENDBRANCH   7  10
ENDBRANCH   1   7
BRANCH   2  19
ATOM     19  C   UNL d   1      14.945  15.296  -0.275  0.00  0.00     0.080 C 
BRANCH  19  20
ATOM     20  C   UNL d   1      14.990  14.472  -0.212  0.00  0.00     0.020 A 
ATOM     21  C   UNL d   1      14.305  14.021  -0.182  0.00  0.00     0.028 A 
ATOM     22  C   UNL d   1      14.352  13.199  -0.119  0.00  0.00     0.119 A 
ATOM     23  O   UNL d   1      13.775  12.611  -0.078  0.00  0.00    -0.300 OA
ATOM     24  C   UNL d   1      15.095  12.829  -0.086  0.00  0.00     0.119 A 
ATOM     25  C   UNL d   1      14.157  11.881  -0.019  0.00  0.00     0.304 A 
ATOM     26  O   UNL d   1      14.966  12.018  -0.025  0.00  0.00    -0.300 OA
ATOM     27  C   UNL d   1      15.781  13.285  -0.117  0.00  0.00     0.026 A 
ATOM     28  C   UNL d   1      15.733  14.102  -0.180  0.00  0.00     0.004 A 
ENDBRANCH  19  20
ENDBRANCH   2  19
TORSDOF 5
ENDMDL
