MODEL 1
REMARK VINA RESULT:      57.4      0.000      0.000
REMARK  4 active torsions:
REMARK  status: ('A' for Active; 'I' for Inactive)
REMARK    1  A    between atoms: N_7  and  S_1 
REMARK    2  A    between atoms: C_8  and  S_1 
REMARK    3  A    between atoms: C_16  and  N_7 
REMARK    4  A    between atoms: C_15  and  C_16 
ROOT
ATOM      1  C   UNL d   1     -50.055  26.763  34.047  0.00  0.00     0.112 C 
ENDROOT
BRANCH   1   2
ATOM      2  C   UNL d   1     -49.519  27.365  34.218  0.00  0.00     0.020 A 
ATOM      3  C   UNL d   1     -49.353  27.566  35.006  0.00  0.00     0.003 A 
ATOM      4  C   UNL d   1     -48.815  28.172  35.170  0.00  0.00     0.018 A 
ATOM      5  C   UNL d   1     -48.543  28.490  35.883  0.00  0.00     0.019 A 
ATOM      6  C   UNL d   1     -48.441  28.578  34.556  0.00  0.00     0.064 A 
ATOM      7  C   UNL d   1     -48.007  29.086  35.708  0.00  0.00     0.064 A 
ATOM      8  C   UNL d   1     -47.604  29.549  36.260  0.00  0.00     0.019 C 
ATOM      9  N   UNL d   1     -47.945  29.140  34.889  0.00  0.00    -0.304 N 
ATOM     10  C   UNL d   1     -47.462  29.672  34.477  0.00  0.00     0.099 C 
ATOM     11  C   UNL d   1     -48.602  28.382  33.774  0.00  0.00     0.018 A 
ATOM     12  C   UNL d   1     -49.142  27.776  33.598  0.00  0.00     0.003 A 
ENDBRANCH   1   2
BRANCH   1  13
ATOM     13  N   UNL d   1     -50.496  26.784  33.352  0.00  0.00    -0.157 NA
BRANCH  13  14
ATOM     14  S   UNL d   1     -51.252  26.458  33.330  0.00  0.00     0.285 S 
ATOM     15  O   UNL d   1     -52.071  26.341  33.306  0.00  0.00    -0.198 OA
ATOM     16  O   UNL d   1     -51.373  27.281  33.329  0.00  0.00    -0.198 OA
BRANCH  14  17
ATOM     17  C   UNL d   1     -51.353  25.645  33.324  0.00  0.00     0.105 A 
ATOM     18  C   UNL d   1     -52.115  25.330  33.329  0.00  0.00     0.013 A 
ATOM     19  C   UNL d   1     -52.220  24.506  33.323  0.00  0.00     0.001 A 
ATOM     20  C   UNL d   1     -51.562  24.008  33.312  0.00  0.00     0.000 A 
ATOM     21  C   UNL d   1     -50.796  24.334  33.306  0.00  0.00     0.001 A 
ATOM     22  C   UNL d   1     -51.662  23.190  33.306  0.00  0.00     0.000 C 
ATOM     23  C   UNL d   1     -50.700  25.149  33.312  0.00  0.00     0.013 A 
ENDBRANCH  14  17
ENDBRANCH  13  14
ENDBRANCH   1  13
TORSDOF 4
ENDMDL
MODEL 2
REMARK VINA RESULT:      58.5      1.177      1.684
REMARK  4 active torsions:
REMARK  status: ('A' for Active; 'I' for Inactive)
REMARK    1  A    between atoms: N_7  and  S_1 
REMARK    2  A    between atoms: C_8  and  S_1 
REMARK    3  A    between atoms: C_16  and  N_7 
REMARK    4  A    between atoms: C_15  and  C_16 
ROOT
ATOM      1  C   UNL d   1     -48.826  27.460  34.361  0.00  0.00     0.112 C 
ENDROOT
BRANCH   1   2
ATOM      2  C   UNL d   1     -48.596  28.232  34.533  0.00  0.00     0.020 A 
ATOM      3  C   UNL d   1     -48.130  28.390  35.202  0.00  0.00     0.003 A 
ATOM      4  C   UNL d   1     -47.902  29.167  35.368  0.00  0.00     0.018 A 
ATOM      5  C   UNL d   1     -47.449  29.490  35.979  0.00  0.00     0.019 A 
ATOM      6  C   UNL d   1     -48.133  29.787  34.874  0.00  0.00     0.064 A 
ATOM      7  C   UNL d   1     -47.403  30.302  35.861  0.00  0.00     0.064 A 
ATOM      8  C   UNL d   1     -47.002  30.837  36.345  0.00  0.00     0.019 C 
ATOM      9  N   UNL d   1     -47.826  30.484  35.179  0.00  0.00    -0.304 N 
ATOM     10  C   UNL d   1     -47.921  31.242  34.860  0.00  0.00     0.099 C 
ATOM     11  C   UNL d   1     -48.595  29.635  34.210  0.00  0.00     0.018 A 
ATOM     12  C   UNL d   1     -48.830  28.858  34.034  0.00  0.00     0.003 A 
ENDBRANCH   1   2
BRANCH   1  13
ATOM     13  N   UNL d   1     -49.482  27.319  33.882  0.00  0.00    -0.157 NA
BRANCH  13  14
ATOM     14  S   UNL d   1     -49.635  26.561  33.600  0.00  0.00     0.285 S 
ATOM     15  O   UNL d   1     -49.570  25.790  33.306  0.00  0.00    -0.198 OA
ATOM     16  O   UNL d   1     -48.806  26.629  33.596  0.00  0.00    -0.198 OA
BRANCH  14  17
ATOM     17  C   UNL d   1     -50.405  26.293  33.527  0.00  0.00     0.105 A 
ATOM     18  C   UNL d   1     -50.551  25.484  33.462  0.00  0.00     0.013 A 
ATOM     19  C   UNL d   1     -51.331  25.210  33.388  0.00  0.00     0.001 A 
ATOM     20  C   UNL d   1     -51.957  25.749  33.379  0.00  0.00     0.000 A 
ATOM     21  C   UNL d   1     -51.802  26.565  33.445  0.00  0.00     0.001 A 
ATOM     22  C   UNL d   1     -52.732  25.481  33.306  0.00  0.00     0.000 C 
ATOM     23  C   UNL d   1     -51.028  26.827  33.518  0.00  0.00     0.013 A 
ENDBRANCH  14  17
ENDBRANCH  13  14
ENDBRANCH   1  13
TORSDOF 4
ENDMDL
