MODEL 1
REMARK VINA RESULT:      -5.6      0.000      0.000
REMARK  3 active torsions:
REMARK  status: ('A' for Active; 'I' for Inactive)
REMARK    1  A    between atoms: N_2  and  S_1 
REMARK    2  A    between atoms: N_4  and  S_1 
REMARK    3  A    between atoms: C_9  and  N_3 
ROOT
ATOM      1  N   UNL d   1     -41.568-122.916 -52.348  0.00  0.00    -0.213 N 
ATOM      2  N   UNL d   1     -41.739-123.013 -50.715  0.00  0.00    -0.301 N 
ATOM      3  C   UNL d   1     -41.433-123.621 -51.967  0.00  0.00     0.112 A 
ATOM      4  C   UNL d   1     -41.796-122.223 -51.923  0.00  0.00     0.112 A 
ATOM      5  C   UNL d   1     -41.519-123.670 -51.148  0.00  0.00     0.100 A 
ATOM      6  C   UNL d   1     -41.882-122.272 -51.103  0.00  0.00     0.100 A 
ENDROOT
BRANCH   2   7
ATOM      7  C   UNL d   1     -41.826-123.061 -49.891  0.00  0.00     0.064 A 
ATOM      8  C   UNL d   1     -42.586-123.023 -49.564  0.00  0.00     0.018 A 
ATOM      9  C   UNL d   1     -42.677-123.071 -48.741  0.00  0.00     0.013 A 
ATOM     10  C   UNL d   1     -42.019-123.156 -48.255  0.00  0.00     0.058 A 
ATOM     11  C   UNL d   1     -41.257-123.194 -48.595  0.00  0.00     0.013 A 
ATOM     12 CL   UNL d   1     -42.109-123.205 -47.433  0.00  0.00    -0.082 Cl
ATOM     13  C   UNL d   1     -41.167-123.146 -49.410  0.00  0.00     0.018 A 
ENDBRANCH   2   7
BRANCH   1  14
ATOM     14  S   UNL d   1     -41.480-122.867 -53.184  0.00  0.00     0.337 S 
ATOM     15  O   UNL d   1     -41.747-123.484 -53.667  0.00  0.00    -0.181 OA
ATOM     16  O   UNL d   1     -41.124-122.198 -53.526  0.00  0.00    -0.181 OA
BRANCH  14  17
ATOM     17  N   UNL d   1     -41.489-123.011 -54.004  0.00  0.00    -0.213 N 
ATOM     18  C   UNL d   1     -41.857-122.482 -54.510  0.00  0.00     0.113 C 
ATOM     19  C   UNL d   1     -41.123-123.694 -54.309  0.00  0.00     0.113 C 
ENDBRANCH  14  17
ENDBRANCH   1  14
TORSDOF 3
ENDMDL
MODEL 2
REMARK VINA RESULT:      -5.0      2.529      4.408
REMARK  3 active torsions:
REMARK  status: ('A' for Active; 'I' for Inactive)
REMARK    1  A    between atoms: N_2  and  S_1 
REMARK    2  A    between atoms: N_4  and  S_1 
REMARK    3  A    between atoms: C_9  and  N_3 
ROOT
ATOM      1  N   UNL d   1     -41.574-122.950 -50.739  0.00  0.00    -0.213 N 
ATOM      2  N   UNL d   1     -41.564-122.736 -52.370  0.00  0.00    -0.301 N 
ATOM      3  C   UNL d   1     -41.268-123.527 -51.223  0.00  0.00     0.112 A 
ATOM      4  C   UNL d   1     -41.891-122.235 -51.056  0.00  0.00     0.112 A 
ATOM      5  C   UNL d   1     -41.263-123.420 -52.041  0.00  0.00     0.100 A 
ATOM      6  C   UNL d   1     -41.887-122.127 -51.874  0.00  0.00     0.100 A 
ENDROOT
BRANCH   2   7
ATOM      7  C   UNL d   1     -41.560-122.628 -53.193  0.00  0.00     0.064 A 
ATOM      8  C   UNL d   1     -41.955-121.974 -53.515  0.00  0.00     0.018 A 
ATOM      9  C   UNL d   1     -41.952-121.862 -54.336  0.00  0.00     0.013 A 
ATOM     10  C   UNL d   1     -41.561-122.395 -54.827  0.00  0.00     0.058 A 
ATOM     11  C   UNL d   1     -41.167-123.050 -54.492  0.00  0.00     0.013 A 
ATOM     12 CL   UNL d   1     -41.559-122.283 -55.648  0.00  0.00    -0.082 Cl
ATOM     13  C   UNL d   1     -41.169-123.161 -53.678  0.00  0.00     0.018 A 
ENDBRANCH   2   7
BRANCH   1  14
ATOM     14  S   UNL d   1     -41.579-123.060 -49.904  0.00  0.00     0.337 S 
ATOM     15  O   UNL d   1     -42.037-123.661 -49.567  0.00  0.00    -0.181 OA
ATOM     16  O   UNL d   1     -41.123-122.565 -49.418  0.00  0.00    -0.181 OA
BRANCH  14  17
ATOM     17  N   UNL d   1     -41.720-123.329 -49.129  0.00  0.00    -0.213 N 
ATOM     18  C   UNL d   1     -42.445-123.191 -48.773  0.00  0.00     0.113 C 
ATOM     19  C   UNL d   1     -41.123-123.738 -48.717  0.00  0.00     0.113 C 
ENDBRANCH  14  17
ENDBRANCH   1  14
TORSDOF 3
ENDMDL
MODEL 3
REMARK VINA RESULT:      -4.8      2.795      4.468
REMARK  3 active torsions:
REMARK  status: ('A' for Active; 'I' for Inactive)
REMARK    1  A    between atoms: N_2  and  S_1 
REMARK    2  A    between atoms: N_4  and  S_1 
REMARK    3  A    between atoms: C_9  and  N_3 
ROOT
ATOM      1  N   UNL d   1     -41.700-123.298 -49.538  0.00  0.00    -0.213 N 
ATOM      2  N   UNL d   1     -41.507-123.127 -51.163  0.00  0.00    -0.301 N 
ATOM      3  C   UNL d   1     -41.227-123.817 -49.947  0.00  0.00     0.112 A 
ATOM      4  C   UNL d   1     -42.099-122.665 -49.930  0.00  0.00     0.112 A 
ATOM      5  C   UNL d   1     -41.130-123.731 -50.762  0.00  0.00     0.100 A 
ATOM      6  C   UNL d   1     -42.003-122.579 -50.745  0.00  0.00     0.100 A 
ENDROOT
BRANCH   2   7
ATOM      7  C   UNL d   1     -41.409-123.041 -51.982  0.00  0.00     0.064 A 
ATOM      8  C   UNL d   1     -41.489-122.288 -52.320  0.00  0.00     0.018 A 
ATOM      9  C   UNL d   1     -41.392-122.198 -53.138  0.00  0.00     0.013 A 
ATOM     10  C   UNL d   1     -41.219-122.849 -53.610  0.00  0.00     0.058 A 
ATOM     11  C   UNL d   1     -41.141-123.603 -53.260  0.00  0.00     0.013 A 
ATOM     12 CL   UNL d   1     -41.123-122.760 -54.429  0.00  0.00    -0.082 Cl
ATOM     13  C   UNL d   1     -41.237-123.693 -52.449  0.00  0.00     0.018 A 
ENDBRANCH   2   7
BRANCH   1  14
ATOM     14  S   UNL d   1     -41.799-123.385 -48.706  0.00  0.00     0.337 S 
ATOM     15  O   UNL d   1     -42.460-123.059 -48.330  0.00  0.00    -0.181 OA
ATOM     16  O   UNL d   1     -41.232-123.800 -48.262  0.00  0.00    -0.181 OA
BRANCH  14  17
ATOM     17  N   UNL d   1     -42.076-123.358 -47.922  0.00  0.00    -0.213 N 
ATOM     18  C   UNL d   1     -42.741-123.786 -47.708  0.00  0.00     0.113 C 
ATOM     19  C   UNL d   1     -41.677-122.895 -47.356  0.00  0.00     0.113 C 
ENDBRANCH  14  17
ENDBRANCH   1  14
TORSDOF 3
ENDMDL
MODEL 4
REMARK VINA RESULT:      -2.8      2.604      4.539
REMARK  3 active torsions:
REMARK  status: ('A' for Active; 'I' for Inactive)
REMARK    1  A    between atoms: N_2  and  S_1 
REMARK    2  A    between atoms: N_4  and  S_1 
REMARK    3  A    between atoms: C_9  and  N_3 
ROOT
ATOM      1  N   UNL d   1     -41.837-122.572 -50.942  0.00  0.00    -0.213 N 
ATOM      2  N   UNL d   1     -41.837-122.380 -52.576  0.00  0.00    -0.301 N 
ATOM      3  C   UNL d   1     -42.506-122.744 -51.371  0.00  0.00     0.112 A 
ATOM      4  C   UNL d   1     -41.134-122.294 -51.319  0.00  0.00     0.112 A 
ATOM      5  C   UNL d   1     -42.506-122.648 -52.191  0.00  0.00     0.100 A 
ATOM      6  C   UNL d   1     -41.134-122.198 -52.138  0.00  0.00     0.100 A 
ENDROOT
BRANCH   2   7
ATOM      7  C   UNL d   1     -41.837-122.284 -53.400  0.00  0.00     0.064 A 
ATOM      8  C   UNL d   1     -41.322-122.743 -53.859  0.00  0.00     0.018 A 
ATOM      9  C   UNL d   1     -41.319-122.649 -54.683  0.00  0.00     0.013 A 
ATOM     10  C   UNL d   1     -41.823-122.106 -55.041  0.00  0.00     0.058 A 
ATOM     11  C   UNL d   1     -42.338-121.649 -54.569  0.00  0.00     0.013 A 
ATOM     12 CL   UNL d   1     -41.820-122.013 -55.865  0.00  0.00    -0.082 Cl
ATOM     13  C   UNL d   1     -42.341-121.741 -53.754  0.00  0.00     0.018 A 
ENDBRANCH   2   7
BRANCH   1  14
ATOM     14  S   UNL d   1     -41.837-122.670 -50.106  0.00  0.00     0.337 S 
ATOM     15  O   UNL d   1     -41.156-122.938 -49.720  0.00  0.00    -0.181 OA
ATOM     16  O   UNL d   1     -42.522-122.498 -49.668  0.00  0.00    -0.181 OA
BRANCH  14  17
ATOM     17  N   UNL d   1     -41.633-122.829 -49.315  0.00  0.00    -0.213 N 
ATOM     18  C   UNL d   1     -41.262-122.255 -48.864  0.00  0.00     0.113 C 
ATOM     19  C   UNL d   1     -41.808-123.573 -48.983  0.00  0.00     0.113 C 
ENDBRANCH  14  17
ENDBRANCH   1  14
TORSDOF 3
ENDMDL
