MODEL 1
REMARK VINA RESULT:      44.3      0.000      0.000
REMARK  8 active torsions:
REMARK  status: ('A' for Active; 'I' for Inactive)
REMARK    1  A    between atoms: C_2  and  C_1 
REMARK    2  A    between atoms: C_3  and  C_1 
REMARK    3  A    between atoms: C_5  and  C_1 
REMARK    4  A    between atoms: N_4  and  C_6 
REMARK    5  A    between atoms: C_7  and  N_4 
REMARK    6  A    between atoms: C_8  and  N_4 
REMARK    7  A    between atoms: C_20  and  C_7 
REMARK    8  A    between atoms: C_21  and  C_8 
ROOT
ATOM      1  C   UNL d   1      14.756  15.407  -2.233  0.00  0.00     0.044 A 
ATOM      2  C   UNL d   1      14.170  13.885  -2.518  0.00  0.00     0.064 A 
ATOM      3  C   UNL d   1      14.634  14.888  -1.599  0.00  0.00     0.004 A 
ATOM      4  C   UNL d   1      14.586  15.166  -3.002  0.00  0.00     0.004 A 
ATOM      5  C   UNL d   1      14.340  14.124  -1.740  0.00  0.00     0.018 A 
ATOM      6  C   UNL d   1      14.292  14.402  -3.144  0.00  0.00     0.018 A 
ENDROOT
BRANCH   2   7
ATOM      7  N   UNL d   1      13.880  13.131  -2.657  0.00  0.00    -0.304 N 
BRANCH   7   8
ATOM      8  C   UNL d   1      14.297  12.474  -2.395  0.00  0.00     0.080 C 
BRANCH   8   9
ATOM      9  C   UNL d   1      14.265  12.245  -1.611  0.00  0.00     0.018 A 
ATOM     10  C   UNL d   1      14.957  12.246  -1.163  0.00  0.00     0.002 A 
ATOM     11  C   UNL d   1      14.941  12.014  -0.361  0.00  0.00     0.000 A 
ATOM     12  C   UNL d   1      14.216  11.781  -0.015  0.00  0.00     0.000 A 
ATOM     13  C   UNL d   1      13.523  11.780  -0.463  0.00  0.00     0.000 A 
ATOM     14  C   UNL d   1      13.551  12.013  -1.265  0.00  0.00     0.002 A 
ENDBRANCH   8   9
ENDBRANCH   7   8
BRANCH   7  15
ATOM     15  C   UNL d   1      13.174  13.029  -3.059  0.00  0.00     0.080 C 
BRANCH  15  16
ATOM     16  C   UNL d   1      13.175  12.758  -3.830  0.00  0.00     0.018 A 
ATOM     17  C   UNL d   1      13.578  13.174  -4.422  0.00  0.00     0.002 A 
ATOM     18  C   UNL d   1      13.579  12.901  -5.200  0.00  0.00     0.000 A 
ATOM     19  C   UNL d   1      13.177  12.209  -5.394  0.00  0.00     0.000 A 
ATOM     20  C   UNL d   1      12.769  11.783  -4.808  0.00  0.00     0.000 A 
ATOM     21  C   UNL d   1      12.776  12.070  -4.025  0.00  0.00     0.002 A 
ENDBRANCH  15  16
ENDBRANCH   7  15
ENDBRANCH   2   7
BRANCH   1  22
ATOM     22  C   UNL d   1      15.047  16.166  -2.093  0.00  0.00     0.297 C 
ATOM     23  O   UNL d   1      15.339  16.924  -1.953  0.00  0.00    -0.281 OA
BRANCH  22  24
ATOM     24  C   UNL d   1      15.060  16.309  -2.897  0.00  0.00     0.457 C 
ATOM     25  F   UNL d   1      15.574  15.672  -3.003  0.00  0.00    -0.163 F 
ATOM     26  F   UNL d   1      14.547  16.947  -2.792  0.00  0.00    -0.163 F 
ATOM     27  F   UNL d   1      15.073  16.454  -3.709  0.00  0.00    -0.163 F 
ENDBRANCH  22  24
BRANCH  22  28
ATOM     28  C   UNL d   1      15.034  16.019  -1.272  0.00  0.00     0.457 C 
ATOM     29  F   UNL d   1      15.022  15.875  -0.469  0.00  0.00    -0.163 F 
ATOM     30  F   UNL d   1      14.417  16.559  -1.186  0.00  0.00    -0.163 F 
ATOM     31  F   UNL d   1      15.652  15.479  -1.359  0.00  0.00    -0.163 F 
ENDBRANCH  22  28
ENDBRANCH   1  22
TORSDOF 8
ENDMDL
MODEL 2
REMARK VINA RESULT:      46.2      2.141      3.846
REMARK  8 active torsions:
REMARK  status: ('A' for Active; 'I' for Inactive)
REMARK    1  A    between atoms: C_2  and  C_1 
REMARK    2  A    between atoms: C_3  and  C_1 
REMARK    3  A    between atoms: C_5  and  C_1 
REMARK    4  A    between atoms: N_4  and  C_6 
REMARK    5  A    between atoms: C_7  and  N_4 
REMARK    6  A    between atoms: C_8  and  N_4 
REMARK    7  A    between atoms: C_20  and  C_7 
REMARK    8  A    between atoms: C_21  and  C_8 
ROOT
ATOM      1  C   UNL d   1      13.596  13.537  -4.000  0.00  0.00     0.044 A 
ATOM      2  C   UNL d   1      14.184  14.016  -2.529  0.00  0.00     0.064 A 
ATOM      3  C   UNL d   1      13.838  14.322  -3.890  0.00  0.00     0.004 A 
ATOM      4  C   UNL d   1      13.648  12.997  -3.380  0.00  0.00     0.004 A 
ATOM      5  C   UNL d   1      14.133  14.564  -3.152  0.00  0.00     0.018 A 
ATOM      6  C   UNL d   1      13.943  13.239  -2.642  0.00  0.00     0.018 A 
ENDROOT
BRANCH   2   7
ATOM      7  N   UNL d   1      14.475  14.254  -1.801  0.00  0.00    -0.304 N 
BRANCH   7   8
ATOM      8  C   UNL d   1      15.044  13.804  -1.416  0.00  0.00     0.080 C 
BRANCH   8   9
ATOM      9  C   UNL d   1      14.831  13.148  -0.978  0.00  0.00     0.018 A 
ATOM     10  C   UNL d   1      15.279  12.458  -1.043  0.00  0.00     0.002 A 
ATOM     11  C   UNL d   1      15.074  11.779  -0.602  0.00  0.00     0.000 A 
ATOM     12  C   UNL d   1      14.411  11.804  -0.094  0.00  0.00     0.000 A 
ATOM     13  C   UNL d   1      13.963  12.494  -0.028  0.00  0.00     0.000 A 
ATOM     14  C   UNL d   1      14.176  13.167  -0.474  0.00  0.00     0.002 A 
ENDBRANCH   8   9
ENDBRANCH   7   8
BRANCH   7  15
ATOM     15  C   UNL d   1      14.200  14.943  -1.453  0.00  0.00     0.080 C 
BRANCH  15  16
ATOM     16  C   UNL d   1      14.718  15.551  -1.279  0.00  0.00     0.018 A 
ATOM     17  C   UNL d   1      14.772  16.213  -1.773  0.00  0.00     0.002 A 
ATOM     18  C   UNL d   1      15.295  16.826  -1.597  0.00  0.00     0.000 A 
ATOM     19  C   UNL d   1      15.770  16.783  -0.926  0.00  0.00     0.000 A 
ATOM     20  C   UNL d   1      15.725  16.123  -0.422  0.00  0.00     0.000 A 
ATOM     21  C   UNL d   1      15.192  15.510  -0.611  0.00  0.00     0.002 A 
ENDBRANCH  15  16
ENDBRANCH   7  15
ENDBRANCH   2   7
BRANCH   1  22
ATOM     22  C   UNL d   1      13.303  13.296  -4.733  0.00  0.00     0.297 C 
ATOM     23  O   UNL d   1      13.010  13.056  -5.466  0.00  0.00    -0.281 OA
BRANCH  22  24
ATOM     24  C   UNL d   1      13.192  12.542  -4.441  0.00  0.00     0.457 C 
ATOM     25  F   UNL d   1      13.548  12.228  -5.116  0.00  0.00    -0.163 F 
ATOM     26  F   UNL d   1      12.836  12.855  -3.766  0.00  0.00    -0.163 F 
ATOM     27  F   UNL d   1      13.080  11.779  -4.146  0.00  0.00    -0.163 F 
ENDBRANCH  22  24
BRANCH  22  28
ATOM     28  C   UNL d   1      13.417  14.067  -5.031  0.00  0.00     0.457 C 
ATOM     29  F   UNL d   1      13.528  14.821  -5.323  0.00  0.00    -0.163 F 
ATOM     30  F   UNL d   1      12.772  14.333  -4.590  0.00  0.00    -0.163 F 
ATOM     31  F   UNL d   1      14.062  13.801  -5.472  0.00  0.00    -0.163 F 
ENDBRANCH  22  28
ENDBRANCH   1  22
TORSDOF 8
ENDMDL
