MODEL 1
REMARK VINA RESULT:      -3.5      0.000      0.000
REMARK  4 active torsions:
REMARK  status: ('A' for Active; 'I' for Inactive)
REMARK    1  A    between atoms: C_2  and  S_1 
REMARK    2  A    between atoms: N_4  and  S_1 
REMARK    3  A    between atoms: O_12  and  C_5 
REMARK    4  A    between atoms: O_13  and  C_7 
ROOT
ATOM      1  C   UNL d   1     -41.647-122.818 -51.765  0.00  0.00     0.128 A 
ATOM      2  C   UNL d   1     -41.746-123.397 -52.345  0.00  0.00     0.040 A 
ATOM      3  C   UNL d   1     -41.376-122.070 -51.968  0.00  0.00     0.107 A 
ATOM      4  C   UNL d   1     -41.201-121.896 -52.753  0.00  0.00     0.034 A 
ATOM      5  C   UNL d   1     -41.571-123.223 -53.130  0.00  0.00     0.101 A 
ATOM      6  C   UNL d   1     -41.297-122.469 -53.340  0.00  0.00     0.059 A 
ATOM      7 BR   UNL d   1     -41.123-122.296 -54.122  0.00  0.00    -0.047 Br
ENDROOT
BRANCH   1   8
ATOM      8  S   UNL d   1     -41.823-122.994 -50.975  0.00  0.00     0.273 S 
ATOM      9  O   UNL d   1     -41.127-123.430 -50.917  0.00  0.00    -0.200 OA
ATOM     10  O   UNL d   1     -42.523-122.555 -51.034  0.00  0.00    -0.200 OA
BRANCH   8  11
ATOM     11  N   UNL d   1     -41.998-123.168 -50.189  0.00  0.00    -0.229 N 
ATOM     12  C   UNL d   1     -42.789-123.093 -49.971  0.00  0.00     0.092 A 
ATOM     13  C   UNL d   1     -43.139-123.224 -49.236  0.00  0.00     0.020 A 
ATOM     14  C   UNL d   1     -42.786-123.466 -48.530  0.00  0.00     0.002 A 
ATOM     15  C   UNL d   1     -41.988-123.634 -48.394  0.00  0.00     0.002 A 
ATOM     16  C   UNL d   1     -41.356-123.604 -48.919  0.00  0.00     0.020 A 
ATOM     17  C   UNL d   1     -41.353-123.397 -49.719  0.00  0.00     0.092 A 
ENDBRANCH   8  11
ENDBRANCH   1   8
BRANCH   3  18
ATOM     18  O   UNL d   1     -41.279-121.499 -51.390  0.00  0.00    -0.327 OA
ATOM     19  C   UNL d   1     -41.125-120.717 -51.603  0.00  0.00     0.181 C 
ENDBRANCH   3  18
BRANCH   5  20
ATOM     20  O   UNL d   1     -41.668-123.794 -53.708  0.00  0.00    -0.328 OA
ATOM     21  C   UNL d   1     -42.353-123.812 -54.156  0.00  0.00     0.181 C 
ENDBRANCH   5  20
TORSDOF 4
ENDMDL
MODEL 2
REMARK VINA RESULT:      -3.2      1.810      3.819
REMARK  4 active torsions:
REMARK  status: ('A' for Active; 'I' for Inactive)
REMARK    1  A    between atoms: C_2  and  S_1 
REMARK    2  A    between atoms: N_4  and  S_1 
REMARK    3  A    between atoms: O_12  and  C_5 
REMARK    4  A    between atoms: O_13  and  C_7 
ROOT
ATOM      1  C   UNL d   1     -41.733-122.351 -51.942  0.00  0.00     0.128 A 
ATOM      2  C   UNL d   1     -41.972-123.033 -51.545  0.00  0.00     0.040 A 
ATOM      3  C   UNL d   1     -41.440-121.708 -51.522  0.00  0.00     0.107 A 
ATOM      4  C   UNL d   1     -41.385-121.744 -50.702  0.00  0.00     0.034 A 
ATOM      5  C   UNL d   1     -41.918-123.069 -50.724  0.00  0.00     0.101 A 
ATOM      6  C   UNL d   1     -41.623-122.423 -50.296  0.00  0.00     0.059 A 
ATOM      7 BR   UNL d   1     -41.568-122.459 -49.479  0.00  0.00    -0.047 Br
ENDROOT
BRANCH   1   8
ATOM      8  S   UNL d   1     -41.788-122.315 -52.767  0.00  0.00     0.273 S 
ATOM      9  O   UNL d   1     -42.450-121.828 -52.702  0.00  0.00    -0.200 OA
ATOM     10  O   UNL d   1     -41.123-122.803 -52.833  0.00  0.00    -0.200 OA
BRANCH   8  11
ATOM     11  N   UNL d   1     -41.843-122.279 -53.589  0.00  0.00    -0.229 N 
ATOM     12  C   UNL d   1     -42.420-121.774 -53.889  0.00  0.00     0.092 A 
ATOM     13  C   UNL d   1     -42.612-121.616 -54.675  0.00  0.00     0.020 A 
ATOM     14  C   UNL d   1     -42.276-121.923 -55.363  0.00  0.00     0.002 A 
ATOM     15  C   UNL d   1     -41.658-122.470 -55.424  0.00  0.00     0.002 A 
ATOM     16  C   UNL d   1     -41.231-122.837 -54.825  0.00  0.00     0.020 A 
ATOM     17  C   UNL d   1     -41.307-122.757 -54.007  0.00  0.00     0.092 A 
ENDBRANCH   8  11
ENDBRANCH   1   8
BRANCH   3  18
ATOM     18  O   UNL d   1     -41.203-121.033 -51.920  0.00  0.00    -0.327 OA
ATOM     19  C   UNL d   1     -41.123-120.320 -51.513  0.00  0.00     0.181 C 
ENDBRANCH   3  18
BRANCH   5  20
ATOM     20  O   UNL d   1     -42.154-123.744 -50.327  0.00  0.00    -0.328 OA
ATOM     21  C   UNL d   1     -42.865-123.752 -49.919  0.00  0.00     0.181 C 
ENDBRANCH   5  20
TORSDOF 4
ENDMDL
