MODEL 1
REMARK VINA RESULT:      -6.9      0.000      0.000
REMARK  3 active torsions:
REMARK  status: ('A' for Active; 'I' for Inactive)
REMARK    1  A    between atoms: C_10  and  C_3 
REMARK    2  A    between atoms: O_13  and  C_10 
REMARK    3  A    between atoms: C_12  and  O_13 
ROOT
ATOM      1  C   UNL d   1     -47.013  12.340  23.362  0.00  0.00     0.002 A 
ATOM      2  C   UNL d   1     -47.645  12.870  23.358  0.00  0.00     0.025 A 
ATOM      3  C   UNL d   1     -46.282  12.565  23.024  0.00  0.00     0.000 A 
ATOM      4  C   UNL d   1     -46.195  13.315  22.688  0.00  0.00     0.002 A 
ATOM      5  C   UNL d   1     -47.560  13.616  23.025  0.00  0.00     0.100 A 
ATOM      6  C   UNL d   1     -46.829  13.840  22.687  0.00  0.00     0.025 A 
ATOM      7  C   UNL d   1     -47.093  11.597  23.692  0.00  0.00     0.000 A 
ATOM      8  C   UNL d   1     -45.648  12.041  23.025  0.00  0.00     0.000 A 
ATOM      9  C   UNL d   1     -46.466  11.066  23.698  0.00  0.00     0.000 A 
ATOM     10  C   UNL d   1     -45.735  11.291  23.360  0.00  0.00     0.000 A 
ENDROOT
BRANCH   5  11
ATOM     11  O   UNL d   1     -48.193  14.149  23.020  0.00  0.00    -0.304 OA
BRANCH  11  12
ATOM     12  C   UNL d   1     -48.941  13.891  22.765  0.00  0.00     0.142 C 
BRANCH  12  13
ATOM     13  C   UNL d   1     -49.594  14.391  22.821  0.00  0.00     0.115 A 
ATOM     14  N   UNL d   1     -49.733  14.951  23.413  0.00  0.00    -0.217 NA
ATOM     15  C   UNL d   1     -50.452  15.324  23.248  0.00  0.00     0.215 A 
ATOM     16  S   UNL d   1     -50.756  14.991  22.550  0.00  0.00    -0.045 SA
ATOM     17  N   UNL d   1     -50.800  15.920  23.698  0.00  0.00    -0.120 N 
ATOM     18  C   UNL d   1     -50.229  14.416  22.285  0.00  0.00     0.060 A 
ENDBRANCH  12  13
ENDBRANCH  11  12
ENDBRANCH   5  11
TORSDOF 3
ENDMDL
MODEL 2
REMARK VINA RESULT:      -6.8      2.338      4.419
REMARK  3 active torsions:
REMARK  status: ('A' for Active; 'I' for Inactive)
REMARK    1  A    between atoms: C_10  and  C_3 
REMARK    2  A    between atoms: O_13  and  C_10 
REMARK    3  A    between atoms: C_12  and  O_13 
ROOT
ATOM      1  C   UNL d   1     -49.724  14.285  23.164  0.00  0.00     0.002 A 
ATOM      2  C   UNL d   1     -49.051  13.855  22.956  0.00  0.00     0.025 A 
ATOM      3  C   UNL d   1     -49.724  15.117  23.087  0.00  0.00     0.000 A 
ATOM      4  C   UNL d   1     -49.052  15.506  22.803  0.00  0.00     0.002 A 
ATOM      5  C   UNL d   1     -48.383  14.241  22.674  0.00  0.00     0.100 A 
ATOM      6  C   UNL d   1     -48.384  15.073  22.597  0.00  0.00     0.025 A 
ATOM      7  C   UNL d   1     -50.391  13.905  23.445  0.00  0.00     0.000 A 
ATOM      8  C   UNL d   1     -50.392  15.551  23.293  0.00  0.00     0.000 A 
ATOM      9  C   UNL d   1     -51.063  14.329  23.654  0.00  0.00     0.000 A 
ATOM     10  C   UNL d   1     -51.064  15.162  23.577  0.00  0.00     0.000 A 
ENDROOT
BRANCH   5  11
ATOM     11  O   UNL d   1     -47.707  13.811  22.464  0.00  0.00    -0.304 OA
BRANCH  11  12
ATOM     12  C   UNL d   1     -47.057  13.798  22.981  0.00  0.00     0.142 C 
BRANCH  12  13
ATOM     13  C   UNL d   1     -46.376  13.378  22.781  0.00  0.00     0.115 A 
ATOM     14  N   UNL d   1     -45.747  13.652  22.320  0.00  0.00    -0.217 NA
ATOM     15  C   UNL d   1     -45.188  13.046  22.263  0.00  0.00     0.215 A 
ATOM     16  S   UNL d   1     -45.475  12.396  22.693  0.00  0.00    -0.045 SA
ATOM     17  N   UNL d   1     -44.475  13.086  21.853  0.00  0.00    -0.120 N 
ATOM     18  C   UNL d   1     -46.207  12.597  23.013  0.00  0.00     0.060 A 
ENDBRANCH  12  13
ENDBRANCH  11  12
ENDBRANCH   5  11
TORSDOF 3
ENDMDL
MODEL 3
REMARK VINA RESULT:      -6.3      2.733      4.273
REMARK  3 active torsions:
REMARK  status: ('A' for Active; 'I' for Inactive)
REMARK    1  A    between atoms: C_10  and  C_3 
REMARK    2  A    between atoms: O_13  and  C_10 
REMARK    3  A    between atoms: C_12  and  O_13 
ROOT
ATOM      1  C   UNL d   1     -49.519  12.639  22.796  0.00  0.00     0.002 A 
ATOM      2  C   UNL d   1     -48.746  12.732  22.525  0.00  0.00     0.025 A 
ATOM      3  C   UNL d   1     -49.686  12.071  23.387  0.00  0.00     0.000 A 
ATOM      4  C   UNL d   1     -49.077  11.606  23.696  0.00  0.00     0.002 A 
ATOM      5  C   UNL d   1     -48.140  12.271  22.832  0.00  0.00     0.100 A 
ATOM      6  C   UNL d   1     -48.307  11.703  23.423  0.00  0.00     0.025 A 
ATOM      7  C   UNL d   1     -50.125  13.097  22.493  0.00  0.00     0.000 A 
ATOM      8  C   UNL d   1     -50.455  11.974  23.661  0.00  0.00     0.000 A 
ATOM      9  C   UNL d   1     -50.898  13.007  22.760  0.00  0.00     0.000 A 
ATOM     10  C   UNL d   1     -51.064  12.439  23.351  0.00  0.00     0.000 A 
ENDROOT
BRANCH   5  11
ATOM     11  O   UNL d   1     -47.363  12.363  22.561  0.00  0.00    -0.304 OA
BRANCH  11  12
ATOM     12  C   UNL d   1     -46.865  12.915  22.933  0.00  0.00     0.142 C 
BRANCH  12  13
ATOM     13  C   UNL d   1     -46.130  13.097  22.606  0.00  0.00     0.115 A 
ATOM     14  N   UNL d   1     -45.542  12.558  22.391  0.00  0.00    -0.217 NA
ATOM     15  C   UNL d   1     -44.902  12.984  22.087  0.00  0.00     0.215 A 
ATOM     16  S   UNL d   1     -45.100  13.791  22.117  0.00  0.00    -0.045 SA
ATOM     17  N   UNL d   1     -44.198  12.662  21.808  0.00  0.00    -0.120 N 
ATOM     18  C   UNL d   1     -45.856  13.864  22.436  0.00  0.00     0.060 A 
ENDBRANCH  12  13
ENDBRANCH  11  12
ENDBRANCH   5  11
TORSDOF 3
ENDMDL
MODEL 4
REMARK VINA RESULT:      -5.8      8.616      9.316
REMARK  3 active torsions:
REMARK  status: ('A' for Active; 'I' for Inactive)
REMARK    1  A    between atoms: C_10  and  C_3 
REMARK    2  A    between atoms: O_13  and  C_10 
REMARK    3  A    between atoms: C_12  and  O_13 
ROOT
ATOM      1  C   UNL d   1     -38.921  14.019  20.852  0.00  0.00     0.002 A 
ATOM      2  C   UNL d   1     -39.059  14.357  20.112  0.00  0.00     0.025 A 
ATOM      3  C   UNL d   1     -39.521  14.035  21.434  0.00  0.00     0.000 A 
ATOM      4  C   UNL d   1     -40.249  14.388  21.267  0.00  0.00     0.002 A 
ATOM      5  C   UNL d   1     -39.782  14.708  19.945  0.00  0.00     0.100 A 
ATOM      6  C   UNL d   1     -40.382  14.724  20.527  0.00  0.00     0.025 A 
ATOM      7  C   UNL d   1     -38.202  13.668  21.022  0.00  0.00     0.000 A 
ATOM      8  C   UNL d   1     -39.388  13.700  22.173  0.00  0.00     0.000 A 
ATOM      9  C   UNL d   1     -38.060  13.331  21.758  0.00  0.00     0.000 A 
ATOM     10  C   UNL d   1     -38.660  13.346  22.340  0.00  0.00     0.000 A 
ENDROOT
BRANCH   5  11
ATOM     11  O   UNL d   1     -39.923  15.048  19.203  0.00  0.00    -0.304 OA
BRANCH  11  12
ATOM     12  C   UNL d   1     -40.334  14.612  18.627  0.00  0.00     0.142 C 
BRANCH  12  13
ATOM     13  C   UNL d   1     -40.499  14.948  17.892  0.00  0.00     0.115 A 
ATOM     14  N   UNL d   1     -41.235  15.219  17.631  0.00  0.00    -0.217 NA
ATOM     15  C   UNL d   1     -41.142  15.510  16.863  0.00  0.00     0.215 A 
ATOM     16  S   UNL d   1     -40.344  15.418  16.652  0.00  0.00    -0.045 SA
ATOM     17  N   UNL d   1     -41.738  15.834  16.396  0.00  0.00    -0.120 N 
ATOM     18  C   UNL d   1     -39.945  15.071  17.284  0.00  0.00     0.060 A 
ENDBRANCH  12  13
ENDBRANCH  11  12
ENDBRANCH   5  11
TORSDOF 3
ENDMDL
MODEL 5
REMARK VINA RESULT:      -5.6      9.081      9.817
REMARK  3 active torsions:
REMARK  status: ('A' for Active; 'I' for Inactive)
REMARK    1  A    between atoms: C_10  and  C_3 
REMARK    2  A    between atoms: O_13  and  C_10 
REMARK    3  A    between atoms: C_12  and  O_13 
ROOT
ATOM      1  C   UNL d   1     -40.289  14.724  18.370  0.00  0.00     0.002 A 
ATOM      2  C   UNL d   1     -40.027  14.295  19.024  0.00  0.00     0.025 A 
ATOM      3  C   UNL d   1     -40.609  15.489  18.478  0.00  0.00     0.000 A 
ATOM      4  C   UNL d   1     -40.661  15.811  19.237  0.00  0.00     0.002 A 
ATOM      5  C   UNL d   1     -40.079  14.614  19.779  0.00  0.00     0.100 A 
ATOM      6  C   UNL d   1     -40.398  15.379  19.886  0.00  0.00     0.025 A 
ATOM      7  C   UNL d   1     -40.239  14.409  17.617  0.00  0.00     0.000 A 
ATOM      8  C   UNL d   1     -40.871  15.922  17.830  0.00  0.00     0.000 A 
ATOM      9  C   UNL d   1     -40.499  14.834  16.963  0.00  0.00     0.000 A 
ATOM     10  C   UNL d   1     -40.819  15.599  17.071  0.00  0.00     0.000 A 
ENDROOT
BRANCH   5  11
ATOM     11  O   UNL d   1     -39.816  14.184  20.436  0.00  0.00    -0.304 OA
BRANCH  11  12
ATOM     12  C   UNL d   1     -39.140  14.440  20.846  0.00  0.00     0.142 C 
BRANCH  12  13
ATOM     13  C   UNL d   1     -38.833  13.987  21.463  0.00  0.00     0.115 A 
ATOM     14  N   UNL d   1     -39.161  13.898  22.217  0.00  0.00    -0.217 NA
ATOM     15  C   UNL d   1     -38.669  13.397  22.652  0.00  0.00     0.215 A 
ATOM     16  S   UNL d   1     -38.035  13.177  22.163  0.00  0.00    -0.045 SA
ATOM     17  N   UNL d   1     -38.791  13.160  23.432  0.00  0.00    -0.120 N 
ATOM     18  C   UNL d   1     -38.133  13.539  21.429  0.00  0.00     0.060 A 
ENDBRANCH  12  13
ENDBRANCH  11  12
ENDBRANCH   5  11
TORSDOF 3
ENDMDL
MODEL 6
REMARK VINA RESULT:      -5.2      9.075     10.265
REMARK  3 active torsions:
REMARK  status: ('A' for Active; 'I' for Inactive)
REMARK    1  A    between atoms: C_10  and  C_3 
REMARK    2  A    between atoms: O_13  and  C_10 
REMARK    3  A    between atoms: C_12  and  O_13 
ROOT
ATOM      1  C   UNL d   1     -38.751  14.565  16.741  0.00  0.00     0.002 A 
ATOM      2  C   UNL d   1     -39.154  14.954  17.347  0.00  0.00     0.025 A 
ATOM      3  C   UNL d   1     -38.614  13.742  16.797  0.00  0.00     0.000 A 
ATOM      4  C   UNL d   1     -38.882  13.322  17.456  0.00  0.00     0.002 A 
ATOM      5  C   UNL d   1     -39.421  14.538  18.002  0.00  0.00     0.100 A 
ATOM      6  C   UNL d   1     -39.284  13.715  18.057  0.00  0.00     0.025 A 
ATOM      7  C   UNL d   1     -38.484  14.976  16.087  0.00  0.00     0.000 A 
ATOM      8  C   UNL d   1     -38.213  13.349  16.196  0.00  0.00     0.000 A 
ATOM      9  C   UNL d   1     -38.082  14.592  15.481  0.00  0.00     0.000 A 
ATOM     10  C   UNL d   1     -37.945  13.769  15.537  0.00  0.00     0.000 A 
ENDROOT
BRANCH   5  11
ATOM     11  O   UNL d   1     -39.826  14.927  18.611  0.00  0.00    -0.304 OA
BRANCH  11  12
ATOM     12  C   UNL d   1     -39.693  14.699  19.399  0.00  0.00     0.142 C 
BRANCH  12  13
ATOM     13  C   UNL d   1     -40.053  15.110  20.016  0.00  0.00     0.115 A 
ATOM     14  N   UNL d   1     -40.864  15.237  20.113  0.00  0.00    -0.217 NA
ATOM     15  C   UNL d   1     -40.974  15.674  20.806  0.00  0.00     0.215 A 
ATOM     16  S   UNL d   1     -40.225  15.816  21.136  0.00  0.00    -0.045 SA
ATOM     17  N   UNL d   1     -41.698  15.922  21.109  0.00  0.00    -0.120 N 
ATOM     18  C   UNL d   1     -39.656  15.470  20.652  0.00  0.00     0.060 A 
ENDBRANCH  12  13
ENDBRANCH  11  12
ENDBRANCH   5  11
TORSDOF 3
ENDMDL
