MODEL 1
REMARK VINA RESULT:      82.9      0.000      0.000
REMARK  6 active torsions:
REMARK  status: ('A' for Active; 'I' for Inactive)
REMARK    1  A    between atoms: N_3  and  S_1 
REMARK    2  A    between atoms: C_5  and  S_1 
REMARK    3  A    between atoms: S_2  and  N_4 
REMARK    4  A    between atoms: C_6  and  S_2 
REMARK    5  A    between atoms: O_25  and  C_15 
REMARK    6  A    between atoms: O_26  and  C_16 
ROOT
ATOM      1  N   UNL d   1     -48.581  28.873  34.528  0.00  0.00    -0.228 N 
ATOM      2  N   UNL d   1     -49.320  27.451  34.126  0.00  0.00    -0.226 N 
ATOM      3  C   UNL d   1     -49.160  28.854  33.934  0.00  0.00     0.093 A 
ATOM      4  C   UNL d   1     -49.527  28.151  33.734  0.00  0.00     0.110 A 
ATOM      5  C   UNL d   1     -48.374  28.178  34.919  0.00  0.00     0.111 A 
ATOM      6  C   UNL d   1     -48.745  27.462  34.718  0.00  0.00     0.111 A 
ATOM      7  C   UNL d   1     -49.368  29.555  33.541  0.00  0.00     0.021 C 
ENDROOT
BRANCH   1   8
ATOM      8  S   UNL d   1     -48.219  29.580  34.722  0.00  0.00     0.273 S 
ATOM      9  O   UNL d   1     -48.500  30.288  34.419  0.00  0.00    -0.200 OA
ATOM     10  O   UNL d   1     -47.563  29.581  35.229  0.00  0.00    -0.200 OA
BRANCH   8  11
ATOM     11  C   UNL d   1     -47.838  30.279  34.932  0.00  0.00     0.126 A 
ATOM     12  C   UNL d   1     -47.509  30.352  35.687  0.00  0.00     0.106 A 
ATOM     13  C   UNL d   1     -47.128  31.041  35.907  0.00  0.00     0.025 A 
ATOM     14  C   UNL d   1     -47.066  31.682  35.368  0.00  0.00     0.002 A 
ATOM     15  C   UNL d   1     -47.396  31.606  34.613  0.00  0.00     0.001 A 
ATOM     16  C   UNL d   1     -47.779  30.908  34.398  0.00  0.00     0.015 A 
ATOM     17  C   UNL d   1     -47.341  32.225  34.079  0.00  0.00     0.000 C 
BRANCH  12  18
ATOM     18  O   UNL d   1     -47.564  29.733  36.220  0.00  0.00    -0.327 OA
ATOM     19  C   UNL d   1     -47.243  29.817  36.976  0.00  0.00     0.181 C 
ENDBRANCH  12  18
ENDBRANCH   8  11
ENDBRANCH   1   8
BRANCH   2  20
ATOM     20  S   UNL d   1     -49.690  26.742  33.924  0.00  0.00     0.273 S 
ATOM     21  O   UNL d   1     -50.357  26.490  34.341  0.00  0.00    -0.200 OA
ATOM     22  O   UNL d   1     -49.396  26.284  33.307  0.00  0.00    -0.200 OA
BRANCH  20  23
ATOM     23  C   UNL d   1     -50.080  26.038  33.743  0.00  0.00     0.126 A 
ATOM     24  C   UNL d   1     -50.880  26.053  33.546  0.00  0.00     0.106 A 
ATOM     25  C   UNL d   1     -51.262  25.353  33.368  0.00  0.00     0.025 A 
ATOM     26  C   UNL d   1     -50.853  24.639  33.384  0.00  0.00     0.002 A 
ATOM     27  C   UNL d   1     -50.053  24.630  33.582  0.00  0.00     0.001 A 
ATOM     28  C   UNL d   1     -49.667  25.336  33.762  0.00  0.00     0.015 A 
ATOM     29  C   UNL d   1     -49.634  23.914  33.600  0.00  0.00     0.000 C 
BRANCH  24  30
ATOM     30  O   UNL d   1     -51.289  26.761  33.529  0.00  0.00    -0.327 OA
ATOM     31  C   UNL d   1     -52.059  26.800  33.808  0.00  0.00     0.181 C 
ENDBRANCH  24  30
ENDBRANCH  20  23
ENDBRANCH   2  20
TORSDOF 6
ENDMDL
MODEL 2
REMARK VINA RESULT:      83.6      1.079      5.545
REMARK  6 active torsions:
REMARK  status: ('A' for Active; 'I' for Inactive)
REMARK    1  A    between atoms: N_3  and  S_1 
REMARK    2  A    between atoms: C_5  and  S_1 
REMARK    3  A    between atoms: S_2  and  N_4 
REMARK    4  A    between atoms: C_6  and  S_2 
REMARK    5  A    between atoms: O_25  and  C_15 
REMARK    6  A    between atoms: O_26  and  C_16 
ROOT
ATOM      1  N   UNL d   1     -50.133  26.765  34.179  0.00  0.00    -0.228 N 
ATOM      2  N   UNL d   1     -49.150  28.009  34.638  0.00  0.00    -0.226 N 
ATOM      3  C   UNL d   1     -50.191  27.085  34.942  0.00  0.00     0.093 A 
ATOM      4  C   UNL d   1     -49.704  27.701  35.171  0.00  0.00     0.110 A 
ATOM      5  C   UNL d   1     -49.582  27.070  33.648  0.00  0.00     0.111 A 
ATOM      6  C   UNL d   1     -49.087  27.696  33.877  0.00  0.00     0.111 A 
ATOM      7  C   UNL d   1     -50.746  26.777  35.476  0.00  0.00     0.021 C 
ENDROOT
BRANCH   1   8
ATOM      8  S   UNL d   1     -50.623  26.149  33.958  0.00  0.00     0.273 S 
ATOM      9  O   UNL d   1     -51.353  26.299  33.616  0.00  0.00    -0.200 OA
ATOM     10  O   UNL d   1     -50.381  25.365  34.080  0.00  0.00    -0.200 OA
BRANCH   8  11
ATOM     11  C   UNL d   1     -51.099  25.511  33.744  0.00  0.00     0.126 A 
ATOM     12  C   UNL d   1     -50.747  24.798  33.521  0.00  0.00     0.106 A 
ATOM     13  C   UNL d   1     -51.208  24.158  33.306  0.00  0.00     0.025 A 
ATOM     14  C   UNL d   1     -52.046  24.218  33.311  0.00  0.00     0.002 A 
ATOM     15  C   UNL d   1     -52.396  24.935  33.535  0.00  0.00     0.001 A 
ATOM     16  C   UNL d   1     -51.923  25.576  33.750  0.00  0.00     0.015 A 
ATOM     17  C   UNL d   1     -53.212  25.005  33.542  0.00  0.00     0.000 C 
BRANCH  12  18
ATOM     18  O   UNL d   1     -49.931  24.727  33.513  0.00  0.00    -0.327 OA
ATOM     19  C   UNL d   1     -49.587  23.992  33.361  0.00  0.00     0.181 C 
ENDBRANCH  12  18
ENDBRANCH   8  11
ENDBRANCH   1   8
BRANCH   2  20
ATOM     20  S   UNL d   1     -48.659  28.631  34.869  0.00  0.00     0.273 S 
ATOM     21  O   UNL d   1     -47.951  28.771  34.467  0.00  0.00    -0.200 OA
ATOM     22  O   UNL d   1     -48.873  29.114  35.501  0.00  0.00    -0.200 OA
BRANCH  20  23
ATOM     23  C   UNL d   1     -48.150  29.246  35.079  0.00  0.00     0.126 A 
ATOM     24  C   UNL d   1     -48.214  29.976  34.702  0.00  0.00     0.106 A 
ATOM     25  C   UNL d   1     -47.708  30.582  34.913  0.00  0.00     0.025 A 
ATOM     26  C   UNL d   1     -47.140  30.466  35.497  0.00  0.00     0.002 A 
ATOM     27  C   UNL d   1     -47.080  29.734  35.871  0.00  0.00     0.001 A 
ATOM     28  C   UNL d   1     -47.591  29.122  35.658  0.00  0.00     0.015 A 
ATOM     29  C   UNL d   1     -46.510  29.609  36.459  0.00  0.00     0.000 C 
BRANCH  24  30
ATOM     30  O   UNL d   1     -48.778  30.094  34.122  0.00  0.00    -0.327 OA
ATOM     31  C   UNL d   1     -49.135  30.828  34.035  0.00  0.00     0.181 C 
ENDBRANCH  24  30
ENDBRANCH  20  23
ENDBRANCH   2  20
TORSDOF 6
ENDMDL
