MODEL 1
REMARK VINA RESULT:      60.5      0.000      0.000
REMARK  7 active torsions:
REMARK  status: ('A' for Active; 'I' for Inactive)
REMARK    1  A    between atoms: C_10  and  C_4 
REMARK    2  A    between atoms: N_12  and  C_5 
REMARK    3  A    between atoms: C_11  and  C_8 
REMARK    4  A    between atoms: C_21  and  N_12 
REMARK    5  A    between atoms: N_16  and  C_25 
REMARK    6  A    between atoms: C_20  and  C_21 
REMARK    7  A    between atoms: C_25  and  C_20 
ROOT
ATOM      1  C   UNL d   1     -51.262  25.862  33.707  0.00  0.00     0.168 A 
ATOM      2  N   UNL d   1     -50.725  26.494  33.794  0.00  0.00    -0.184 N 
ATOM      3  N   UNL d   1     -50.978  25.108  33.590  0.00  0.00    -0.231 NA
ATOM      4  C   UNL d   1     -52.055  26.003  33.739  0.00  0.00     0.057 A 
ATOM      5  C   UNL d   1     -49.930  26.342  33.761  0.00  0.00     0.217 A 
ATOM      6  N   UNL d   1     -51.797  27.380  33.942  0.00  0.00    -0.160 NA
ATOM      7  C   UNL d   1     -49.640  25.588  33.643  0.00  0.00     0.067 A 
ATOM      8  C   UNL d   1     -50.175  24.959  33.556  0.00  0.00     0.064 A 
ATOM      9  C   UNL d   1     -52.324  26.761  33.856  0.00  0.00     0.124 A 
ENDROOT
BRANCH   4  10
ATOM     10  C   UNL d   1     -52.581  25.384  33.653  0.00  0.00     0.005 A 
ATOM     11  C   UNL d   1     -52.354  24.621  33.816  0.00  0.00     0.001 A 
ATOM     12  C   UNL d   1     -52.885  23.996  33.730  0.00  0.00     0.011 A 
ATOM     13  C   UNL d   1     -53.638  24.140  33.481  0.00  0.00     0.058 A 
ATOM     14  C   UNL d   1     -53.867  24.916  33.315  0.00  0.00     0.011 A 
ATOM     15 CL   UNL d   1     -54.183  23.499  33.392  0.00  0.00    -0.082 Cl
ATOM     16  C   UNL d   1     -53.349  25.525  33.400  0.00  0.00     0.001 A 
ENDBRANCH   4  10
BRANCH   5  17
ATOM     17  N   UNL d   1     -49.382  26.987  33.850  0.00  0.00    -0.380 NA
BRANCH  17  18
ATOM     18  C   UNL d   1     -48.894  27.668  33.963  0.00  0.00     0.164 C 
BRANCH  18  19
ATOM     19  C   UNL d   1     -48.923  28.074  34.702  0.00  0.00     0.054 C 
BRANCH  19  20
ATOM     20  C   UNL d   1     -48.190  28.284  35.094  0.00  0.00     0.083 C 
BRANCH  20  21
ATOM     21  N   UNL d   1     -47.786  28.993  34.878  0.00  0.00    -0.300 N 
ATOM     22  C   UNL d   1     -48.116  29.415  35.539  0.00  0.00     0.100 C 
ATOM     23  C   UNL d   1     -47.264  29.403  34.355  0.00  0.00     0.100 C 
ENDBRANCH  20  21
ENDBRANCH  19  20
ENDBRANCH  18  19
ENDBRANCH  17  18
ENDBRANCH   5  17
BRANCH   8  24
ATOM     24  C   UNL d   1     -49.885  24.167  33.433  0.00  0.00     0.036 C 
ATOM     25  C   UNL d   1     -49.602  23.379  33.310  0.00  0.00     0.006 C 
ATOM     26  C   UNL d   1     -49.045  24.015  33.438  0.00  0.00     0.006 C 
ATOM     27  C   UNL d   1     -50.441  23.530  33.306  0.00  0.00     0.006 C 
ENDBRANCH   8  24
TORSDOF 7
ENDMDL
