MODEL 1
REMARK VINA RESULT:      -4.2      0.000      0.000
REMARK  4 active torsions:
REMARK  status: ('A' for Active; 'I' for Inactive)
REMARK    1  A    between atoms: C_3  and  N_5 
REMARK    2  A    between atoms: S_13  and  C_4 
REMARK       I    between atoms: N_5  and  C_12 
REMARK    3  A    between atoms: C_12  and  C_18 
REMARK    4  A    between atoms: C_18  and  S_13 
ROOT
ATOM      1  N   UNL d   1     -41.582-122.851 -49.936  0.00  0.00    -0.238 NA
ATOM      2  C   UNL d   1     -42.894-122.330 -50.169  0.00  0.00     0.092 A 
ATOM      3  C   UNL d   1     -42.129-122.462 -50.449  0.00  0.00     0.120 A 
ATOM      4  C   UNL d   1     -43.474-121.943 -50.650  0.00  0.00     0.103 C 
ATOM      5  C   UNL d   1     -41.781-123.093 -49.195  0.00  0.00     0.082 A 
ATOM      6  N   UNL d   1     -44.040-121.562 -51.127  0.00  0.00    -0.191 NA
ATOM      7  C   UNL d   1     -43.120-122.586 -49.375  0.00  0.00     0.014 A 
ATOM      8  C   UNL d   1     -42.546-122.961 -48.916  0.00  0.00     0.018 A 
ATOM      9  C   UNL d   1     -41.160-123.457 -48.801  0.00  0.00     0.019 A 
ATOM     10  C   UNL d   1     -42.887-123.159 -48.171  0.00  0.00     0.002 A 
ATOM     11  C   UNL d   1     -41.136-123.775 -48.054  0.00  0.00     0.002 A 
ATOM     12  C   UNL d   1     -42.534-123.533 -47.544  0.00  0.00     0.000 A 
ATOM     13  C   UNL d   1     -41.718-123.816 -47.500  0.00  0.00     0.000 A 
ENDROOT
BRANCH   3  14
ATOM     14  S   UNL d   1     -41.936-122.208 -51.211  0.00  0.00    -0.062 SA
BRANCH  14  15
ATOM     15  C   UNL d   1     -41.591-122.747 -51.731  0.00  0.00     0.099 C 
BRANCH  15  16
ATOM     16  C   UNL d   1     -41.474-122.523 -52.508  0.00  0.00     0.288 C 
ATOM     17  N   UNL d   1     -41.697-123.064 -53.090  0.00  0.00    -0.182 NA
ATOM     18  O   UNL d   1     -41.152-121.795 -52.720  0.00  0.00    -0.265 OA
BRANCH  17  19
ATOM     19  C   UNL d   1     -41.580-122.839 -53.879  0.00  0.00     0.197 A 
ATOM     20  N   UNL d   1     -41.835-122.195 -54.289  0.00  0.00    -0.219 NA
ATOM     21  C   UNL d   1     -41.573-122.230 -55.044  0.00  0.00     0.108 A 
ATOM     22  C   UNL d   1     -41.127-122.927 -55.129  0.00  0.00     0.059 A 
ATOM     23  S   UNL d   1     -41.136-123.296 -54.407  0.00  0.00    -0.046 SA
ENDBRANCH  17  19
ENDBRANCH  15  16
ENDBRANCH  14  15
ENDBRANCH   3  14
TORSDOF 4
ENDMDL
