MODEL 1
REMARK VINA RESULT:      -4.5      0.000      0.000
REMARK  3 active torsions:
REMARK  status: ('A' for Active; 'I' for Inactive)
REMARK    1  A    between atoms: N_6  and  S_1 
REMARK    2  A    between atoms: C_11  and  S_1 
REMARK    3  A    between atoms: C_2  and  N_6 
ROOT
ATOM      1  C   UNL d   1      58.575  -0.128  29.866  0.00  0.00     0.106 A 
ATOM      2  C   UNL d   1      59.747  -0.546  29.228  0.00  0.00     0.110 A 
ATOM      3  C   UNL d   1      58.928  -0.539  29.271  0.00  0.00     0.090 A 
ATOM      4  C   UNL d   1      60.205  -0.156  29.760  0.00  0.00     0.217 A 
ATOM      5  C   UNL d   1      59.041   0.276  30.417  0.00  0.00     0.035 A 
ATOM      6  C   UNL d   1      59.855   0.257  30.357  0.00  0.00     0.099 A 
ATOM      7  O   UNL d   1      61.043  -0.170  29.705  0.00  0.00    -0.285 OA
ATOM      8 CL   UNL d   1      60.154  -0.991  28.583  0.00  0.00    -0.078 Cl
ATOM      9 CL   UNL d   1      58.460  -0.951  28.709  0.00  0.00    -0.080 Cl
ATOM     10 CL   UNL d   1      60.325   0.682  30.938  0.00  0.00    -0.079 Cl
ENDROOT
BRANCH   1  11
ATOM     11  N   UNL d   1      57.755  -0.121  29.910  0.00  0.00    -0.158 NA
BRANCH  11  12
ATOM     12  S   UNL d   1      57.383  -0.166  30.657  0.00  0.00     0.285 S 
ATOM     13  O   UNL d   1      57.531  -0.982  30.677  0.00  0.00    -0.198 OA
ATOM     14  O   UNL d   1      57.232   0.677  30.633  0.00  0.00    -0.198 OA
BRANCH  12  15
ATOM     15  C   UNL d   1      56.997  -0.191  31.423  0.00  0.00     0.105 A 
ATOM     16  C   UNL d   1      56.738  -0.911  31.763  0.00  0.00     0.013 A 
ATOM     17  C   UNL d   1      56.366  -0.921  32.507  0.00  0.00     0.001 A 
ATOM     18  C   UNL d   1      56.255  -0.207  32.905  0.00  0.00     0.000 A 
ATOM     19  C   UNL d   1      56.498   0.494  32.593  0.00  0.00     0.001 A 
ATOM     20  C   UNL d   1      56.887   0.523  31.821  0.00  0.00     0.013 A 
ENDBRANCH  12  15
ENDBRANCH  11  12
ENDBRANCH   1  11
TORSDOF 3
ENDMDL
MODEL 2
REMARK VINA RESULT:      -4.0      1.097      1.576
REMARK  3 active torsions:
REMARK  status: ('A' for Active; 'I' for Inactive)
REMARK    1  A    between atoms: N_6  and  S_1 
REMARK    2  A    between atoms: C_11  and  S_1 
REMARK    3  A    between atoms: C_2  and  N_6 
ROOT
ATOM      1  C   UNL d   1      58.827  -0.197  29.535  0.00  0.00     0.106 A 
ATOM      2  C   UNL d   1      59.937  -0.744  28.883  0.00  0.00     0.110 A 
ATOM      3  C   UNL d   1      59.540  -0.089  29.177  0.00  0.00     0.090 A 
ATOM      4  C   UNL d   1      59.637  -1.487  28.942  0.00  0.00     0.217 A 
ATOM      5  C   UNL d   1      58.513  -0.959  29.599  0.00  0.00     0.035 A 
ATOM      6  C   UNL d   1      58.923  -1.598  29.300  0.00  0.00     0.099 A 
ATOM      7  O   UNL d   1      60.052  -2.149  28.637  0.00  0.00    -0.285 OA
ATOM      8 CL   UNL d   1      60.720  -0.647  28.486  0.00  0.00    -0.078 Cl
ATOM      9 CL   UNL d   1      59.864   0.682  29.109  0.00  0.00    -0.080 Cl
ATOM     10 CL   UNL d   1      58.582  -2.383  29.375  0.00  0.00    -0.079 Cl
ENDROOT
BRANCH   1  11
ATOM     11  N   UNL d   1      58.429   0.458  29.830  0.00  0.00    -0.158 NA
BRANCH  11  12
ATOM     12  S   UNL d   1      58.057   0.411  30.577  0.00  0.00     0.285 S 
ATOM     13  O   UNL d   1      58.791   0.532  30.945  0.00  0.00    -0.198 OA
ATOM     14  O   UNL d   1      57.301   0.287  30.192  0.00  0.00    -0.198 OA
BRANCH  12  15
ATOM     15  C   UNL d   1      57.656   0.360  31.334  0.00  0.00     0.105 A 
ATOM     16  C   UNL d   1      56.904   0.002  31.410  0.00  0.00     0.013 A 
ATOM     17  C   UNL d   1      56.526  -0.041  32.151  0.00  0.00     0.001 A 
ATOM     18  C   UNL d   1      56.907   0.277  32.809  0.00  0.00     0.000 A 
ATOM     19  C   UNL d   1      57.630   0.625  32.754  0.00  0.00     0.001 A 
ATOM     20  C   UNL d   1      58.037   0.678  31.992  0.00  0.00     0.013 A 
ENDBRANCH  12  15
ENDBRANCH  11  12
ENDBRANCH   1  11
TORSDOF 3
ENDMDL
MODEL 3
REMARK VINA RESULT:      -3.9      0.979      1.275
REMARK  3 active torsions:
REMARK  status: ('A' for Active; 'I' for Inactive)
REMARK    1  A    between atoms: N_6  and  S_1 
REMARK    2  A    between atoms: C_11  and  S_1 
REMARK    3  A    between atoms: C_2  and  N_6 
ROOT
ATOM      1  C   UNL d   1      57.922   0.286  30.741  0.00  0.00     0.106 A 
ATOM      2  C   UNL d   1      59.085   0.161  29.974  0.00  0.00     0.110 A 
ATOM      3  C   UNL d   1      58.267   0.133  30.031  0.00  0.00     0.090 A 
ATOM      4  C   UNL d   1      59.550   0.337  30.605  0.00  0.00     0.217 A 
ATOM      5  C   UNL d   1      58.395   0.467  31.394  0.00  0.00     0.035 A 
ATOM      6  C   UNL d   1      59.207   0.491  31.318  0.00  0.00     0.099 A 
ATOM      7  O   UNL d   1      60.386   0.364  30.535  0.00  0.00    -0.285 OA
ATOM      8 CL   UNL d   1      59.483  -0.004  29.203  0.00  0.00    -0.078 Cl
ATOM      9 CL   UNL d   1      57.792  -0.053  29.363  0.00  0.00    -0.080 Cl
ATOM     10 CL   UNL d   1      59.684   0.682  32.008  0.00  0.00    -0.079 Cl
ENDROOT
BRANCH   1  11
ATOM     11  N   UNL d   1      57.103   0.257  30.798  0.00  0.00    -0.158 NA
BRANCH  11  12
ATOM     12  S   UNL d   1      56.750  -0.079  31.477  0.00  0.00     0.285 S 
ATOM     13  O   UNL d   1      56.593   0.682  31.768  0.00  0.00    -0.198 OA
ATOM     14  O   UNL d   1      56.914  -0.864  31.172  0.00  0.00    -0.198 OA
BRANCH  12  15
ATOM     15  C   UNL d   1      56.392  -0.445  32.165  0.00  0.00     0.105 A 
ATOM     16  C   UNL d   1      56.358  -1.276  32.256  0.00  0.00     0.013 A 
ATOM     17  C   UNL d   1      56.007  -1.617  32.929  0.00  0.00     0.001 A 
ATOM     18  C   UNL d   1      55.693  -1.120  33.507  0.00  0.00     0.000 A 
ATOM     19  C   UNL d   1      55.717  -0.319  33.437  0.00  0.00     0.001 A 
ATOM     20  C   UNL d   1      56.077   0.052  32.744  0.00  0.00     0.013 A 
ENDBRANCH  12  15
ENDBRANCH  11  12
ENDBRANCH   1  11
TORSDOF 3
ENDMDL
MODEL 4
REMARK VINA RESULT:      -3.5      2.303      3.972
REMARK  3 active torsions:
REMARK  status: ('A' for Active; 'I' for Inactive)
REMARK    1  A    between atoms: N_6  and  S_1 
REMARK    2  A    between atoms: C_11  and  S_1 
REMARK    3  A    between atoms: C_2  and  N_6 
ROOT
ATOM      1  C   UNL d   1      56.647   0.036  32.439  0.00  0.00     0.106 A 
ATOM      2  C   UNL d   1      56.209   0.243  33.752  0.00  0.00     0.110 A 
ATOM      3  C   UNL d   1      56.047   0.032  32.976  0.00  0.00     0.090 A 
ATOM      4  C   UNL d   1      56.946   0.454  33.990  0.00  0.00     0.217 A 
ATOM      5  C   UNL d   1      57.407   0.253  32.679  0.00  0.00     0.035 A 
ATOM      6  C   UNL d   1      57.549   0.460  33.456  0.00  0.00     0.099 A 
ATOM      7  O   UNL d   1      57.100   0.668  34.787  0.00  0.00    -0.285 OA
ATOM      8 CL   UNL d   1      55.565   0.244  34.356  0.00  0.00    -0.078 Cl
ATOM      9 CL   UNL d   1      55.272  -0.187  32.738  0.00  0.00    -0.080 Cl
ATOM     10 CL   UNL d   1      58.346   0.682  33.688  0.00  0.00    -0.079 Cl
ENDROOT
BRANCH   1  11
ATOM     11  N   UNL d   1      56.485  -0.175  31.662  0.00  0.00    -0.158 NA
BRANCH  11  12
ATOM     12  S   UNL d   1      57.103  -0.179  31.100  0.00  0.00     0.285 S 
ATOM     13  O   UNL d   1      57.235  -0.982  31.256  0.00  0.00    -0.198 OA
ATOM     14  O   UNL d   1      56.963   0.652  30.942  0.00  0.00    -0.198 OA
BRANCH  12  15
ATOM     15  C   UNL d   1      57.734  -0.161  30.519  0.00  0.00     0.105 A 
ATOM     16  C   UNL d   1      58.141  -0.854  30.289  0.00  0.00     0.013 A 
ATOM     17  C   UNL d   1      58.751  -0.823  29.723  0.00  0.00     0.001 A 
ATOM     18  C   UNL d   1      58.949  -0.093  29.394  0.00  0.00     0.000 A 
ATOM     19  C   UNL d   1      58.568   0.584  29.603  0.00  0.00     0.001 A 
ATOM     20  C   UNL d   1      57.931   0.569  30.189  0.00  0.00     0.013 A 
ENDBRANCH  12  15
ENDBRANCH  11  12
ENDBRANCH   1  11
TORSDOF 3
ENDMDL
MODEL 5
REMARK VINA RESULT:      -2.5      9.202      9.797
REMARK  3 active torsions:
REMARK  status: ('A' for Active; 'I' for Inactive)
REMARK    1  A    between atoms: N_6  and  S_1 
REMARK    2  A    between atoms: C_11  and  S_1 
REMARK    3  A    between atoms: C_2  and  N_6 
ROOT
ATOM      1  C   UNL d   1      59.586  -9.609  33.851  0.00  0.00     0.106 A 
ATOM      2  C   UNL d   1      58.978  -9.726  32.596  0.00  0.00     0.110 A 
ATOM      3  C   UNL d   1      58.916  -9.692  33.414  0.00  0.00     0.090 A 
ATOM      4  C   UNL d   1      59.686  -9.678  32.221  0.00  0.00     0.217 A 
ATOM      5  C   UNL d   1      60.318  -9.559  33.470  0.00  0.00     0.035 A 
ATOM      6  C   UNL d   1      60.360  -9.595  32.655  0.00  0.00     0.099 A 
ATOM      7  O   UNL d   1      59.738  -9.713  31.384  0.00  0.00    -0.285 OA
ATOM      8 CL   UNL d   1      58.254  -9.817  32.099  0.00  0.00    -0.078 Cl
ATOM      9 CL   UNL d   1      58.169  -9.744  33.794  0.00  0.00    -0.080 Cl
ATOM     10 CL   UNL d   1      61.129  -9.541  32.276  0.00  0.00    -0.079 Cl
ENDROOT
BRANCH   1  11
ATOM     11  N   UNL d   1      59.525  -9.576  34.669  0.00  0.00    -0.158 NA
BRANCH  11  12
ATOM     12  S   UNL d   1      59.740  -8.875  35.069  0.00  0.00     0.285 S 
ATOM     13  O   UNL d   1      58.938  -8.700  35.189  0.00  0.00    -0.198 OA
ATOM     14  O   UNL d   1      60.568  -9.058  34.943  0.00  0.00    -0.198 OA
BRANCH  12  15
ATOM     15  C   UNL d   1      59.983  -8.160  35.476  0.00  0.00     0.105 A 
ATOM     16  C   UNL d   1      59.537  -7.453  35.432  0.00  0.00     0.013 A 
ATOM     17  C   UNL d   1      59.784  -6.767  35.832  0.00  0.00     0.001 A 
ATOM     18  C   UNL d   1      60.479  -6.795  36.275  0.00  0.00     0.000 A 
ATOM     19  C   UNL d   1      60.921  -7.466  36.329  0.00  0.00     0.001 A 
ATOM     20  C   UNL d   1      60.679  -8.188  35.919  0.00  0.00     0.013 A 
ENDBRANCH  12  15
ENDBRANCH  11  12
ENDBRANCH   1  11
TORSDOF 3
ENDMDL
MODEL 6
REMARK VINA RESULT:      -2.4      1.126      1.757
REMARK  3 active torsions:
REMARK  status: ('A' for Active; 'I' for Inactive)
REMARK    1  A    between atoms: N_6  and  S_1 
REMARK    2  A    between atoms: C_11  and  S_1 
REMARK    3  A    between atoms: C_2  and  N_6 
ROOT
ATOM      1  C   UNL d   1      58.493   0.517  30.914  0.00  0.00     0.106 A 
ATOM      2  C   UNL d   1      59.514   0.284  29.987  0.00  0.00     0.110 A 
ATOM      3  C   UNL d   1      59.279   0.450  30.755  0.00  0.00     0.090 A 
ATOM      4  C   UNL d   1      58.985   0.188  29.390  0.00  0.00     0.217 A 
ATOM      5  C   UNL d   1      57.943   0.419  30.305  0.00  0.00     0.035 A 
ATOM      6  C   UNL d   1      58.197   0.254  29.546  0.00  0.00     0.099 A 
ATOM      7  O   UNL d   1      59.237   0.019  28.608  0.00  0.00    -0.285 OA
ATOM      8 CL   UNL d   1      60.372   0.207  29.791  0.00  0.00    -0.078 Cl
ATOM      9 CL   UNL d   1      59.842   0.548  31.370  0.00  0.00    -0.080 Cl
ATOM     10 CL   UNL d   1      57.612   0.155  28.924  0.00  0.00    -0.079 Cl
ENDROOT
BRANCH   1  11
ATOM     11  N   UNL d   1      58.257   0.682  31.683  0.00  0.00    -0.158 NA
BRANCH  11  12
ATOM     12  S   UNL d   1      57.560   0.332  31.983  0.00  0.00     0.285 S 
ATOM     13  O   UNL d   1      57.128   0.662  31.357  0.00  0.00    -0.198 OA
ATOM     14  O   UNL d   1      58.010  -0.008  32.629  0.00  0.00    -0.198 OA
BRANCH  12  15
ATOM     15  C   UNL d   1      56.857  -0.036  32.308  0.00  0.00     0.105 A 
ATOM     16  C   UNL d   1      56.707  -0.855  32.221  0.00  0.00     0.013 A 
ATOM     17  C   UNL d   1      56.020  -1.199  32.541  0.00  0.00     0.001 A 
ATOM     18  C   UNL d   1      55.488  -0.718  32.948  0.00  0.00     0.000 A 
ATOM     19  C   UNL d   1      55.616   0.071  33.041  0.00  0.00     0.001 A 
ATOM     20  C   UNL d   1      56.324   0.445  32.715  0.00  0.00     0.013 A 
ENDBRANCH  12  15
ENDBRANCH  11  12
ENDBRANCH   1  11
TORSDOF 3
ENDMDL
MODEL 7
REMARK VINA RESULT:      -2.1      2.266      4.206
REMARK  3 active torsions:
REMARK  status: ('A' for Active; 'I' for Inactive)
REMARK    1  A    between atoms: N_6  and  S_1 
REMARK    2  A    between atoms: C_11  and  S_1 
REMARK    3  A    between atoms: C_2  and  N_6 
ROOT
ATOM      1  C   UNL d   1      56.700  -0.001  32.457  0.00  0.00     0.106 A 
ATOM      2  C   UNL d   1      55.962  -0.687  33.427  0.00  0.00     0.110 A 
ATOM      3  C   UNL d   1      56.343  -0.004  33.178  0.00  0.00     0.090 A 
ATOM      4  C   UNL d   1      55.936  -1.350  32.974  0.00  0.00     0.217 A 
ATOM      5  C   UNL d   1      56.676  -0.680  31.986  0.00  0.00     0.035 A 
ATOM      6  C   UNL d   1      56.292  -1.350  32.251  0.00  0.00     0.099 A 
ATOM      7  O   UNL d   1      55.543  -2.043  33.240  0.00  0.00    -0.285 OA
ATOM      8 CL   UNL d   1      55.564  -0.711  34.215  0.00  0.00    -0.078 Cl
ATOM      9 CL   UNL d   1      56.363   0.682  33.661  0.00  0.00    -0.080 Cl
ATOM     10 CL   UNL d   1      56.277  -2.047  31.749  0.00  0.00    -0.079 Cl
ENDROOT
BRANCH   1  11
ATOM     11  N   UNL d   1      57.081   0.682  32.206  0.00  0.00    -0.158 NA
BRANCH  11  12
ATOM     12  S   UNL d   1      57.666   0.632  31.612  0.00  0.00     0.285 S 
ATOM     13  O   UNL d   1      58.252   0.584  32.197  0.00  0.00    -0.198 OA
ATOM     14  O   UNL d   1      57.057   0.682  31.010  0.00  0.00    -0.198 OA
BRANCH  12  15
ATOM     15  C   UNL d   1      58.251   0.582  30.986  0.00  0.00     0.105 A 
ATOM     16  C   UNL d   1      58.031   0.494  30.184  0.00  0.00     0.013 A 
ATOM     17  C   UNL d   1      58.608   0.446  29.586  0.00  0.00     0.001 A 
ATOM     18  C   UNL d   1      59.404   0.489  29.800  0.00  0.00     0.000 A 
ATOM     19  C   UNL d   1      59.633   0.574  30.566  0.00  0.00     0.001 A 
ATOM     20  C   UNL d   1      59.046   0.624  31.200  0.00  0.00     0.013 A 
ENDBRANCH  12  15
ENDBRANCH  11  12
ENDBRANCH   1  11
TORSDOF 3
ENDMDL
