MODEL 1
REMARK VINA RESULT:       4.1      0.000      0.000
REMARK  2 active torsions:
REMARK  status: ('A' for Active; 'I' for Inactive)
REMARK    1  A    between atoms: C_11  and  C_1 
REMARK    2  A    between atoms: C_13  and  C_11 
ROOT
ATOM      1  C   UNL d   1     -52.032  24.232  33.306  0.00  0.00     0.058 A 
ATOM      2  C   UNL d   1     -51.366  25.413  33.306  0.00  0.00    -0.008 A 
ATOM      3  C   UNL d   1     -50.933  25.196  33.306  0.00  0.00    -0.008 A 
ATOM      4  C   UNL d   1     -50.713  23.949  33.306  0.00  0.00     0.045 A 
ATOM      5  C   UNL d   1     -51.620  24.882  33.306  0.00  0.00    -0.019 A 
ATOM      6  C   UNL d   1     -52.114  25.100  33.306  0.00  0.00    -0.019 A 
ATOM      7  C   UNL d   1     -51.455  23.643  33.306  0.00  0.00     0.021 A 
ATOM      8  C   UNL d   1     -50.954  26.137  33.306  0.00  0.00    -0.001 A 
ATOM      9  C   UNL d   1     -50.379  24.637  33.306  0.00  0.00    -0.022 A 
ATOM     10  C   UNL d   1     -50.775  24.810  33.306  0.00  0.00    -0.022 A 
ENDROOT
BRANCH   1  11
ATOM     11  C   UNL d   1     -52.595  23.628  33.306  0.00  0.00     0.004 C 
BRANCH  11  12
ATOM     12  C   UNL d   1     -53.394  23.823  33.364  0.00  0.00     0.118 C 
ATOM     13  N   UNL d   1     -53.967  23.223  33.343  0.00  0.00    -0.147 N 
ENDBRANCH  11  12
ENDBRANCH   1  11
TORSDOF 2
ENDMDL
MODEL 2
REMARK VINA RESULT:       6.8      0.760      1.353
REMARK  2 active torsions:
REMARK  status: ('A' for Active; 'I' for Inactive)
REMARK    1  A    between atoms: C_11  and  C_1 
REMARK    2  A    between atoms: C_13  and  C_11 
ROOT
ATOM      1  C   UNL d   1     -51.694  25.275  33.306  0.00  0.00     0.058 A 
ATOM      2  C   UNL d   1     -51.698  26.631  33.307  0.00  0.00    -0.008 A 
ATOM      3  C   UNL d   1     -51.215  26.657  33.306  0.00  0.00    -0.008 A 
ATOM      4  C   UNL d   1     -50.408  25.681  33.306  0.00  0.00     0.045 A 
ATOM      5  C   UNL d   1     -51.657  26.044  33.307  0.00  0.00    -0.019 A 
ATOM      6  C   UNL d   1     -52.194  25.989  33.307  0.00  0.00    -0.019 A 
ATOM      7  C   UNL d   1     -50.901  25.048  33.306  0.00  0.00     0.021 A 
ATOM      8  C   UNL d   1     -51.698  27.464  33.307  0.00  0.00    -0.001 A 
ATOM      9  C   UNL d   1     -50.457  26.444  33.306  0.00  0.00    -0.022 A 
ATOM     10  C   UNL d   1     -50.887  26.398  33.306  0.00  0.00    -0.022 A 
ENDROOT
BRANCH   1  11
ATOM     11  C   UNL d   1     -51.884  24.471  33.306  0.00  0.00     0.004 C 
BRANCH  11  12
ATOM     12  C   UNL d   1     -52.673  24.246  33.392  0.00  0.00     0.118 C 
ATOM     13  N   UNL d   1     -52.876  23.441  33.366  0.00  0.00    -0.147 N 
ENDBRANCH  11  12
ENDBRANCH   1  11
TORSDOF 2
ENDMDL
