MODEL 1
REMARK VINA RESULT:     -10.0      0.000      0.000
REMARK  5 active torsions:
REMARK  status: ('A' for Active; 'I' for Inactive)
REMARK    1  A    between atoms: C_12  and  C_3 
REMARK    2  A    between atoms: C_13  and  N_5 
REMARK    3  A    between atoms: C_11  and  C_6 
REMARK    4  A    between atoms: O_24  and  C_12 
REMARK    5  A    between atoms: C_14  and  C_13 
ROOT
ATOM      1  C   UNL d   1      52.994  32.298  53.398  0.00  0.00     0.080 A 
ATOM      2  C   UNL d   1      53.494  31.655  53.583  0.00  0.00     0.267 A 
ATOM      3  C   UNL d   1      52.717  33.694  53.437  0.00  0.00     0.106 A 
ATOM      4  C   UNL d   1      52.291  32.162  52.996  0.00  0.00     0.108 A 
ATOM      5  N   UNL d   1      53.280  30.883  53.361  0.00  0.00    -0.271 N 
ATOM      6  C   UNL d   1      53.206  33.064  53.619  0.00  0.00     0.015 A 
ATOM      7  C   UNL d   1      52.006  33.561  53.031  0.00  0.00     0.208 A 
ATOM      8  O   UNL d   1      51.793  32.795  52.810  0.00  0.00    -0.288 OA
ATOM      9  C   UNL d   1      52.070  31.399  52.771  0.00  0.00     0.043 A 
ATOM     10  C   UNL d   1      52.559  30.758  52.951  0.00  0.00     0.069 A 
ATOM     11  O   UNL d   1      54.209  31.787  53.991  0.00  0.00    -0.267 OA
ATOM     12  N   UNL d   1      51.511  34.198  52.848  0.00  0.00    -0.121 N 
ATOM     13  C   UNL d   1      52.339  29.984  52.725  0.00  0.00     0.019 C 
ENDROOT
BRANCH   6  14
ATOM     14  C   UNL d   1      53.914  33.192  54.022  0.00  0.00     0.001 A 
ATOM     15  C   UNL d   1      53.921  33.193  54.848  0.00  0.00     0.011 A 
ATOM     16  C   UNL d   1      54.624  33.320  55.255  0.00  0.00     0.058 A 
ATOM     17 CL   UNL d   1      54.624  33.319  56.083  0.00  0.00    -0.082 Cl
ATOM     18  C   UNL d   1      55.328  33.449  54.833  0.00  0.00     0.011 A 
ATOM     19  C   UNL d   1      55.322  33.449  54.008  0.00  0.00     0.001 A 
ATOM     20  C   UNL d   1      54.613  33.320  53.602  0.00  0.00     0.000 A 
ENDBRANCH   6  14
BRANCH   3  21
ATOM     21  C   UNL d   1      52.929  34.459  53.658  0.00  0.00     0.299 C 
ATOM     22  O   UNL d   1      53.447  34.897  53.193  0.00  0.00    -0.259 OA
BRANCH  21  23
ATOM     23  O   UNL d   1      52.622  34.791  54.349  0.00  0.00    -0.296 OA
ATOM     24  C   UNL d   1      52.576  35.616  54.437  0.00  0.00     0.185 C 
ENDBRANCH  21  23
ENDBRANCH   3  21
BRANCH   5  25
ATOM     25  C   UNL d   1      53.775  30.246  53.544  0.00  0.00     0.108 C 
BRANCH  25  26
ATOM     26  C   UNL d   1      53.588  29.745  54.172  0.00  0.00     0.118 A 
ATOM     27  O   UNL d   1      53.307  29.977  54.915  0.00  0.00    -0.304 OA
ATOM     28  C   UNL d   1      53.193  29.300  55.373  0.00  0.00     0.123 A 
ATOM     29  C   UNL d   1      53.402  28.648  54.914  0.00  0.00     0.029 A 
ATOM     30  C   UNL d   1      53.648  28.919  54.168  0.00  0.00     0.028 A 
ENDBRANCH  25  26
ENDBRANCH   5  25
TORSDOF 5
ENDMDL
MODEL 2
REMARK VINA RESULT:      -7.8      1.587      2.611
REMARK  5 active torsions:
REMARK  status: ('A' for Active; 'I' for Inactive)
REMARK    1  A    between atoms: C_12  and  C_3 
REMARK    2  A    between atoms: C_13  and  N_5 
REMARK    3  A    between atoms: C_11  and  C_6 
REMARK    4  A    between atoms: O_24  and  C_12 
REMARK    5  A    between atoms: C_14  and  C_13 
ROOT
ATOM      1  C   UNL d   1      53.303  32.935  53.566  0.00  0.00     0.080 A 
ATOM      2  C   UNL d   1      52.926  32.311  53.159  0.00  0.00     0.267 A 
ATOM      3  C   UNL d   1      53.301  34.278  54.037  0.00  0.00     0.106 A 
ATOM      4  C   UNL d   1      54.047  32.813  53.892  0.00  0.00     0.108 A 
ATOM      5  N   UNL d   1      53.301  31.573  53.086  0.00  0.00    -0.271 N 
ATOM      6  C   UNL d   1      52.931  33.667  53.638  0.00  0.00     0.015 A 
ATOM      7  C   UNL d   1      54.052  34.160  54.369  0.00  0.00     0.208 A 
ATOM      8  O   UNL d   1      54.425  33.428  54.296  0.00  0.00    -0.288 OA
ATOM      9  C   UNL d   1      54.427  32.084  53.825  0.00  0.00     0.043 A 
ATOM     10  C   UNL d   1      54.060  31.463  53.424  0.00  0.00     0.069 A 
ATOM     11  O   UNL d   1      52.171  32.428  52.825  0.00  0.00    -0.267 OA
ATOM     12  N   UNL d   1      54.426  34.778  54.772  0.00  0.00    -0.121 N 
ATOM     13  C   UNL d   1      54.442  30.723  53.354  0.00  0.00     0.019 C 
ENDROOT
BRANCH   6  14
ATOM     14  C   UNL d   1      52.184  33.781  53.308  0.00  0.00     0.001 A 
ATOM     15  C   UNL d   1      52.117  34.051  52.530  0.00  0.00     0.011 A 
ATOM     16  C   UNL d   1      51.374  34.166  52.195  0.00  0.00     0.058 A 
ATOM     17 CL   UNL d   1      51.313  34.436  51.415  0.00  0.00    -0.082 Cl
ATOM     18  C   UNL d   1      50.691  34.010  52.643  0.00  0.00     0.011 A 
ATOM     19  C   UNL d   1      50.758  33.741  53.420  0.00  0.00     0.001 A 
ATOM     20  C   UNL d   1      51.506  33.627  53.752  0.00  0.00     0.000 A 
ENDBRANCH   6  14
BRANCH   3  21
ATOM     21  C   UNL d   1      52.929  35.010  54.109  0.00  0.00     0.299 C 
ATOM     22  O   UNL d   1      52.941  35.546  53.487  0.00  0.00    -0.259 OA
BRANCH  21  23
ATOM     23  O   UNL d   1      52.539  35.209  54.811  0.00  0.00    -0.296 OA
ATOM     24  C   UNL d   1      52.505  35.999  55.065  0.00  0.00     0.185 C 
ENDBRANCH  21  23
ENDBRANCH   3  21
BRANCH   5  25
ATOM     25  C   UNL d   1      52.927  30.955  52.683  0.00  0.00     0.108 C 
BRANCH  25  26
ATOM     26  C   UNL d   1      52.550  30.355  53.105  0.00  0.00     0.118 A 
ATOM     27  O   UNL d   1      51.775  30.375  53.396  0.00  0.00    -0.304 OA
ATOM     28  C   UNL d   1      51.625  29.662  53.782  0.00  0.00     0.123 A 
ATOM     29  C   UNL d   1      52.305  29.199  53.731  0.00  0.00     0.029 A 
ATOM     30  C   UNL d   1      52.882  29.625  53.311  0.00  0.00     0.028 A 
ENDBRANCH  25  26
ENDBRANCH   5  25
TORSDOF 5
ENDMDL
MODEL 3
REMARK VINA RESULT:      -7.6      0.816      3.697
REMARK  5 active torsions:
REMARK  status: ('A' for Active; 'I' for Inactive)
REMARK    1  A    between atoms: C_12  and  C_3 
REMARK    2  A    between atoms: C_13  and  N_5 
REMARK    3  A    between atoms: C_11  and  C_6 
REMARK    4  A    between atoms: O_24  and  C_12 
REMARK    5  A    between atoms: C_14  and  C_13 
ROOT
ATOM      1  C   UNL d   1      52.645  32.737  53.151  0.00  0.00     0.080 A 
ATOM      2  C   UNL d   1      52.818  33.553  53.189  0.00  0.00     0.267 A 
ATOM      3  C   UNL d   1      53.022  31.386  53.397  0.00  0.00     0.106 A 
ATOM      4  C   UNL d   1      51.931  32.488  52.832  0.00  0.00     0.108 A 
ATOM      5  N   UNL d   1      52.269  34.109  52.904  0.00  0.00    -0.271 N 
ATOM      6  C   UNL d   1      53.190  32.186  53.434  0.00  0.00     0.015 A 
ATOM      7  C   UNL d   1      52.302  31.130  53.075  0.00  0.00     0.208 A 
ATOM      8  O   UNL d   1      51.756  31.681  52.793  0.00  0.00    -0.288 OA
ATOM      9  C   UNL d   1      51.380  33.032  52.547  0.00  0.00     0.043 A 
ATOM     10  C   UNL d   1      51.543  33.841  52.580  0.00  0.00     0.069 A 
ATOM     11  O   UNL d   1      53.541  33.813  53.512  0.00  0.00    -0.267 OA
ATOM     12  N   UNL d   1      52.131  30.322  53.038  0.00  0.00    -0.121 N 
ATOM     13  C   UNL d   1      50.988  34.395  52.292  0.00  0.00     0.019 C 
ENDROOT
BRANCH   6  14
ATOM     14  C   UNL d   1      53.905  32.444  53.753  0.00  0.00     0.001 A 
ATOM     15  C   UNL d   1      53.958  32.609  54.561  0.00  0.00     0.011 A 
ATOM     16  C   UNL d   1      54.670  32.867  54.884  0.00  0.00     0.058 A 
ATOM     17 CL   UNL d   1      54.716  33.032  55.694  0.00  0.00    -0.082 Cl
ATOM     18  C   UNL d   1      55.335  32.960  54.395  0.00  0.00     0.011 A 
ATOM     19  C   UNL d   1      55.283  32.795  53.589  0.00  0.00     0.001 A 
ATOM     20  C   UNL d   1      54.567  32.536  53.268  0.00  0.00     0.000 A 
ENDBRANCH   6  14
BRANCH   3  21
ATOM     21  C   UNL d   1      53.566  30.836  53.680  0.00  0.00     0.299 C 
ATOM     22  O   UNL d   1      54.233  30.646  53.238  0.00  0.00    -0.259 OA
BRANCH  21  23
ATOM     23  O   UNL d   1      53.444  30.470  54.411  0.00  0.00    -0.296 OA
ATOM     24  C   UNL d   1      53.623  29.666  54.516  0.00  0.00     0.185 C 
ENDBRANCH  21  23
ENDBRANCH   3  21
BRANCH   5  25
ATOM     25  C   UNL d   1      52.439  34.917  52.941  0.00  0.00     0.108 C 
BRANCH  25  26
ATOM     26  C   UNL d   1      52.445  35.305  53.669  0.00  0.00     0.118 A 
ATOM     27  O   UNL d   1      51.843  35.285  54.237  0.00  0.00    -0.304 OA
ATOM     28  C   UNL d   1      52.076  35.749  54.878  0.00  0.00     0.123 A 
ATOM     29  C   UNL d   1      52.822  36.057  54.708  0.00  0.00     0.029 A 
ATOM     30  C   UNL d   1      53.054  35.785  53.959  0.00  0.00     0.028 A 
ENDBRANCH  25  26
ENDBRANCH   5  25
TORSDOF 5
ENDMDL
