MODEL 1
REMARK VINA RESULT:      76.8      0.000      0.000
REMARK  4 active torsions:
REMARK  status: ('A' for Active; 'I' for Inactive)
REMARK    1  A    between atoms: N_8  and  C_1 
REMARK    2  A    between atoms: C_13  and  C_2 
REMARK    3  A    between atoms: C_6  and  C_11 
REMARK       I    between atoms: C_11  and  N_8 
REMARK    4  A    between atoms: O_20  and  C_13 
ROOT
ATOM      1  C   UNL d   1      13.787  15.050  -4.066  0.00  0.00     0.119 A 
ATOM      2  C   UNL d   1      14.086  14.723  -3.369  0.00  0.00     0.087 A 
ATOM      3  C   UNL d   1      13.885  13.928  -3.362  0.00  0.00     0.008 A 
ATOM      4  C   UNL d   1      13.467  13.758  -4.041  0.00  0.00     0.028 A 
ATOM      5  S   UNL d   1      13.401  14.452  -4.486  0.00  0.00    -0.070 SA
ATOM      6  C   UNL d   1      13.190  12.988  -4.184  0.00  0.00     0.104 A 
ATOM      7  N   UNL d   1      13.338  12.394  -3.635  0.00  0.00    -0.294 NA
ATOM      8  C   UNL d   1      13.763  12.567  -2.945  0.00  0.00     0.099 A 
ATOM      9  C   UNL d   1      14.037  13.334  -2.806  0.00  0.00    -0.004 A 
ATOM     10  C   UNL d   1      12.842  12.306  -4.496  0.00  0.00     0.029 C 
ATOM     11  C   UNL d   1      12.942  13.424  -4.838  0.00  0.00     0.029 C 
ATOM     12  C   UNL d   1      14.187  12.740  -2.256  0.00  0.00     0.029 C 
ATOM     13  C   UNL d   1      13.492  11.800  -3.078  0.00  0.00     0.029 C 
ENDROOT
BRANCH   1  14
ATOM     14  N   UNL d   1      13.857  15.839  -4.307  0.00  0.00    -0.200 NA
ATOM     15  C   UNL d   1      13.990  16.018  -5.102  0.00  0.00     0.303 C 
ATOM     16  O   UNL d   1      14.051  15.410  -5.652  0.00  0.00    -0.263 OA
BRANCH  15  17
ATOM     17  C   UNL d   1      14.059  16.794  -5.339  0.00  0.00     0.169 A 
ATOM     18  N   UNL d   1      14.658  17.332  -5.128  0.00  0.00    -0.234 NA
ATOM     19  C   UNL d   1      14.494  18.055  -5.506  0.00  0.00     0.088 A 
ATOM     20  C   UNL d   1      14.882  18.784  -5.508  0.00  0.00     0.020 A 
ATOM     21  C   UNL d   1      13.797  17.938  -5.938  0.00  0.00     0.049 A 
ATOM     22  C   UNL d   1      14.573  19.404  -5.947  0.00  0.00     0.002 A 
ATOM     23  C   UNL d   1      13.878  19.302  -6.384  0.00  0.00     0.001 A 
ATOM     24  C   UNL d   1      13.494  18.579  -6.381  0.00  0.00     0.008 A 
ATOM     25  S   UNL d   1      13.546  17.177  -5.830  0.00  0.00    -0.062 SA
ENDBRANCH  15  17
ENDBRANCH   1  14
BRANCH   2  26
ATOM     26  C   UNL d   1      14.506  15.133  -2.798  0.00  0.00     0.298 C 
ATOM     27  O   UNL d   1      15.332  15.157  -2.847  0.00  0.00    -0.259 OA
BRANCH  26  28
ATOM     28  O   UNL d   1      14.109  15.519  -2.175  0.00  0.00    -0.296 OA
ATOM     29  C   UNL d   1      14.541  15.912  -1.595  0.00  0.00     0.185 C 
ENDBRANCH  26  28
ENDBRANCH   2  26
TORSDOF 4
ENDMDL
MODEL 2
REMARK VINA RESULT:      79.1      1.355      1.891
REMARK  4 active torsions:
REMARK  status: ('A' for Active; 'I' for Inactive)
REMARK    1  A    between atoms: N_8  and  C_1 
REMARK    2  A    between atoms: C_13  and  C_2 
REMARK    3  A    between atoms: C_6  and  C_11 
REMARK       I    between atoms: C_11  and  N_8 
REMARK    4  A    between atoms: O_20  and  C_13 
ROOT
ATOM      1  C   UNL d   1      14.541  14.574  -2.478  0.00  0.00     0.119 A 
ATOM      2  C   UNL d   1      14.799  14.498  -1.698  0.00  0.00     0.087 A 
ATOM      3  C   UNL d   1      14.630  13.734  -1.453  0.00  0.00     0.008 A 
ATOM      4  C   UNL d   1      14.271  13.336  -2.068  0.00  0.00     0.028 A 
ATOM      5  S   UNL d   1      14.212  13.853  -2.711  0.00  0.00    -0.070 SA
ATOM      6  C   UNL d   1      14.036  12.545  -1.978  0.00  0.00     0.104 A 
ATOM      7  N   UNL d   1      14.166  12.160  -1.262  0.00  0.00    -0.294 NA
ATOM      8  C   UNL d   1      14.530  12.564  -0.638  0.00  0.00     0.099 A 
ATOM      9  C   UNL d   1      14.763  13.352  -0.731  0.00  0.00    -0.004 A 
ATOM     10  C   UNL d   1      13.739  11.779  -2.080  0.00  0.00     0.029 C 
ATOM     11  C   UNL d   1      13.821  12.740  -2.750  0.00  0.00     0.029 C 
ATOM     12  C   UNL d   1      14.893  12.968  -0.014  0.00  0.00     0.029 C 
ATOM     13  C   UNL d   1      14.300  11.779  -0.539  0.00  0.00     0.029 C 
ENDROOT
BRANCH   1  14
ATOM     14  N   UNL d   1      14.599  15.251  -2.951  0.00  0.00    -0.200 NA
ATOM     15  C   UNL d   1      14.314  15.241  -3.725  0.00  0.00     0.303 C 
ATOM     16  O   UNL d   1      13.972  14.556  -4.025  0.00  0.00    -0.263 OA
BRANCH  15  17
ATOM     17  C   UNL d   1      14.371  15.908  -4.189  0.00  0.00     0.169 A 
ATOM     18  N   UNL d   1      14.806  16.598  -4.025  0.00  0.00    -0.234 NA
ATOM     19  C   UNL d   1      14.694  17.125  -4.660  0.00  0.00     0.088 A 
ATOM     20  C   UNL d   1      14.979  17.884  -4.812  0.00  0.00     0.020 A 
ATOM     21  C   UNL d   1      14.193  16.739  -5.196  0.00  0.00     0.049 A 
ATOM     22  C   UNL d   1      14.763  18.267  -5.505  0.00  0.00     0.002 A 
ATOM     23  C   UNL d   1      14.263  17.894  -6.049  0.00  0.00     0.001 A 
ATOM     24  C   UNL d   1      13.981  17.140  -5.898  0.00  0.00     0.008 A 
ATOM     25  S   UNL d   1      14.006  16.010  -4.902  0.00  0.00    -0.062 SA
ENDBRANCH  15  17
ENDBRANCH   1  14
BRANCH   2  26
ATOM     26  C   UNL d   1      15.159  15.089  -1.260  0.00  0.00     0.298 C 
ATOM     27  O   UNL d   1      15.981  15.072  -1.160  0.00  0.00    -0.259 OA
BRANCH  26  28
ATOM     28  O   UNL d   1      14.706  15.700  -0.919  0.00  0.00    -0.296 OA
ATOM     29  C   UNL d   1      15.067  16.406  -0.699  0.00  0.00     0.185 C 
ENDBRANCH  26  28
ENDBRANCH   2  26
TORSDOF 4
ENDMDL
