MODEL 1
REMARK VINA RESULT:      -2.7      0.000      0.000
REMARK  6 active torsions:
REMARK  status: ('A' for Active; 'I' for Inactive)
REMARK    1  A    between atoms: C_19  and  N_1 
REMARK    2  A    between atoms: S_12  and  C_2 
REMARK       I    between atoms: N_7  and  C_10 
REMARK    3  A    between atoms: C_10  and  C_23 
REMARK    4  A    between atoms: C_23  and  S_12 
REMARK    5  A    between atoms: O_26  and  C_17 
REMARK    6  A    between atoms: O_27  and  C_18 
ROOT
ATOM      1  S   UNL d   1      58.461  -0.640  29.740  0.00  0.00    -0.044 SA
ENDROOT
BRANCH   1   2
ATOM      2  C   UNL d   1      58.714  -1.377  29.478  0.00  0.00     0.183 A 
ATOM      3  N   UNL d   1      59.468  -1.462  29.145  0.00  0.00    -0.254 N 
ATOM      4  C   UNL d   1      59.725  -2.201  28.882  0.00  0.00     0.271 A 
ATOM      5  C   UNL d   1      59.228  -2.859  28.950  0.00  0.00     0.115 A 
ATOM      6  O   UNL d   1      60.483  -2.280  28.548  0.00  0.00    -0.266 OA
ATOM      7  C   UNL d   1      58.472  -2.770  29.285  0.00  0.00     0.192 A 
ATOM      8  C   UNL d   1      59.324  -3.653  28.742  0.00  0.00     0.130 A 
ATOM      9  N   UNL d   1      58.110  -3.512  29.279  0.00  0.00    -0.128 NA
ATOM     10  N   UNL d   1      58.218  -2.034  29.547  0.00  0.00    -0.201 NA
ATOM     11  N   UNL d   1      58.629  -4.048  28.949  0.00  0.00    -0.145 NA
BRANCH   3  12
ATOM     12  C   UNL d   1      59.962  -0.807  29.077  0.00  0.00     0.069 A 
ATOM     13  C   UNL d   1      60.625  -0.740  29.563  0.00  0.00     0.018 A 
ATOM     14  C   UNL d   1      61.124  -0.079  29.494  0.00  0.00     0.002 A 
ATOM     15  C   UNL d   1      60.955   0.508  28.940  0.00  0.00     0.000 A 
ATOM     16  C   UNL d   1      60.295   0.440  28.457  0.00  0.00     0.002 A 
ATOM     17  C   UNL d   1      59.795  -0.222  28.526  0.00  0.00     0.018 A 
ENDBRANCH   3  12
ENDBRANCH   1   2
BRANCH   1  18
ATOM     18  C   UNL d   1      57.794  -0.581  30.222  0.00  0.00     0.099 C 
BRANCH  18  19
ATOM     19  C   UNL d   1      57.834  -0.166  30.930  0.00  0.00     0.271 C 
ATOM     20  N   UNL d   1      57.271  -0.300  31.523  0.00  0.00    -0.272 N 
ATOM     21  C   UNL d   1      57.310   0.116  32.235  0.00  0.00     0.083 A 
ATOM     22  C   UNL d   1      56.671  -0.849  31.401  0.00  0.00     0.083 A 
ATOM     23  C   UNL d   1      56.750  -0.019  32.820  0.00  0.00     0.020 A 
ATOM     24  C   UNL d   1      56.791   0.396  33.527  0.00  0.00     0.028 A 
ATOM     25  C   UNL d   1      56.149  -0.568  32.698  0.00  0.00     0.005 A 
ATOM     26  C   UNL d   1      56.227   0.263  34.121  0.00  0.00     0.116 A 
ATOM     27  C   UNL d   1      55.627  -0.287  33.999  0.00  0.00     0.116 A 
ATOM     28  C   UNL d   1      55.590  -0.703  33.283  0.00  0.00     0.026 A 
ATOM     29  C   UNL d   1      56.109  -0.983  31.990  0.00  0.00     0.019 A 
ATOM     30  O   UNL d   1      58.436   0.382  31.048  0.00  0.00    -0.266 OA
BRANCH  26  31
ATOM     31  O   UNL d   1      56.266   0.679  34.833  0.00  0.00    -0.326 OA
ATOM     32  C   UNL d   1      56.950   0.659  35.291  0.00  0.00     0.181 C 
ENDBRANCH  26  31
BRANCH  27  33
ATOM     33  O   UNL d   1      55.056  -0.429  34.586  0.00  0.00    -0.326 OA
ATOM     34  C   UNL d   1      54.346  -0.012  34.586  0.00  0.00     0.181 C 
ENDBRANCH  27  33
ENDBRANCH  18  19
ENDBRANCH   1  18
TORSDOF 6
ENDMDL
