MODEL 1
REMARK VINA RESULT:      78.9      0.000      0.000
REMARK  6 active torsions:
REMARK  status: ('A' for Active; 'I' for Inactive)
REMARK    1  A    between atoms: C_3  and  N_1 
REMARK    2  A    between atoms: N_9  and  C_3 
REMARK    3  A    between atoms: C_7  and  C_4 
REMARK    4  A    between atoms: C_8  and  C_5 
REMARK    5  A    between atoms: C_16  and  N_9 
REMARK    6  A    between atoms: O_17  and  C_13 
ROOT
ATOM      1  N   UNL d   1     -51.228  26.207  35.001  0.00  0.00    -0.201 N 
ATOM      2  N   UNL d   1     -51.600  26.036  35.719  0.00  0.00    -0.163 NA
ATOM      3  C   UNL d   1     -51.200  26.452  36.313  0.00  0.00     0.105 A 
ATOM      4  C   UNL d   1     -50.602  26.722  35.133  0.00  0.00     0.110 A 
ATOM      5  C   UNL d   1     -50.609  26.855  35.952  0.00  0.00     0.042 A 
ENDROOT
BRANCH   1   6
ATOM      6  C   UNL d   1     -51.449  25.908  34.264  0.00  0.00     0.222 C 
ATOM      7  S   UNL d   1     -52.171  26.296  34.333  0.00  0.00    -0.037 SA
BRANCH   6   8
ATOM      8  N   UNL d   1     -51.663  25.602  33.520  0.00  0.00    -0.217 NA
BRANCH   8   9
ATOM      9  C   UNL d   1     -51.900  24.837  33.464  0.00  0.00     0.084 A 
ATOM     10  C   UNL d   1     -51.347  24.212  33.414  0.00  0.00     0.019 A 
ATOM     11  C   UNL d   1     -51.620  23.441  33.358  0.00  0.00     0.002 A 
ATOM     12  C   UNL d   1     -52.406  23.266  33.349  0.00  0.00     0.000 A 
ATOM     13  C   UNL d   1     -52.975  23.872  33.399  0.00  0.00     0.002 A 
ATOM     14  C   UNL d   1     -52.722  24.657  33.456  0.00  0.00     0.019 A 
ENDBRANCH   8   9
ENDBRANCH   6   8
ENDBRANCH   1   6
BRANCH   4  15
ATOM     15  C   UNL d   1     -49.979  27.095  34.445  0.00  0.00     0.118 A 
ATOM     16  O   UNL d   1     -49.479  27.781  34.537  0.00  0.00    -0.304 OA
ATOM     17  C   UNL d   1     -49.058  27.895  33.841  0.00  0.00     0.123 A 
ATOM     18  C   UNL d   1     -49.274  27.303  33.309  0.00  0.00     0.029 A 
ATOM     19  C   UNL d   1     -49.818  26.827  33.659  0.00  0.00     0.028 A 
ENDBRANCH   4  15
BRANCH   3  20
ATOM     20  C   UNL d   1     -51.400  26.440  37.172  0.00  0.00     0.042 A 
ATOM     21  C   UNL d   1     -51.699  26.237  37.885  0.00  0.00     0.096 A 
ATOM     22  C   UNL d   1     -51.517  26.696  38.485  0.00  0.00     0.024 A 
ATOM     23  C   UNL d   1     -51.038  27.362  38.398  0.00  0.00     0.002 A 
ATOM     24  C   UNL d   1     -50.741  27.569  37.711  0.00  0.00     0.000 A 
ATOM     25  C   UNL d   1     -50.921  27.106  37.085  0.00  0.00     0.004 A 
BRANCH  21  26
ATOM     26  O   UNL d   1     -52.178  25.571  37.972  0.00  0.00    -0.328 OA
ATOM     27  C   UNL d   1     -52.546  25.473  38.618  0.00  0.00     0.181 C 
ENDBRANCH  21  26
ENDBRANCH   3  20
TORSDOF 6
ENDMDL
MODEL 2
REMARK VINA RESULT:      81.3      1.309      4.001
REMARK  6 active torsions:
REMARK  status: ('A' for Active; 'I' for Inactive)
REMARK    1  A    between atoms: C_3  and  N_1 
REMARK    2  A    between atoms: N_9  and  C_3 
REMARK    3  A    between atoms: C_7  and  C_4 
REMARK    4  A    between atoms: C_8  and  C_5 
REMARK    5  A    between atoms: C_16  and  N_9 
REMARK    6  A    between atoms: O_17  and  C_13 
ROOT
ATOM      1  N   UNL d   1     -51.235  26.285  34.803  0.00  0.00    -0.201 N 
ATOM      2  N   UNL d   1     -51.618  25.552  34.814  0.00  0.00    -0.163 NA
ATOM      3  C   UNL d   1     -51.744  25.325  34.028  0.00  0.00     0.105 A 
ATOM      4  C   UNL d   1     -51.119  26.522  34.025  0.00  0.00     0.110 A 
ATOM      5  C   UNL d   1     -51.444  25.909  33.569  0.00  0.00     0.042 A 
ENDROOT
BRANCH   1   6
ATOM      6  C   UNL d   1     -51.003  26.714  35.468  0.00  0.00     0.222 C 
ATOM      7  S   UNL d   1     -50.526  26.085  35.698  0.00  0.00    -0.037 SA
BRANCH   6   8
ATOM      8  N   UNL d   1     -50.776  27.155  36.137  0.00  0.00    -0.217 NA
BRANCH   8   9
ATOM      9  C   UNL d   1     -50.987  26.897  36.867  0.00  0.00     0.084 A 
ATOM     10  C   UNL d   1     -50.934  27.394  37.537  0.00  0.00     0.019 A 
ATOM     11  C   UNL d   1     -51.157  27.101  38.269  0.00  0.00     0.002 A 
ATOM     12  C   UNL d   1     -51.428  26.349  38.364  0.00  0.00     0.000 A 
ATOM     13  C   UNL d   1     -51.490  25.836  37.711  0.00  0.00     0.002 A 
ATOM     14  C   UNL d   1     -51.270  26.110  36.963  0.00  0.00     0.019 A 
ENDBRANCH   8   9
ENDBRANCH   6   8
ENDBRANCH   1   6
BRANCH   4  15
ATOM     15  C   UNL d   1     -50.681  27.366  33.715  0.00  0.00     0.118 A 
ATOM     16  O   UNL d   1     -51.072  28.110  33.564  0.00  0.00    -0.304 OA
ATOM     17  C   UNL d   1     -50.509  28.657  33.319  0.00  0.00     0.123 A 
ATOM     18  C   UNL d   1     -49.773  28.284  33.310  0.00  0.00     0.029 A 
ATOM     19  C   UNL d   1     -49.867  27.521  33.543  0.00  0.00     0.028 A 
ENDBRANCH   4  15
BRANCH   3  20
ATOM     20  C   UNL d   1     -52.136  24.580  33.766  0.00  0.00     0.042 A 
ATOM     21  C   UNL d   1     -52.276  23.818  33.565  0.00  0.00     0.096 A 
ATOM     22  C   UNL d   1     -52.999  23.642  33.341  0.00  0.00     0.024 A 
ATOM     23  C   UNL d   1     -53.598  24.208  33.309  0.00  0.00     0.002 A 
ATOM     24  C   UNL d   1     -53.475  24.950  33.501  0.00  0.00     0.000 A 
ATOM     25  C   UNL d   1     -52.736  25.146  33.734  0.00  0.00     0.004 A 
BRANCH  21  26
ATOM     26  O   UNL d   1     -51.677  23.252  33.597  0.00  0.00    -0.328 OA
ATOM     27  C   UNL d   1     -51.002  23.425  33.317  0.00  0.00     0.181 C 
ENDBRANCH  21  26
ENDBRANCH   3  20
TORSDOF 6
ENDMDL
