MODEL 1
REMARK VINA RESULT:      63.2      0.000      0.000
REMARK  8 active torsions:
REMARK  status: ('A' for Active; 'I' for Inactive)
REMARK    1  A    between atoms: N_3  and  S_1 
REMARK    2  A    between atoms: C_5  and  S_1 
REMARK    3  A    between atoms: N_2  and  C_7 
REMARK    4  A    between atoms: C_6  and  N_3 
REMARK    5  A    between atoms: C_18  and  N_4 
REMARK    6  A    between atoms: C_7  and  C_6 
REMARK    7  A    between atoms: C_12  and  C_7 
REMARK    8  A    between atoms: O_23  and  C_17 
ROOT
ATOM      1  C   UNL d   1     -55.024-100.512 -43.333  0.00  0.00     0.086 C 
ENDROOT
BRANCH   1   2
ATOM      2  N   UNL d   1     -54.979-100.823 -42.562  0.00  0.00    -0.300 N 
ATOM      3  C   UNL d   1     -55.151-101.616 -42.432  0.00  0.00     0.100 A 
ATOM      4  C   UNL d   1     -55.108-101.928 -41.670  0.00  0.00     0.100 A 
ATOM      5  N   UNL d   1     -54.891-101.444 -41.040  0.00  0.00    -0.301 N 
ATOM      6  C   UNL d   1     -54.718-100.648 -41.172  0.00  0.00     0.100 A 
ATOM      7  C   UNL d   1     -54.762-100.339 -41.932  0.00  0.00     0.100 A 
BRANCH   5   8
ATOM      8  C   UNL d   1     -54.847-101.752 -40.280  0.00  0.00     0.064 A 
ATOM      9  C   UNL d   1     -54.893-101.250 -39.625  0.00  0.00     0.018 A 
ATOM     10  C   UNL d   1     -54.849-101.559 -38.865  0.00  0.00     0.002 A 
ATOM     11  C   UNL d   1     -54.758-102.375 -38.753  0.00  0.00     0.000 A 
ATOM     12  C   UNL d   1     -54.712-102.877 -39.408  0.00  0.00     0.002 A 
ATOM     13  C   UNL d   1     -54.756-102.568 -40.168  0.00  0.00     0.018 A 
ENDBRANCH   5   8
ENDBRANCH   1   2
BRANCH   1  14
ATOM     14  C   UNL d   1     -54.878 -99.710 -43.461  0.00  0.00     0.130 C 
BRANCH  14  15
ATOM     15  N   UNL d   1     -55.511 -99.190 -43.600  0.00  0.00    -0.155 NA
BRANCH  15  16
ATOM     16  S   UNL d   1     -55.727 -99.002 -44.370  0.00  0.00     0.285 S 
ATOM     17  O   UNL d   1     -54.858 -99.066 -44.637  0.00  0.00    -0.198 OA
ATOM     18  O   UNL d   1     -55.947 -98.826 -45.078  0.00  0.00    -0.198 OA
BRANCH  16  19
ATOM     19  C   UNL d   1     -56.517 -98.942 -44.133  0.00  0.00     0.105 A 
ATOM     20  C   UNL d   1     -57.110 -98.882 -44.698  0.00  0.00     0.015 A 
ATOM     21  C   UNL d   1     -57.903 -98.822 -44.465  0.00  0.00     0.023 A 
ATOM     22  C   UNL d   1     -58.499 -98.761 -45.035  0.00  0.00     0.002 C 
ATOM     23  C   UNL d   1     -58.097 -98.823 -43.656  0.00  0.00     0.094 A 
ATOM     24  C   UNL d   1     -57.496 -98.883 -43.090  0.00  0.00     0.025 A 
ATOM     25  C   UNL d   1     -56.711 -98.943 -43.324  0.00  0.00     0.015 A 
BRANCH  23  26
ATOM     26  O   UNL d   1     -58.886 -98.763 -43.419  0.00  0.00    -0.328 OA
ATOM     27  C   UNL d   1     -59.496 -99.025 -43.921  0.00  0.00     0.181 C 
ENDBRANCH  23  26
ENDBRANCH  16  19
ENDBRANCH  15  16
ENDBRANCH  14  15
ENDBRANCH   1  14
BRANCH   1  28
ATOM     28  C   UNL d   1     -55.214-101.002 -43.967  0.00  0.00     0.037 A 
ATOM     29  C   UNL d   1     -55.910-101.443 -43.951  0.00  0.00     0.100 A 
ATOM     30  N   UNL d   1     -56.101-101.935 -44.589  0.00  0.00    -0.242 NA
ATOM     31  C   UNL d   1     -55.595-101.983 -45.238  0.00  0.00     0.099 A 
ATOM     32  C   UNL d   1     -54.902-101.543 -45.251  0.00  0.00     0.021 A 
ATOM     33  C   UNL d   1     -54.711-101.050 -44.614  0.00  0.00     0.005 A 
ENDBRANCH   1  28
TORSDOF 8
ENDMDL
