MODEL 1
REMARK VINA RESULT:       9.0      0.000      0.000
REMARK  4 active torsions:
REMARK  status: ('A' for Active; 'I' for Inactive)
REMARK    1  A    between atoms: C_9  and  C_3 
REMARK    2  A    between atoms: C_6  and  C_10 
REMARK    3  A    between atoms: S_8  and  C_9 
REMARK    4  A    between atoms: C_10  and  S_8 
ROOT
ATOM      1  C   UNL d   1      46.119 -17.055  44.774  0.00  0.00     0.074 C 
ENDROOT
BRANCH   1   2
ATOM      2  S   UNL d   1      45.821 -16.371  44.422  0.00  0.00    -0.083 SA
BRANCH   2   3
ATOM      3  C   UNL d   1      45.487 -15.795  44.911  0.00  0.00     0.035 C 
BRANCH   3   4
ATOM      4  C   UNL d   1      45.564 -15.004  44.691  0.00  0.00     0.006 A 
ATOM      5  C   UNL d   1      44.890 -14.527  44.718  0.00  0.00     0.001 A 
ATOM      6  C   UNL d   1      44.156 -14.820  44.955  0.00  0.00     0.000 C 
ATOM      7  C   UNL d   1      44.943 -13.719  44.500  0.00  0.00     0.000 A 
ATOM      8  C   UNL d   1      45.660 -13.413  44.263  0.00  0.00     0.000 A 
ATOM      9  C   UNL d   1      46.313 -13.909  44.246  0.00  0.00     0.000 A 
ATOM     10  C   UNL d   1      46.257 -14.718  44.465  0.00  0.00     0.001 A 
ENDBRANCH   3   4
ENDBRANCH   2   3
ENDBRANCH   1   2
BRANCH   1  11
ATOM     11  C   UNL d   1      46.232 -17.735  44.321  0.00  0.00     0.169 A 
ATOM     12  N   UNL d   1      46.376 -18.488  44.639  0.00  0.00    -0.225 NA
ATOM     13  C   UNL d   1      46.456 -19.011  43.992  0.00  0.00     0.101 A 
ATOM     14  C   UNL d   1      46.356 -18.555  43.282  0.00  0.00     0.101 A 
ATOM     15  C   UNL d   1      46.599 -19.808  43.924  0.00  0.00     0.021 A 
ATOM     16  N   UNL d   1      46.218 -17.764  43.514  0.00  0.00    -0.225 NA
ATOM     17  C   UNL d   1      46.408 -18.936  42.566  0.00  0.00     0.021 A 
ATOM     18  C   UNL d   1      46.547 -19.708  42.513  0.00  0.00     0.002 A 
ATOM     19  C   UNL d   1      46.647 -20.165  43.223  0.00  0.00     0.002 A 
ENDBRANCH   1  11
TORSDOF 4
ENDMDL
