MODEL 1
REMARK VINA RESULT:      35.7      0.000      0.000
REMARK  4 active torsions:
REMARK  status: ('A' for Active; 'I' for Inactive)
REMARK    1  A    between atoms: N_3  and  C_1 
REMARK       I    between atoms: C_5  and  N_3 
REMARK    2  A    between atoms: C_15  and  C_5 
REMARK    3  A    between atoms: C_8  and  C_9 
REMARK    4  A    between atoms: O_16  and  C_8 
ROOT
ATOM      1  C   UNL d   1     -54.719-101.211 -40.807  0.00  0.00     0.197 A 
ATOM      2  N   UNL d   1     -54.713-102.037 -40.695  0.00  0.00    -0.221 NA
ATOM      3  S   UNL d   1     -54.733-100.856 -40.064  0.00  0.00    -0.047 SA
ATOM      4  C   UNL d   1     -54.736-101.448 -39.487  0.00  0.00     0.050 A 
ATOM      5  C   UNL d   1     -54.723-102.184 -39.880  0.00  0.00     0.090 A 
ATOM      6  C   UNL d   1     -54.748-102.117 -38.235  0.00  0.00     0.064 A 
ATOM      7  C   UNL d   1     -54.748-101.421 -38.662  0.00  0.00     0.013 A 
ATOM      8  C   UNL d   1     -54.723-102.878 -39.442  0.00  0.00     0.020 A 
ATOM      9  C   UNL d   1     -54.735-102.854 -38.629  0.00  0.00     0.007 A 
ENDROOT
BRANCH   1  10
ATOM     10  N   UNL d   1     -54.712-100.821 -41.536  0.00  0.00    -0.183 NA
ATOM     11  C   UNL d   1     -54.846-101.243 -42.231  0.00  0.00     0.281 C 
ATOM     12  O   UNL d   1     -54.987-102.055 -42.199  0.00  0.00    -0.265 OA
BRANCH  11  13
ATOM     13  C   UNL d   1     -54.839-100.860 -42.948  0.00  0.00     0.058 A 
ATOM     14  C   UNL d   1     -54.760-100.032 -42.974  0.00  0.00     0.005 A 
ATOM     15  C   UNL d   1     -54.753 -99.643 -43.703  0.00  0.00     0.000 A 
ATOM     16  C   UNL d   1     -54.825-100.081 -44.406  0.00  0.00     0.000 A 
ATOM     17  C   UNL d   1     -54.901-100.890 -44.371  0.00  0.00     0.000 A 
ATOM     18  C   UNL d   1     -54.908-101.280 -43.643  0.00  0.00     0.005 A 
ENDBRANCH  11  13
ENDBRANCH   1  10
BRANCH   6  19
ATOM     19  C   UNL d   1     -54.760-102.105 -37.410  0.00  0.00     0.296 C 
ATOM     20  O   UNL d   1     -54.817-102.800 -36.984  0.00  0.00    -0.259 OA
BRANCH  19  21
ATOM     21  O   UNL d   1     -54.714-101.374 -37.018  0.00  0.00    -0.296 OA
ATOM     22  C   UNL d   1     -54.967-101.317 -36.239  0.00  0.00     0.185 C 
ENDBRANCH  19  21
ENDBRANCH   6  19
TORSDOF 4
ENDMDL
MODEL 2
REMARK VINA RESULT:      36.6      1.295      5.077
REMARK  4 active torsions:
REMARK  status: ('A' for Active; 'I' for Inactive)
REMARK    1  A    between atoms: N_3  and  C_1 
REMARK       I    between atoms: C_5  and  N_3 
REMARK    2  A    between atoms: C_15  and  C_5 
REMARK    3  A    between atoms: C_8  and  C_9 
REMARK    4  A    between atoms: O_16  and  C_8 
ROOT
ATOM      1  C   UNL d   1     -54.711-101.989 -40.692  0.00  0.00     0.197 A 
ATOM      2  N   UNL d   1     -54.711-102.519 -41.335  0.00  0.00    -0.221 NA
ATOM      3  S   UNL d   1     -54.712-101.224 -40.996  0.00  0.00    -0.047 SA
ATOM      4  C   UNL d   1     -54.712-101.266 -41.822  0.00  0.00     0.050 A 
ATOM      5  C   UNL d   1     -54.712-102.074 -42.033  0.00  0.00     0.090 A 
ATOM      6  C   UNL d   1     -54.713-100.907 -43.195  0.00  0.00     0.064 A 
ATOM      7  C   UNL d   1     -54.713-100.686 -42.408  0.00  0.00     0.013 A 
ATOM      8  C   UNL d   1     -54.712-102.285 -42.826  0.00  0.00     0.020 A 
ATOM      9  C   UNL d   1     -54.713-101.715 -43.406  0.00  0.00     0.007 A 
ENDROOT
BRANCH   1  10
ATOM     10  N   UNL d   1     -54.711-102.198 -39.892  0.00  0.00    -0.183 NA
ATOM     11  C   UNL d   1     -54.763-101.614 -39.312  0.00  0.00     0.281 C 
ATOM     12  O   UNL d   1     -54.814-100.820 -39.531  0.00  0.00    -0.265 OA
BRANCH  11  13
ATOM     13  C   UNL d   1     -54.762-101.819 -38.525  0.00  0.00     0.058 A 
ATOM     14  C   UNL d   1     -54.741-101.226 -37.942  0.00  0.00     0.005 A 
ATOM     15  C   UNL d   1     -54.741-101.435 -37.143  0.00  0.00     0.000 A 
ATOM     16  C   UNL d   1     -54.761-102.238 -36.926  0.00  0.00     0.000 A 
ATOM     17  C   UNL d   1     -54.781-102.811 -37.503  0.00  0.00     0.000 A 
ATOM     18  C   UNL d   1     -54.782-102.602 -38.302  0.00  0.00     0.005 A 
ENDBRANCH  11  13
ENDBRANCH   1  10
BRANCH   6  19
ATOM     19  C   UNL d   1     -54.714-100.338 -43.792  0.00  0.00     0.296 C 
ATOM     20  O   UNL d   1     -54.711-100.559 -44.579  0.00  0.00    -0.259 OA
BRANCH  19  21
ATOM     21  O   UNL d   1     -54.717 -99.534 -43.582  0.00  0.00    -0.296 OA
ATOM     22  C   UNL d   1     -54.911 -98.970 -44.145  0.00  0.00     0.185 C 
ENDBRANCH  19  21
ENDBRANCH   6  19
TORSDOF 4
ENDMDL
