MODEL 1
REMARK VINA RESULT:      46.1      0.000      0.000
REMARK  5 active torsions:
REMARK  status: ('A' for Active; 'I' for Inactive)
REMARK    1  A    between atoms: C_3  and  C_1 
REMARK    2  A    between atoms: N_4  and  C_3 
REMARK    3  A    between atoms: C_6  and  C_3 
REMARK    4  A    between atoms: C_21  and  N_9 
REMARK    5  A    between atoms: C_25  and  C_21 
ROOT
ATOM      1  C   UNL d   1      13.668  13.040  -3.613  0.00  0.00     0.073 C 
ENDROOT
BRANCH   1   2
ATOM      2  C   UNL d   1      13.701  12.725  -2.841  0.00  0.00     0.057 A 
ATOM      3  C   UNL d   1      14.400  12.719  -2.402  0.00  0.00     0.214 A 
ATOM      4  C   UNL d   1      14.424  12.409  -1.645  0.00  0.00     0.120 A 
ATOM      5  O   UNL d   1      15.082  13.029  -2.732  0.00  0.00    -0.285 OA
ATOM      6  N   UNL d   1      15.112  12.407  -1.225  0.00  0.00    -0.241 NA
ATOM      7  C   UNL d   1      13.736  12.096  -1.311  0.00  0.00     0.021 A 
ATOM      8  C   UNL d   1      15.138  12.096  -0.464  0.00  0.00     0.099 A 
ATOM      9  C   UNL d   1      14.450  11.783  -0.131  0.00  0.00     0.021 A 
ATOM     10  C   UNL d   1      13.744  11.785  -0.562  0.00  0.00     0.003 A 
ATOM     11  C   UNL d   1      13.032  12.097  -1.740  0.00  0.00     0.002 A 
ATOM     12  C   UNL d   1      13.013  12.413  -2.507  0.00  0.00     0.005 A 
ENDBRANCH   1   2
BRANCH   1  13
ATOM     13  N   UNL d   1      13.781  13.844  -3.718  0.00  0.00    -0.301 N 
ATOM     14  C   UNL d   1      13.159  14.321  -3.991  0.00  0.00     0.100 A 
ATOM     15  C   UNL d   1      13.257  15.126  -4.100  0.00  0.00     0.100 A 
ATOM     16  N   UNL d   1      14.008  15.473  -3.930  0.00  0.00    -0.297 N 
ATOM     17  C   UNL d   1      14.629  15.014  -3.661  0.00  0.00     0.100 A 
ATOM     18  C   UNL d   1      14.513  14.189  -3.554  0.00  0.00     0.100 A 
BRANCH  16  19
ATOM     19  C   UNL d   1      14.121  16.280  -4.036  0.00  0.00     0.126 C 
BRANCH  19  20
ATOM     20  C   UNL d   1      14.856  16.576  -4.208  0.00  0.00     0.253 C 
ATOM     21  O   UNL d   1      14.987  17.392  -4.235  0.00  0.00    -0.281 OA
ENDBRANCH  19  20
ENDBRANCH  16  19
ENDBRANCH   1  13
BRANCH   1  22
ATOM     22  C   UNL d   1      13.526  12.548  -4.248  0.00  0.00     0.046 A 
ATOM     23  S   UNL d   1      12.770  12.282  -4.416  0.00  0.00    -0.085 SA
ATOM     24  C   UNL d   1      12.815  11.815  -5.066  0.00  0.00     0.035 A 
ATOM     25  C   UNL d   1      13.596  11.779  -5.316  0.00  0.00     0.007 A 
ATOM     26  C   UNL d   1      14.045  12.233  -4.811  0.00  0.00     0.009 A 
ENDBRANCH   1  22
TORSDOF 5
ENDMDL
MODEL 2
REMARK VINA RESULT:      46.2      2.007      3.465
REMARK  5 active torsions:
REMARK  status: ('A' for Active; 'I' for Inactive)
REMARK    1  A    between atoms: C_3  and  C_1 
REMARK    2  A    between atoms: N_4  and  C_3 
REMARK    3  A    between atoms: C_6  and  C_3 
REMARK    4  A    between atoms: C_21  and  N_9 
REMARK    5  A    between atoms: C_25  and  C_21 
ROOT
ATOM      1  C   UNL d   1      14.256  13.345  -1.382  0.00  0.00     0.073 C 
ENDROOT
BRANCH   1   2
ATOM      2  C   UNL d   1      13.941  13.290  -2.153  0.00  0.00     0.057 A 
ATOM      3  C   UNL d   1      13.925  12.577  -2.567  0.00  0.00     0.214 A 
ATOM      4  C   UNL d   1      13.614  12.532  -3.324  0.00  0.00     0.120 A 
ATOM      5  O   UNL d   1      14.225  11.902  -2.214  0.00  0.00    -0.285 OA
ATOM      6  N   UNL d   1      13.603  11.830  -3.720  0.00  0.00    -0.241 NA
ATOM      7  C   UNL d   1      13.311  13.213  -3.680  0.00  0.00     0.021 A 
ATOM      8  C   UNL d   1      13.291  11.783  -4.479  0.00  0.00     0.099 A 
ATOM      9  C   UNL d   1      12.989  12.464  -4.836  0.00  0.00     0.021 A 
ATOM     10  C   UNL d   1      13.000  13.184  -4.429  0.00  0.00     0.003 A 
ATOM     11  C   UNL d   1      13.322  13.931  -3.276  0.00  0.00     0.002 A 
ATOM     12  C   UNL d   1      13.638  13.971  -2.510  0.00  0.00     0.005 A 
ENDBRANCH   1   2
BRANCH   1  13
ATOM     13  N   UNL d   1      14.663  14.023  -1.168  0.00  0.00    -0.301 N 
ATOM     14  C   UNL d   1      15.126  14.034  -0.480  0.00  0.00     0.100 A 
ATOM     15  C   UNL d   1      15.537  14.704  -0.255  0.00  0.00     0.100 A 
ATOM     16  N   UNL d   1      15.486  15.396  -0.735  0.00  0.00    -0.297 N 
ATOM     17  C   UNL d   1      15.032  15.399  -1.415  0.00  0.00     0.100 A 
ATOM     18  C   UNL d   1      14.615  14.704  -1.635  0.00  0.00     0.100 A 
BRANCH  16  19
ATOM     19  C   UNL d   1      15.894  16.077  -0.520  0.00  0.00     0.126 C 
BRANCH  19  20
ATOM     20  C   UNL d   1      15.494  16.762  -0.348  0.00  0.00     0.253 C 
ATOM     21  O   UNL d   1      15.501  17.398  -0.875  0.00  0.00    -0.281 OA
ENDBRANCH  19  20
ENDBRANCH  16  19
ENDBRANCH   1  13
BRANCH   1  22
ATOM     22  C   UNL d   1      14.157  12.731  -0.856  0.00  0.00     0.046 A 
ATOM     23  S   UNL d   1      14.800  12.371  -0.499  0.00  0.00    -0.085 SA
ATOM     24  C   UNL d   1      14.520  11.794  -0.018  0.00  0.00     0.035 A 
ATOM     25  C   UNL d   1      13.700  11.780  -0.064  0.00  0.00     0.007 A 
ATOM     26  C   UNL d   1      13.467  12.361  -0.584  0.00  0.00     0.009 A 
ENDBRANCH   1  22
TORSDOF 5
ENDMDL
