MODEL 1
REMARK VINA RESULT:      62.2      0.000      0.000
REMARK  4 active torsions:
REMARK  status: ('A' for Active; 'I' for Inactive)
REMARK    1  A    between atoms: C_2  and  C_1 
REMARK    2  A    between atoms: N_12  and  C_6 
REMARK    3  A    between atoms: C_16  and  N_12 
REMARK    4  A    between atoms: O_25  and  C_17 
ROOT
ATOM      1  C   UNL d   1     -50.887  25.613  33.438  0.00  0.00     0.082 A 
ATOM      2  C   UNL d   1     -50.375  24.967  33.431  0.00  0.00     0.302 A 
ATOM      3  C   UNL d   1     -51.703  25.491  33.415  0.00  0.00     0.009 A 
ATOM      4  O   UNL d   1     -50.676  24.194  33.400  0.00  0.00    -0.273 OA
ATOM      5  C   UNL d   1     -52.011  24.723  33.384  0.00  0.00     0.025 A 
ATOM      6  C   UNL d   1     -51.489  24.076  33.377  0.00  0.00     0.103 A 
ATOM      7  O   UNL d   1     -49.551  25.084  33.454  0.00  0.00    -0.259 OA
ATOM      8  C   UNL d   1     -52.828  24.607  33.361  0.00  0.00     0.026 A 
ATOM      9  C   UNL d   1     -51.802  23.312  33.346  0.00  0.00     0.027 A 
ATOM     10  C   UNL d   1     -53.126  23.840  33.331  0.00  0.00     0.094 A 
ATOM     11  C   UNL d   1     -52.610  23.188  33.323  0.00  0.00     0.026 A 
ENDROOT
BRANCH   1  12
ATOM     12  C   UNL d   1     -50.579  26.381  33.470  0.00  0.00     0.095 A 
ATOM     13  N   UNL d   1     -49.780  26.585  33.464  0.00  0.00    -0.221 NA
ATOM     14  C   UNL d   1     -49.732  27.408  33.503  0.00  0.00     0.194 A 
ATOM     15  S   UNL d   1     -50.501  27.716  33.532  0.00  0.00    -0.046 SA
ATOM     16  C   UNL d   1     -51.029  27.075  33.512  0.00  0.00     0.058 A 
BRANCH  14  17
ATOM     17  N   UNL d   1     -49.032  27.852  33.511  0.00  0.00    -0.221 NA
BRANCH  17  18
ATOM     18  C   UNL d   1     -48.781  28.216  34.207  0.00  0.00     0.084 A 
ATOM     19  C   UNL d   1     -48.702  27.766  34.891  0.00  0.00     0.020 A 
ATOM     20  C   UNL d   1     -48.448  28.136  35.592  0.00  0.00     0.013 A 
ATOM     21  C   UNL d   1     -48.277  28.946  35.596  0.00  0.00     0.058 A 
ATOM     22  C   UNL d   1     -48.362  29.380  34.899  0.00  0.00     0.013 A 
ATOM     23 CL   UNL d   1     -48.026  29.316  36.285  0.00  0.00    -0.082 Cl
ATOM     24  C   UNL d   1     -48.613  29.020  34.206  0.00  0.00     0.020 A 
ENDBRANCH  17  18
ENDBRANCH  14  17
ENDBRANCH   1  12
BRANCH  10  25
ATOM     25  O   UNL d   1     -53.942  23.719  33.307  0.00  0.00    -0.328 OA
ATOM     26  C   UNL d   1     -54.460  24.359  33.306  0.00  0.00     0.181 C 
ENDBRANCH  10  25
TORSDOF 4
ENDMDL
MODEL 2
REMARK VINA RESULT:      65.1      2.915      6.308
REMARK  4 active torsions:
REMARK  status: ('A' for Active; 'I' for Inactive)
REMARK    1  A    between atoms: C_2  and  C_1 
REMARK    2  A    between atoms: N_12  and  C_6 
REMARK    3  A    between atoms: C_16  and  N_12 
REMARK    4  A    between atoms: O_25  and  C_17 
ROOT
ATOM      1  C   UNL d   1     -48.287  29.345  34.942  0.00  0.00     0.082 A 
ATOM      2  C   UNL d   1     -47.936  29.406  35.685  0.00  0.00     0.302 A 
ATOM      3  C   UNL d   1     -48.298  29.999  34.438  0.00  0.00     0.009 A 
ATOM      4  O   UNL d   1     -47.593  30.121  35.930  0.00  0.00    -0.273 OA
ATOM      5  C   UNL d   1     -47.959  30.716  34.675  0.00  0.00     0.025 A 
ATOM      6  C   UNL d   1     -47.606  30.770  35.426  0.00  0.00     0.103 A 
ATOM      7  O   UNL d   1     -47.922  28.750  36.198  0.00  0.00    -0.259 OA
ATOM      8  C   UNL d   1     -47.973  31.366  34.167  0.00  0.00     0.026 A 
ATOM      9  C   UNL d   1     -47.269  31.487  35.657  0.00  0.00     0.027 A 
ATOM     10  C   UNL d   1     -47.633  32.076  34.410  0.00  0.00     0.094 A 
ATOM     11  C   UNL d   1     -47.279  32.137  35.160  0.00  0.00     0.026 A 
ENDROOT
BRANCH   1  12
ATOM     12  C   UNL d   1     -48.627  28.628  34.705  0.00  0.00     0.095 A 
ATOM     13  N   UNL d   1     -48.819  28.412  33.933  0.00  0.00    -0.221 NA
ATOM     14  C   UNL d   1     -49.143  27.653  33.959  0.00  0.00     0.194 A 
ATOM     15  S   UNL d   1     -49.152  27.397  34.747  0.00  0.00    -0.046 SA
ATOM     16  C   UNL d   1     -48.830  28.005  35.212  0.00  0.00     0.058 A 
BRANCH  14  17
ATOM     17  N   UNL d   1     -49.413  27.221  33.306  0.00  0.00    -0.221 NA
BRANCH  17  18
ATOM     18  C   UNL d   1     -50.160  26.872  33.321  0.00  0.00     0.084 A 
ATOM     19  C   UNL d   1     -50.222  26.052  33.350  0.00  0.00     0.020 A 
ATOM     20  C   UNL d   1     -50.978  25.703  33.365  0.00  0.00     0.013 A 
ATOM     21  C   UNL d   1     -51.655  26.178  33.350  0.00  0.00     0.058 A 
ATOM     22  C   UNL d   1     -51.573  26.999  33.320  0.00  0.00     0.013 A 
ATOM     23 CL   UNL d   1     -52.403  25.839  33.365  0.00  0.00    -0.082 Cl
ATOM     24  C   UNL d   1     -50.830  27.348  33.306  0.00  0.00     0.020 A 
ENDBRANCH  17  18
ENDBRANCH  14  17
ENDBRANCH   1  12
BRANCH  10  25
ATOM     25  O   UNL d   1     -47.645  32.728  33.906  0.00  0.00    -0.328 OA
ATOM     26  C   UNL d   1     -48.355  32.998  33.586  0.00  0.00     0.181 C 
ENDBRANCH  10  25
TORSDOF 4
ENDMDL
