MODEL 1
REMARK VINA RESULT:      -7.1      0.000      0.000
REMARK  3 active torsions:
REMARK  status: ('A' for Active; 'I' for Inactive)
REMARK    1  A    between atoms: N_3  and  C_1 
REMARK       I    between atoms: C_2  and  N_3 
REMARK       I    between atoms: N_14  and  C_2 
REMARK    2  A    between atoms: C_16  and  N_14 
REMARK    3  A    between atoms: C_17  and  C_16 
ROOT
ATOM      1  C   UNL d   1      56.469  -0.519  32.195  0.00  0.00     0.127 A 
ATOM      2  C   UNL d   1      56.024   0.123  33.005  0.00  0.00    -0.006 A 
ATOM      3  C   UNL d   1      55.879  -1.559  32.853  0.00  0.00     0.046 A 
ATOM      4  C   UNL d   1      55.758  -0.305  33.311  0.00  0.00    -0.006 A 
ATOM      5  C   UNL d   1      56.177  -0.014  32.746  0.00  0.00    -0.001 A 
ATOM      6  C   UNL d   1      56.686   0.127  32.012  0.00  0.00    -0.001 A 
ATOM      7  C   UNL d   1      56.324  -1.188  32.266  0.00  0.00     0.040 A 
ATOM      8  C   UNL d   1      55.853  -0.866  33.044  0.00  0.00    -0.022 A 
ATOM      9  C   UNL d   1      55.612  -1.064  33.363  0.00  0.00    -0.022 A 
ATOM     10  C   UNL d   1      55.334   0.682  34.165  0.00  0.00    -0.001 A 
ENDROOT
BRANCH   1  11
ATOM     11  N   UNL d   1      56.755  -1.191  31.618  0.00  0.00    -0.213 NA
ATOM     12  C   UNL d   1      57.382  -1.000  30.993  0.00  0.00     0.365 C 
ATOM     13  O   UNL d   1      57.661  -1.652  30.431  0.00  0.00    -0.243 OA
ATOM     14  N   UNL d   1      57.757  -0.113  30.916  0.00  0.00    -0.186 NA
BRANCH  14  15
ATOM     15  C   UNL d   1      58.390   0.054  30.275  0.00  0.00     0.149 C 
BRANCH  15  16
ATOM     16  C   UNL d   1      59.087   0.618  30.453  0.00  0.00     0.255 C 
ATOM     17  O   UNL d   1      59.831   0.681  29.880  0.00  0.00    -0.281 OA
ENDBRANCH  15  16
ENDBRANCH  14  15
ENDBRANCH   1  11
TORSDOF 3
ENDMDL
MODEL 2
REMARK VINA RESULT:      -6.1      1.115      1.877
REMARK  3 active torsions:
REMARK  status: ('A' for Active; 'I' for Inactive)
REMARK    1  A    between atoms: N_3  and  C_1 
REMARK       I    between atoms: C_2  and  N_3 
REMARK       I    between atoms: N_14  and  C_2 
REMARK    2  A    between atoms: C_16  and  N_14 
REMARK    3  A    between atoms: C_17  and  C_16 
ROOT
ATOM      1  C   UNL d   1      57.033  -0.379  31.506  0.00  0.00     0.127 A 
ATOM      2  C   UNL d   1      56.435  -1.005  32.226  0.00  0.00    -0.006 A 
ATOM      3  C   UNL d   1      56.611   0.681  32.255  0.00  0.00     0.046 A 
ATOM      4  C   UNL d   1      56.237  -0.568  32.568  0.00  0.00    -0.006 A 
ATOM      5  C   UNL d   1      56.623  -0.874  31.988  0.00  0.00    -0.001 A 
ATOM      6  C   UNL d   1      57.135  -1.034  31.260  0.00  0.00    -0.001 A 
ATOM      7  C   UNL d   1      57.009   0.294  31.645  0.00  0.00     0.040 A 
ATOM      8  C   UNL d   1      56.447  -0.011  32.368  0.00  0.00    -0.022 A 
ATOM      9  C   UNL d   1      56.230   0.196  32.699  0.00  0.00    -0.022 A 
ATOM     10  C   UNL d   1      55.594  -1.539  33.295  0.00  0.00    -0.001 A 
ENDROOT
BRANCH   1  11
ATOM     11  N   UNL d   1      57.467   0.281  31.015  0.00  0.00    -0.213 NA
ATOM     12  C   UNL d   1      57.989   0.041  30.316  0.00  0.00     0.365 C 
ATOM     13  O   UNL d   1      58.412   0.682  29.838  0.00  0.00    -0.243 OA
ATOM     14  N   UNL d   1      58.102  -0.887  30.071  0.00  0.00    -0.186 NA
BRANCH  14  15
ATOM     15  C   UNL d   1      58.636  -1.103  29.359  0.00  0.00     0.149 C 
BRANCH  15  16
ATOM     16  C   UNL d   1      58.841  -1.977  29.187  0.00  0.00     0.255 C 
ATOM     17  O   UNL d   1      59.422  -2.220  28.487  0.00  0.00    -0.281 OA
ENDBRANCH  15  16
ENDBRANCH  14  15
ENDBRANCH   1  11
TORSDOF 3
ENDMDL
MODEL 3
REMARK VINA RESULT:      -4.4      8.384      9.212
REMARK  3 active torsions:
REMARK  status: ('A' for Active; 'I' for Inactive)
REMARK    1  A    between atoms: N_3  and  C_1 
REMARK       I    between atoms: C_2  and  N_3 
REMARK       I    between atoms: N_14  and  C_2 
REMARK    2  A    between atoms: C_16  and  N_14 
REMARK    3  A    between atoms: C_17  and  C_16 
ROOT
ATOM      1  C   UNL d   1      60.004  -7.883  36.214  0.00  0.00     0.127 A 
ATOM      2  C   UNL d   1      60.618  -6.940  36.259  0.00  0.00    -0.006 A 
ATOM      3  C   UNL d   1      58.926  -7.046  36.244  0.00  0.00     0.046 A 
ATOM      4  C   UNL d   1      60.173  -6.554  36.273  0.00  0.00    -0.006 A 
ATOM      5  C   UNL d   1      60.492  -7.245  36.245  0.00  0.00    -0.001 A 
ATOM      6  C   UNL d   1      60.665  -8.132  36.207  0.00  0.00    -0.001 A 
ATOM      7  C   UNL d   1      59.327  -7.767  36.215  0.00  0.00     0.040 A 
ATOM      8  C   UNL d   1      59.619  -6.848  36.257  0.00  0.00    -0.022 A 
ATOM      9  C   UNL d   1      59.404  -6.457  36.272  0.00  0.00    -0.022 A 
ATOM     10  C   UNL d   1      61.133  -5.575  36.320  0.00  0.00    -0.001 A 
ENDROOT
BRANCH   1  11
ATOM     11  N   UNL d   1      59.351  -8.545  36.182  0.00  0.00    -0.213 NA
ATOM     12  C   UNL d   1      59.391  -9.174  35.532  0.00  0.00     0.365 C 
ATOM     13  O   UNL d   1      58.756  -9.818  35.499  0.00  0.00    -0.243 OA
ATOM     14  N   UNL d   1      60.099  -9.170  34.874  0.00  0.00    -0.186 NA
BRANCH  14  15
ATOM     15  C   UNL d   1      60.116  -9.818  34.228  0.00  0.00     0.149 C 
BRANCH  15  16
ATOM     16  C   UNL d   1      60.046  -9.590  33.346  0.00  0.00     0.255 C 
ATOM     17  O   UNL d   1      60.733  -9.774  32.730  0.00  0.00    -0.281 OA
ENDBRANCH  15  16
ENDBRANCH  14  15
ENDBRANCH   1  11
TORSDOF 3
ENDMDL
MODEL 4
REMARK VINA RESULT:      -4.4      1.583      2.367
REMARK  3 active torsions:
REMARK  status: ('A' for Active; 'I' for Inactive)
REMARK    1  A    between atoms: N_3  and  C_1 
REMARK       I    between atoms: C_2  and  N_3 
REMARK       I    between atoms: N_14  and  C_2 
REMARK    2  A    between atoms: C_16  and  N_14 
REMARK    3  A    between atoms: C_17  and  C_16 
ROOT
ATOM      1  C   UNL d   1      55.914   0.680  33.784  0.00  0.00     0.127 A 
ATOM      2  C   UNL d   1      54.788   0.678  33.799  0.00  0.00    -0.006 A 
ATOM      3  C   UNL d   1      55.818   0.682  35.145  0.00  0.00     0.046 A 
ATOM      4  C   UNL d   1      54.714   0.679  34.383  0.00  0.00    -0.006 A 
ATOM      5  C   UNL d   1      55.112   0.678  33.734  0.00  0.00    -0.001 A 
ATOM      6  C   UNL d   1      55.752   0.679  33.096  0.00  0.00    -0.001 A 
ATOM      7  C   UNL d   1      56.194   0.681  34.411  0.00  0.00     0.040 A 
ATOM      8  C   UNL d   1      55.268   0.680  34.680  0.00  0.00    -0.022 A 
ATOM      9  C   UNL d   1      55.061   0.680  35.077  0.00  0.00    -0.022 A 
ATOM     10  C   UNL d   1      53.365   0.676  34.131  0.00  0.00    -0.001 A 
ENDROOT
BRANCH   1  11
ATOM     11  N   UNL d   1      56.827   0.682  33.958  0.00  0.00    -0.213 NA
ATOM     12  C   UNL d   1      57.409   0.634  33.266  0.00  0.00     0.365 C 
ATOM     13  O   UNL d   1      58.299   0.636  33.434  0.00  0.00    -0.243 OA
ATOM     14  N   UNL d   1      57.098   0.582  32.353  0.00  0.00    -0.186 NA
BRANCH  14  15
ATOM     15  C   UNL d   1      57.708   0.536  31.672  0.00  0.00     0.149 C 
BRANCH  15  16
ATOM     16  C   UNL d   1      57.427   0.409  30.811  0.00  0.00     0.255 C 
ATOM     17  O   UNL d   1      57.606  -0.389  30.344  0.00  0.00    -0.281 OA
ENDBRANCH  15  16
ENDBRANCH  14  15
ENDBRANCH   1  11
TORSDOF 3
ENDMDL
