MODEL 1
REMARK VINA RESULT:      -3.2      0.000      0.000
REMARK  4 active torsions:
REMARK  status: ('A' for Active; 'I' for Inactive)
REMARK    1  A    between atoms: N_2  and  C_1 
REMARK       I    between atoms: C_3  and  N_2 
REMARK    2  A    between atoms: C_6  and  C_3 
REMARK    3  A    between atoms: C_14  and  C_7 
REMARK    4  A    between atoms: C_15  and  C_14 
ROOT
ATOM      1  C   UNL d   1      31.332  16.395 -24.282  0.00  0.00     0.197 A 
ATOM      2  N   UNL d   1      31.649  16.490 -24.979  0.00  0.00    -0.219 NA
ATOM      3  S   UNL d   1      31.858  16.681 -23.720  0.00  0.00    -0.047 SA
ATOM      4  C   UNL d   1      32.516  16.958 -24.109  0.00  0.00     0.051 A 
ATOM      5  C   UNL d   1      32.384  16.837 -24.908  0.00  0.00     0.108 A 
ENDROOT
BRANCH   1   6
ATOM      6  N   UNL d   1      30.558  16.043 -24.181  0.00  0.00    -0.182 NA
ATOM      7  C   UNL d   1      29.901  16.535 -24.126  0.00  0.00     0.287 C 
ATOM      8  O   UNL d   1      29.992  17.357 -24.167  0.00  0.00    -0.265 OA
BRANCH   7   9
ATOM      9  C   UNL d   1      29.175  16.203 -24.032  0.00  0.00     0.087 A 
ATOM     10  S   UNL d   1      28.824  15.598 -24.479  0.00  0.00    -0.082 SA
ATOM     11  C   UNL d   1      28.111  15.454 -24.185  0.00  0.00     0.036 A 
ATOM     12  C   UNL d   1      27.995  15.983 -23.522  0.00  0.00     0.008 A 
ATOM     13  C   UNL d   1      28.672  16.420 -23.469  0.00  0.00     0.012 A 
ENDBRANCH   7   9
ENDBRANCH   1   6
BRANCH   4  14
ATOM     14  C   UNL d   1      33.207  17.297 -23.861  0.00  0.00     0.008 C 
BRANCH  14  15
ATOM     15  C   UNL d   1      33.211  18.081 -23.569  0.00  0.00     0.001 A 
ATOM     16  C   UNL d   1      33.199  18.218 -22.745  0.00  0.00     0.002 A 
ATOM     17  C   UNL d   1      33.203  18.997 -22.446  0.00  0.00     0.030 A 
ATOM     18  C   UNL d   1      33.217  19.632 -22.962  0.00  0.00     0.140 A 
ATOM     19  C   UNL d   1      33.229  19.505 -23.806  0.00  0.00     0.030 A 
ATOM     20  F   UNL d   1      33.222  20.375 -22.772  0.00  0.00    -0.204 F 
ATOM     21  C   UNL d   1      33.226  18.725 -24.090  0.00  0.00     0.002 A 
ENDBRANCH  14  15
ENDBRANCH   4  14
TORSDOF 4
ENDMDL
MODEL 2
REMARK VINA RESULT:      -2.8      2.426      4.764
REMARK  4 active torsions:
REMARK  status: ('A' for Active; 'I' for Inactive)
REMARK    1  A    between atoms: N_2  and  C_1 
REMARK       I    between atoms: C_3  and  N_2 
REMARK    2  A    between atoms: C_6  and  C_3 
REMARK    3  A    between atoms: C_14  and  C_7 
REMARK    4  A    between atoms: C_15  and  C_14 
ROOT
ATOM      1  C   UNL d   1      32.774  18.410 -22.818  0.00  0.00     0.197 A 
ATOM      2  N   UNL d   1      33.241  17.798 -22.758  0.00  0.00    -0.219 NA
ATOM      3  S   UNL d   1      32.228  18.257 -23.411  0.00  0.00    -0.047 SA
ATOM      4  C   UNL d   1      32.384  17.519 -23.713  0.00  0.00     0.051 A 
ATOM      5  C   UNL d   1      33.027  17.227 -23.299  0.00  0.00     0.108 A 
ENDROOT
BRANCH   1   6
ATOM      6  N   UNL d   1      32.865  19.099 -22.318  0.00  0.00    -0.182 NA
ATOM      7  C   UNL d   1      32.889  19.843 -22.668  0.00  0.00     0.287 C 
ATOM      8  O   UNL d   1      32.825  19.920 -23.489  0.00  0.00    -0.265 OA
BRANCH   7   9
ATOM      9  C   UNL d   1      32.974  20.490 -22.197  0.00  0.00     0.087 A 
ATOM     10  S   UNL d   1      32.843  20.552 -21.380  0.00  0.00    -0.082 SA
ATOM     11  C   UNL d   1      32.998  21.289 -21.159  0.00  0.00     0.036 A 
ATOM     12  C   UNL d   1      33.239  21.721 -21.858  0.00  0.00     0.008 A 
ATOM     13  C   UNL d   1      33.209  21.190 -22.466  0.00  0.00     0.012 A 
ENDBRANCH   7   9
ENDBRANCH   1   6
BRANCH   4  14
ATOM     14  C   UNL d   1      32.043  17.072 -24.295  0.00  0.00     0.008 C 
BRANCH  14  15
ATOM     15  C   UNL d   1      31.279  16.749 -24.186  0.00  0.00     0.001 A 
ATOM     16  C   UNL d   1      30.608  17.165 -24.459  0.00  0.00     0.002 A 
ATOM     17  C   UNL d   1      29.843  16.850 -24.354  0.00  0.00     0.030 A 
ATOM     18  C   UNL d   1      29.748  16.127 -23.981  0.00  0.00     0.140 A 
ATOM     19  C   UNL d   1      30.426  15.693 -23.698  0.00  0.00     0.030 A 
ATOM     20  F   UNL d   1      29.085  15.768 -23.844  0.00  0.00    -0.204 F 
ATOM     21  C   UNL d   1      31.181  16.019 -23.809  0.00  0.00     0.002 A 
ENDBRANCH  14  15
ENDBRANCH   4  14
TORSDOF 4
ENDMDL
