MODEL 1
REMARK VINA RESULT:      -4.4      0.000      0.000
REMARK  7 active torsions:
REMARK  status: ('A' for Active; 'I' for Inactive)
REMARK    1  A    between atoms: S_8  and  C_3 
REMARK    2  A    between atoms: C_4  and  C_15 
REMARK       I    between atoms: N_7  and  C_4 
REMARK    3  A    between atoms: C_13  and  C_5 
REMARK    4  A    between atoms: C_6  and  C_9 
REMARK    5  A    between atoms: C_9  and  N_7 
REMARK    6  A    between atoms: C_15  and  S_8 
REMARK    7  A    between atoms: O_17  and  C_11 
ROOT
ATOM      1  S   UNL d   1      57.069  -0.562  31.133  0.00  0.00    -0.061 SA
ENDROOT
BRANCH   1   2
ATOM      2  C   UNL d   1      56.677  -0.347  31.837  0.00  0.00     0.133 A 
ATOM      3  N   UNL d   1      56.642   0.443  32.075  0.00  0.00    -0.141 NA
ATOM      4  N   UNL d   1      56.248   0.645  32.779  0.00  0.00    -0.148 NA
ATOM      5  C   UNL d   1      55.894   0.059  33.238  0.00  0.00     0.103 A 
ATOM      6  C   UNL d   1      55.929  -0.731  32.999  0.00  0.00     0.023 A 
ATOM      7  C   UNL d   1      56.319  -0.935  32.303  0.00  0.00     0.029 A 
BRANCH   5   8
ATOM      8  C   UNL d   1      55.504   0.263  33.935  0.00  0.00     0.022 A 
ATOM      9  C   UNL d   1      54.697   0.427  33.921  0.00  0.00     0.022 A 
ATOM     10  C   UNL d   1      54.304   0.632  34.620  0.00  0.00     0.099 A 
ATOM     11  N   UNL d   1      54.725   0.671  35.335  0.00  0.00    -0.242 NA
ATOM     12  C   UNL d   1      55.535   0.506  35.347  0.00  0.00     0.099 A 
ATOM     13  C   UNL d   1      55.924   0.303  34.650  0.00  0.00     0.022 A 
ENDBRANCH   5   8
ENDBRANCH   1   2
BRANCH   1  14
ATOM     14  C   UNL d   1      57.786  -0.205  30.928  0.00  0.00     0.099 C 
BRANCH  14  15
ATOM     15  C   UNL d   1      58.087  -0.299  30.167  0.00  0.00     0.286 C 
ATOM     16  N   UNL d   1      58.746  -0.793  30.037  0.00  0.00    -0.206 NA
ATOM     17  O   UNL d   1      57.737   0.097  29.531  0.00  0.00    -0.265 OA
BRANCH  16  18
ATOM     18  C   UNL d   1      59.048  -0.888  29.276  0.00  0.00     0.104 C 
BRANCH  18  19
ATOM     19  C   UNL d   1      59.718  -1.362  29.150  0.00  0.00     0.042 A 
ATOM     20  C   UNL d   1      59.634  -2.118  28.835  0.00  0.00     0.096 A 
ATOM     21  C   UNL d   1      60.301  -2.590  28.709  0.00  0.00     0.024 A 
ATOM     22  C   UNL d   1      61.050  -2.305  28.899  0.00  0.00     0.002 A 
ATOM     23  C   UNL d   1      61.133  -1.549  29.215  0.00  0.00     0.000 A 
ATOM     24  C   UNL d   1      60.467  -1.077  29.340  0.00  0.00     0.004 A 
BRANCH  20  25
ATOM     25  O   UNL d   1      58.867  -2.405  28.642  0.00  0.00    -0.328 OA
ATOM     26  C   UNL d   1      58.744  -3.215  28.543  0.00  0.00     0.181 C 
ENDBRANCH  20  25
ENDBRANCH  18  19
ENDBRANCH  16  18
ENDBRANCH  14  15
ENDBRANCH   1  14
TORSDOF 7
ENDMDL
MODEL 2
REMARK VINA RESULT:      -2.4      1.743      6.243
REMARK  7 active torsions:
REMARK  status: ('A' for Active; 'I' for Inactive)
REMARK    1  A    between atoms: S_8  and  C_3 
REMARK    2  A    between atoms: C_4  and  C_15 
REMARK       I    between atoms: N_7  and  C_4 
REMARK    3  A    between atoms: C_13  and  C_5 
REMARK    4  A    between atoms: C_6  and  C_9 
REMARK    5  A    between atoms: C_9  and  N_7 
REMARK    6  A    between atoms: C_15  and  S_8 
REMARK    7  A    between atoms: O_17  and  C_11 
ROOT
ATOM      1  S   UNL d   1      58.849  -0.268  29.725  0.00  0.00    -0.061 SA
ENDROOT
BRANCH   1   2
ATOM      2  C   UNL d   1      59.103  -1.032  29.510  0.00  0.00     0.133 A 
ATOM      3  N   UNL d   1      59.868  -1.156  29.223  0.00  0.00    -0.141 NA
ATOM      4  N   UNL d   1      60.110  -1.923  29.011  0.00  0.00    -0.148 NA
ATOM      5  C   UNL d   1      59.590  -2.557  29.089  0.00  0.00     0.103 A 
ATOM      6  C   UNL d   1      58.826  -2.434  29.376  0.00  0.00     0.023 A 
ATOM      7  C   UNL d   1      58.582  -1.675  29.587  0.00  0.00     0.029 A 
BRANCH   5   8
ATOM      8  C   UNL d   1      59.834  -3.317  28.878  0.00  0.00     0.022 A 
ATOM      9  C   UNL d   1      60.635  -3.472  28.758  0.00  0.00     0.022 A 
ATOM     10  C   UNL d   1      60.881  -4.233  28.546  0.00  0.00     0.099 A 
ATOM     11  N   UNL d   1      60.321  -4.839  28.456  0.00  0.00    -0.242 NA
ATOM     12  C   UNL d   1      59.518  -4.682  28.577  0.00  0.00     0.099 A 
ATOM     13  C   UNL d   1      59.275  -3.923  28.788  0.00  0.00     0.022 A 
ENDBRANCH   5   8
ENDBRANCH   1   2
BRANCH   1  14
ATOM     14  C   UNL d   1      58.144  -0.165  30.144  0.00  0.00     0.099 C 
BRANCH  14  15
ATOM     15  C   UNL d   1      58.148   0.253  30.854  0.00  0.00     0.286 C 
ATOM     16  N   UNL d   1      57.475   0.244  31.348  0.00  0.00    -0.206 NA
ATOM     17  O   UNL d   1      58.819   0.681  31.079  0.00  0.00    -0.265 OA
BRANCH  16  18
ATOM     18  C   UNL d   1      57.478   0.661  32.058  0.00  0.00     0.104 C 
BRANCH  18  19
ATOM     19  C   UNL d   1      56.812   0.646  32.552  0.00  0.00     0.042 A 
ATOM     20  C   UNL d   1      56.905   0.639  33.371  0.00  0.00     0.096 A 
ATOM     21  C   UNL d   1      56.241   0.625  33.863  0.00  0.00     0.024 A 
ATOM     22  C   UNL d   1      55.485   0.617  33.536  0.00  0.00     0.002 A 
ATOM     23  C   UNL d   1      55.392   0.624  32.717  0.00  0.00     0.000 A 
ATOM     24  C   UNL d   1      56.055   0.639  32.225  0.00  0.00     0.004 A 
BRANCH  20  25
ATOM     25  O   UNL d   1      57.679   0.647  33.700  0.00  0.00    -0.328 OA
ATOM     26  C   UNL d   1      57.777   0.673  34.519  0.00  0.00     0.181 C 
ENDBRANCH  20  25
ENDBRANCH  18  19
ENDBRANCH  16  18
ENDBRANCH  14  15
ENDBRANCH   1  14
TORSDOF 7
ENDMDL
