MODEL 1
REMARK VINA RESULT:      72.2      0.000      0.000
REMARK  5 active torsions:
REMARK  status: ('A' for Active; 'I' for Inactive)
REMARK    1  A    between atoms: C_7  and  N_1 
REMARK    2  A    between atoms: C_23  and  C_5 
REMARK    3  A    between atoms: C_22  and  C_6 
REMARK    4  A    between atoms: C_8  and  C_7 
REMARK       I    between atoms: N_11  and  C_8 
REMARK    5  A    between atoms: C_17  and  N_11 
ROOT
ATOM      1  C   UNL d   1      59.337  49.667  50.548  0.00  0.00     0.148 C 
ENDROOT
BRANCH   1   2
ATOM      2  N   UNL d   1      58.511  49.670  50.540  0.00  0.00    -0.235 N 
ATOM      3  C   UNL d   1      58.092  49.673  51.256  0.00  0.00     0.273 A 
ATOM      4  C   UNL d   1      57.274  49.676  51.249  0.00  0.00     0.086 A 
ATOM      5  O   UNL d   1      58.503  49.673  51.975  0.00  0.00    -0.266 OA
ATOM      6  S   UNL d   1      56.858  49.676  50.542  0.00  0.00    -0.077 SA
ATOM      7  C   UNL d   1      57.269  49.673  49.830  0.00  0.00     0.086 A 
ATOM      8  C   UNL d   1      58.095  49.670  49.821  0.00  0.00     0.273 A 
ATOM      9  O   UNL d   1      58.510  49.667  49.109  0.00  0.00    -0.266 OA
BRANCH   4  10
ATOM     10  C   UNL d   1      56.855  49.679  51.969  0.00  0.00     0.011 C 
ATOM     11  C   UNL d   1      56.181  49.209  52.056  0.00  0.00     0.001 C 
ENDBRANCH   4  10
BRANCH   7  12
ATOM     12  C   UNL d   1      56.857  49.673  49.115  0.00  0.00     0.011 C 
ATOM     13  C   UNL d   1      56.525  48.972  48.830  0.00  0.00     0.001 C 
ENDBRANCH   7  12
ENDBRANCH   1   2
BRANCH   1  14
ATOM     14  C   UNL d   1      59.742  48.981  50.757  0.00  0.00     0.297 C 
ATOM     15  N   UNL d   1      60.174  48.579  50.192  0.00  0.00    -0.207 NA
ATOM     16  O   UNL d   1      59.706  48.708  51.536  0.00  0.00    -0.264 OA
BRANCH  15  17
ATOM     17  C   UNL d   1      60.580  47.892  50.401  0.00  0.00     0.087 A 
ATOM     18  C   UNL d   1      60.166  47.248  50.705  0.00  0.00     0.045 A 
ATOM     19  C   UNL d   1      60.559  46.562  50.916  0.00  0.00     0.121 A 
ATOM     20  O   UNL d   1      60.298  45.839  51.229  0.00  0.00    -0.299 OA
ATOM     21  C   UNL d   1      61.378  46.512  50.823  0.00  0.00     0.119 A 
ATOM     22  C   UNL d   1      60.962  45.349  51.327  0.00  0.00     0.304 A 
ATOM     23  O   UNL d   1      61.618  45.772  51.075  0.00  0.00    -0.300 OA
ATOM     24  C   UNL d   1      61.788  47.165  50.516  0.00  0.00     0.028 A 
ATOM     25  C   UNL d   1      61.391  47.851  50.306  0.00  0.00     0.021 A 
ENDBRANCH  15  17
ENDBRANCH   1  14
TORSDOF 5
ENDMDL
