MODEL 1
REMARK VINA RESULT:      -1.7      0.000      0.000
REMARK  1 active torsions:
REMARK  status: ('A' for Active; 'I' for Inactive)
REMARK    1  A    between atoms: C_2  and  C_3 
ROOT
ATOM      1  C   UNL d   1      24.289  12.995  -1.485  0.00  0.00     0.002 A 
ATOM      2  C   UNL d   1      24.767  13.584  -1.160  0.00  0.00     0.000 A 
ATOM      3  C   UNL d   1      23.623  12.734  -1.074  0.00  0.00     0.000 A 
ATOM      4  C   UNL d   1      24.578  13.912  -0.426  0.00  0.00     0.000 A 
ATOM      5  C   UNL d   1      23.434  13.062  -0.339  0.00  0.00     0.000 A 
ATOM      6  C   UNL d   1      23.912  13.651  -0.015  0.00  0.00     0.000 A 
ENDROOT
BRANCH   1   7
ATOM      7  C   UNL d   1      24.474  12.664  -2.220  0.00  0.00     0.021 A 
ATOM      8  C   UNL d   1      24.567  13.075  -2.927  0.00  0.00     0.099 A 
ATOM      9  N   UNL d   1      24.749  12.531  -3.517  0.00  0.00    -0.242 NA
ATOM     10  C   UNL d   1      24.768  11.779  -3.173  0.00  0.00     0.099 A 
ATOM     11  C   UNL d   1      24.599  11.861  -2.371  0.00  0.00     0.022 A 
ENDBRANCH   1   7
TORSDOF 1
ENDMDL
