MODEL 1
REMARK VINA RESULT:      -8.1      0.000      0.000
REMARK  11 active torsions:
REMARK  status: ('A' for Active; 'I' for Inactive)
REMARK    1  A    between atoms: S_2  and  N_15 
REMARK    2  A    between atoms: C_10  and  S_2 
REMARK    3  A    between atoms: C_14  and  C_4 
REMARK    4  A    between atoms: N_16  and  C_8 
REMARK    5  A    between atoms: C_19  and  C_14 
REMARK    6  A    between atoms: N_15  and  C_19 
REMARK    7  A    between atoms: C_24  and  N_16 
REMARK    8  A    between atoms: N_20  and  C_25 
REMARK    9  A    between atoms: C_26  and  N_20 
REMARK   10  A    between atoms: C_27  and  N_20 
REMARK   11  A    between atoms: C_25  and  C_24 
ROOT
ATOM      1  N   UNL d   1      53.100  33.912  53.854  0.00  0.00    -0.190 N 
ATOM      2  C   UNL d   1      53.513  34.310  54.446  0.00  0.00     0.187 A 
ATOM      3  C   UNL d   1      52.507  34.421  53.570  0.00  0.00     0.188 A 
ATOM      4  N   UNL d   1      53.314  33.143  53.650  0.00  0.00    -0.143 NA
ATOM      5  N   UNL d   1      53.172  35.068  54.526  0.00  0.00    -0.127 NA
ATOM      6  N   UNL d   1      52.558  35.127  53.987  0.00  0.00    -0.127 NA
ATOM      7  C   UNL d   1      53.942  32.772  54.038  0.00  0.00     0.182 A 
ATOM      8  C   UNL d   1      54.141  33.938  54.834  0.00  0.00     0.044 A 
ATOM      9  C   UNL d   1      54.354  33.170  54.629  0.00  0.00     0.044 A 
ENDROOT
BRANCH   3  10
ATOM     10  C   UNL d   1      51.965  34.251  52.977  0.00  0.00     0.062 C 
BRANCH  10  11
ATOM     11  C   UNL d   1      51.203  34.556  53.013  0.00  0.00     0.115 C 
BRANCH  11  12
ATOM     12  N   UNL d   1      50.591  34.156  52.630  0.00  0.00    -0.157 NA
BRANCH  12  13
ATOM     13  S   UNL d   1      49.880  34.536  52.478  0.00  0.00     0.285 S 
ATOM     14  O   UNL d   1      50.034  34.506  51.665  0.00  0.00    -0.198 OA
ATOM     15  O   UNL d   1      49.718  34.571  53.289  0.00  0.00    -0.198 OA
BRANCH  13  16
ATOM     16  C   UNL d   1      49.169  34.917  52.318  0.00  0.00     0.105 A 
ATOM     17  C   UNL d   1      48.777  34.786  51.597  0.00  0.00     0.013 A 
ATOM     18  C   UNL d   1      48.072  35.164  51.441  0.00  0.00     0.001 A 
ATOM     19  C   UNL d   1      47.745  35.679  51.999  0.00  0.00     0.000 A 
ATOM     20  C   UNL d   1      48.121  35.815  52.707  0.00  0.00     0.001 A 
ATOM     21  C   UNL d   1      47.023  36.062  51.831  0.00  0.00     0.000 C 
ATOM     22  C   UNL d   1      48.833  35.440  52.879  0.00  0.00     0.013 A 
ENDBRANCH  13  16
ENDBRANCH  12  13
ENDBRANCH  11  12
ENDBRANCH  10  11
ENDBRANCH   3  10
BRANCH   7  23
ATOM     23  N   UNL d   1      54.165  31.997  53.840  0.00  0.00    -0.222 NA
BRANCH  23  24
ATOM     24  C   UNL d   1      53.640  31.365  54.021  0.00  0.00     0.120 C 
BRANCH  24  25
ATOM     25  C   UNL d   1      53.704  30.658  53.610  0.00  0.00     0.101 C 
BRANCH  25  26
ATOM     26  N   UNL d   1      53.247  30.006  53.836  0.00  0.00    -0.301 N 
BRANCH  26  27
ATOM     27  C   UNL d   1      53.369  29.635  54.566  0.00  0.00     0.080 C 
ATOM     28  C   UNL d   1      53.371  28.802  54.607  0.00  0.00     0.021 C 
ENDBRANCH  26  27
BRANCH  26  29
ATOM     29  C   UNL d   1      52.655  29.717  53.326  0.00  0.00     0.080 C 
ATOM     30  C   UNL d   1      52.777  29.750  52.505  0.00  0.00     0.021 C 
ENDBRANCH  26  29
ENDBRANCH  25  26
ENDBRANCH  24  25
ENDBRANCH  23  24
ENDBRANCH   7  23
TORSDOF 11
ENDMDL
MODEL 2
REMARK VINA RESULT:      -5.5      1.930      6.202
REMARK  11 active torsions:
REMARK  status: ('A' for Active; 'I' for Inactive)
REMARK    1  A    between atoms: S_2  and  N_15 
REMARK    2  A    between atoms: C_10  and  S_2 
REMARK    3  A    between atoms: C_14  and  C_4 
REMARK    4  A    between atoms: N_16  and  C_8 
REMARK    5  A    between atoms: C_19  and  C_14 
REMARK    6  A    between atoms: N_15  and  C_19 
REMARK    7  A    between atoms: C_24  and  N_16 
REMARK    8  A    between atoms: N_20  and  C_25 
REMARK    9  A    between atoms: C_26  and  N_20 
REMARK   10  A    between atoms: C_27  and  N_20 
REMARK   11  A    between atoms: C_25  and  C_24 
ROOT
ATOM      1  N   UNL d   1      51.971  33.849  53.074  0.00  0.00    -0.190 N 
ATOM      2  C   UNL d   1      52.238  34.535  53.445  0.00  0.00     0.187 A 
ATOM      3  C   UNL d   1      52.611  33.319  53.025  0.00  0.00     0.188 A 
ATOM      4  N   UNL d   1      51.186  33.793  52.830  0.00  0.00    -0.143 NA
ATOM      5  N   UNL d   1      53.046  34.426  53.625  0.00  0.00    -0.127 NA
ATOM      6  N   UNL d   1      53.265  33.681  53.365  0.00  0.00    -0.127 NA
ATOM      7  C   UNL d   1      50.668  34.423  52.956  0.00  0.00     0.182 A 
ATOM      8  C   UNL d   1      51.719  35.165  53.571  0.00  0.00     0.044 A 
ATOM      9  C   UNL d   1      50.935  35.109  53.327  0.00  0.00     0.044 A 
ENDROOT
BRANCH   3  10
ATOM     10  C   UNL d   1      52.593  32.567  52.696  0.00  0.00     0.062 C 
BRANCH  10  11
ATOM     11  C   UNL d   1      53.024  31.957  53.036  0.00  0.00     0.115 C 
BRANCH  11  12
ATOM     12  N   UNL d   1      52.892  31.182  52.785  0.00  0.00    -0.157 NA
BRANCH  12  13
ATOM     13  S   UNL d   1      53.029  30.553  53.294  0.00  0.00     0.285 S 
ATOM     14  O   UNL d   1      52.240  30.315  53.218  0.00  0.00    -0.198 OA
ATOM     15  O   UNL d   1      53.820  30.783  53.376  0.00  0.00    -0.198 OA
BRANCH  13  16
ATOM     16  C   UNL d   1      53.160  29.920  53.803  0.00  0.00     0.105 A 
ATOM     17  C   UNL d   1      53.314  29.162  53.498  0.00  0.00     0.013 A 
ATOM     18  C   UNL d   1      53.443  28.537  54.004  0.00  0.00     0.001 A 
ATOM     19  C   UNL d   1      53.421  28.655  54.823  0.00  0.00     0.000 A 
ATOM     20  C   UNL d   1      53.271  29.392  55.131  0.00  0.00     0.001 A 
ATOM     21  C   UNL d   1      53.554  28.008  55.334  0.00  0.00     0.000 C 
ATOM     22  C   UNL d   1      53.139  30.032  54.633  0.00  0.00     0.013 A 
ENDBRANCH  13  16
ENDBRANCH  12  13
ENDBRANCH  11  12
ENDBRANCH  10  11
ENDBRANCH   3  10
BRANCH   7  23
ATOM     23  N   UNL d   1      49.875  34.377  52.714  0.00  0.00    -0.222 NA
BRANCH  23  24
ATOM     24  C   UNL d   1      49.377  35.045  52.825  0.00  0.00     0.120 C 
BRANCH  24  25
ATOM     25  C   UNL d   1      48.611  35.031  52.532  0.00  0.00     0.101 C 
BRANCH  25  26
ATOM     26  N   UNL d   1      48.113  35.682  52.646  0.00  0.00    -0.301 N 
BRANCH  26  27
ATOM     27  C   UNL d   1      47.734  36.043  52.005  0.00  0.00     0.080 C 
ATOM     28  C   UNL d   1      47.175  35.610  51.562  0.00  0.00     0.021 C 
ENDBRANCH  26  27
BRANCH  26  29
ATOM     29  C   UNL d   1      47.990  35.981  53.414  0.00  0.00     0.080 C 
ATOM     30  C   UNL d   1      47.601  36.709  53.507  0.00  0.00     0.021 C 
ENDBRANCH  26  29
ENDBRANCH  25  26
ENDBRANCH  24  25
ENDBRANCH  23  24
ENDBRANCH   7  23
TORSDOF 11
ENDMDL
