MODEL 1
REMARK VINA RESULT:      -9.6      0.000      0.000
REMARK  5 active torsions:
REMARK  status: ('A' for Active; 'I' for Inactive)
REMARK    1  A    between atoms: N_12  and  C_5 
REMARK    2  A    between atoms: C_17  and  N_12 
REMARK    3  A    between atoms: C_19  and  C_17 
REMARK    4  A    between atoms: C_18  and  C_20 
REMARK    5  A    between atoms: C_20  and  C_19 
ROOT
ATOM      1  C   UNL d   1      53.235  33.226  53.841  0.00  0.00     0.159 A 
ATOM      2  N   UNL d   1      52.631  33.199  53.280  0.00  0.00    -0.275 N 
ATOM      3  C   UNL d   1      53.438  33.953  54.195  0.00  0.00     0.103 A 
ATOM      4  N   UNL d   1      53.634  32.534  54.051  0.00  0.00    -0.226 NA
ATOM      5  C   UNL d   1      52.227  33.899  53.068  0.00  0.00     0.149 A 
ATOM      6  C   UNL d   1      53.038  34.644  53.985  0.00  0.00     0.016 A 
ATOM      7  C   UNL d   1      52.434  34.617  53.423  0.00  0.00     0.038 A 
ATOM      8  C   UNL d   1      52.827  31.784  53.137  0.00  0.00     0.084 A 
ATOM      9  C   UNL d   1      53.430  31.811  53.699  0.00  0.00     0.099 A 
ATOM     10  C   UNL d   1      54.042  33.980  54.756  0.00  0.00     0.104 C 
ATOM     11  N   UNL d   1      54.646  34.007  55.318  0.00  0.00    -0.191 NA
ATOM     12  C   UNL d   1      53.243  35.362  54.337  0.00  0.00     0.001 C 
ATOM     13  C   UNL d   1      52.620  31.057  52.781  0.00  0.00     0.019 A 
ATOM     14  C   UNL d   1      53.831  31.111  53.908  0.00  0.00     0.021 A 
ATOM     15  C   UNL d   1      53.022  30.375  52.995  0.00  0.00     0.002 A 
ATOM     16  C   UNL d   1      53.625  30.402  53.556  0.00  0.00     0.002 A 
ENDROOT
BRANCH   5  17
ATOM     17  N   UNL d   1      51.623  33.872  52.506  0.00  0.00    -0.227 NA
BRANCH  17  18
ATOM     18  C   UNL d   1      50.906  34.253  52.654  0.00  0.00     0.101 C 
BRANCH  18  19
ATOM     19  C   UNL d   1      50.297  34.213  52.099  0.00  0.00     0.024 C 
BRANCH  19  20
ATOM     20  C   UNL d   1      49.585  34.609  52.238  0.00  0.00     0.047 C 
BRANCH  20  21
ATOM     21  C   UNL d   1      49.003  34.629  51.653  0.00  0.00     0.234 C 
ATOM     22  O   UNL d   1      48.375  35.159  51.715  0.00  0.00    -0.283 OA
ENDBRANCH  20  21
ENDBRANCH  19  20
ENDBRANCH  18  19
ENDBRANCH  17  18
ENDBRANCH   5  17
TORSDOF 5
ENDMDL
MODEL 2
REMARK VINA RESULT:      -9.3      2.117      3.983
REMARK  5 active torsions:
REMARK  status: ('A' for Active; 'I' for Inactive)
REMARK    1  A    between atoms: N_12  and  C_5 
REMARK    2  A    between atoms: C_17  and  N_12 
REMARK    3  A    between atoms: C_19  and  C_17 
REMARK    4  A    between atoms: C_18  and  C_20 
REMARK    5  A    between atoms: C_20  and  C_19 
ROOT
ATOM      1  C   UNL d   1      52.946  33.713  54.008  0.00  0.00     0.159 A 
ATOM      2  N   UNL d   1      52.913  32.978  53.634  0.00  0.00    -0.275 N 
ATOM      3  C   UNL d   1      53.581  33.888  54.519  0.00  0.00     0.103 A 
ATOM      4  N   UNL d   1      52.352  34.271  53.875  0.00  0.00    -0.226 NA
ATOM      5  C   UNL d   1      53.515  32.414  53.770  0.00  0.00     0.149 A 
ATOM      6  C   UNL d   1      54.174  33.330  54.653  0.00  0.00     0.016 A 
ATOM      7  C   UNL d   1      54.142  32.595  54.279  0.00  0.00     0.038 A 
ATOM      8  C   UNL d   1      51.688  33.360  52.991  0.00  0.00     0.084 A 
ATOM      9  C   UNL d   1      51.721  34.094  53.365  0.00  0.00     0.099 A 
ATOM     10  C   UNL d   1      53.614  34.623  54.893  0.00  0.00     0.104 C 
ATOM     11  N   UNL d   1      53.646  35.358  55.267  0.00  0.00    -0.191 NA
ATOM     12  C   UNL d   1      54.801  33.507  55.160  0.00  0.00     0.001 C 
ATOM     13  C   UNL d   1      51.054  33.181  52.478  0.00  0.00     0.019 A 
ATOM     14  C   UNL d   1      51.120  34.655  53.228  0.00  0.00     0.021 A 
ATOM     15  C   UNL d   1      50.468  33.740  52.351  0.00  0.00     0.002 A 
ATOM     16  C   UNL d   1      50.501  34.475  52.724  0.00  0.00     0.002 A 
ENDROOT
BRANCH   5  17
ATOM     17  N   UNL d   1      53.482  31.679  53.396  0.00  0.00    -0.227 NA
BRANCH  17  18
ATOM     18  C   UNL d   1      53.619  30.990  53.829  0.00  0.00     0.101 C 
BRANCH  18  19
ATOM     19  C   UNL d   1      53.329  30.268  53.557  0.00  0.00     0.024 C 
BRANCH  19  20
ATOM     20  C   UNL d   1      53.600  29.562  53.889  0.00  0.00     0.047 C 
BRANCH  20  21
ATOM     21  C   UNL d   1      53.075  29.064  54.285  0.00  0.00     0.234 C 
ATOM     22  O   UNL d   1      53.364  28.436  54.737  0.00  0.00    -0.283 OA
ENDBRANCH  20  21
ENDBRANCH  19  20
ENDBRANCH  18  19
ENDBRANCH  17  18
ENDBRANCH   5  17
TORSDOF 5
ENDMDL
MODEL 3
REMARK VINA RESULT:      -8.7      2.120      3.905
REMARK  5 active torsions:
REMARK  status: ('A' for Active; 'I' for Inactive)
REMARK    1  A    between atoms: N_12  and  C_5 
REMARK    2  A    between atoms: C_17  and  N_12 
REMARK    3  A    between atoms: C_19  and  C_17 
REMARK    4  A    between atoms: C_18  and  C_20 
REMARK    5  A    between atoms: C_20  and  C_19 
ROOT
ATOM      1  C   UNL d   1      52.613  33.702  53.672  0.00  0.00     0.159 A 
ATOM      2  N   UNL d   1      52.956  32.975  53.484  0.00  0.00    -0.275 N 
ATOM      3  C   UNL d   1      51.881  33.913  53.334  0.00  0.00     0.103 A 
ATOM      4  N   UNL d   1      52.995  34.216  54.194  0.00  0.00    -0.226 NA
ATOM      5  C   UNL d   1      52.569  32.456  52.956  0.00  0.00     0.149 A 
ATOM      6  C   UNL d   1      51.500  33.399  52.813  0.00  0.00     0.016 A 
ATOM      7  C   UNL d   1      51.842  32.673  52.624  0.00  0.00     0.038 A 
ATOM      8  C   UNL d   1      54.067  33.277  54.341  0.00  0.00     0.084 A 
ATOM      9  C   UNL d   1      53.724  34.004  54.529  0.00  0.00     0.099 A 
ATOM     10  C   UNL d   1      51.538  34.639  53.523  0.00  0.00     0.104 C 
ATOM     11  N   UNL d   1      51.195  35.366  53.711  0.00  0.00    -0.191 NA
ATOM     12  C   UNL d   1      50.774  33.612  52.480  0.00  0.00     0.001 C 
ATOM     13  C   UNL d   1      54.801  33.063  54.678  0.00  0.00     0.019 A 
ATOM     14  C   UNL d   1      54.113  34.520  55.056  0.00  0.00     0.021 A 
ATOM     15  C   UNL d   1      55.174  33.578  55.195  0.00  0.00     0.002 A 
ATOM     16  C   UNL d   1      54.831  34.305  55.383  0.00  0.00     0.002 A 
ENDROOT
BRANCH   5  17
ATOM     17  N   UNL d   1      52.912  31.730  52.767  0.00  0.00    -0.227 NA
BRANCH  17  18
ATOM     18  C   UNL d   1      52.560  31.029  53.024  0.00  0.00     0.101 C 
BRANCH  18  19
ATOM     19  C   UNL d   1      52.998  30.330  53.040  0.00  0.00     0.024 C 
BRANCH  19  20
ATOM     20  C   UNL d   1      52.776  29.715  53.544  0.00  0.00     0.047 C 
BRANCH  20  21
ATOM     21  C   UNL d   1      53.352  29.279  53.942  0.00  0.00     0.234 C 
ATOM     22  O   UNL d   1      53.137  28.785  54.567  0.00  0.00    -0.283 OA
ENDBRANCH  20  21
ENDBRANCH  19  20
ENDBRANCH  18  19
ENDBRANCH  17  18
ENDBRANCH   5  17
TORSDOF 5
ENDMDL
MODEL 4
REMARK VINA RESULT:      -8.3      0.964      2.757
REMARK  5 active torsions:
REMARK  status: ('A' for Active; 'I' for Inactive)
REMARK    1  A    between atoms: N_12  and  C_5 
REMARK    2  A    between atoms: C_17  and  N_12 
REMARK    3  A    between atoms: C_19  and  C_17 
REMARK    4  A    between atoms: C_18  and  C_20 
REMARK    5  A    between atoms: C_20  and  C_19 
ROOT
ATOM      1  C   UNL d   1      53.404  32.069  53.789  0.00  0.00     0.159 A 
ATOM      2  N   UNL d   1      53.005  32.734  53.507  0.00  0.00    -0.275 N 
ATOM      3  C   UNL d   1      53.206  31.314  53.497  0.00  0.00     0.103 A 
ATOM      4  N   UNL d   1      53.996  32.154  54.357  0.00  0.00    -0.226 NA
ATOM      5  C   UNL d   1      52.405  32.648  52.931  0.00  0.00     0.149 A 
ATOM      6  C   UNL d   1      52.613  31.230  52.928  0.00  0.00     0.016 A 
ATOM      7  C   UNL d   1      52.214  31.895  52.646  0.00  0.00     0.038 A 
ATOM      8  C   UNL d   1      53.793  33.571  54.365  0.00  0.00     0.084 A 
ATOM      9  C   UNL d   1      54.192  32.906  54.647  0.00  0.00     0.099 A 
ATOM     10  C   UNL d   1      53.605  30.649  53.778  0.00  0.00     0.104 C 
ATOM     11  N   UNL d   1      54.004  29.984  54.060  0.00  0.00    -0.191 NA
ATOM     12  C   UNL d   1      52.420  30.480  52.641  0.00  0.00     0.001 C 
ATOM     13  C   UNL d   1      53.989  34.330  54.656  0.00  0.00     0.019 A 
ATOM     14  C   UNL d   1      54.790  32.996  55.221  0.00  0.00     0.021 A 
ATOM     15  C   UNL d   1      54.579  34.405  55.221  0.00  0.00     0.002 A 
ATOM     16  C   UNL d   1      54.978  33.740  55.502  0.00  0.00     0.002 A 
ENDROOT
BRANCH   5  17
ATOM     17  N   UNL d   1      52.006  33.313  52.649  0.00  0.00    -0.227 NA
BRANCH  17  18
ATOM     18  C   UNL d   1      51.213  33.430  52.844  0.00  0.00     0.101 C 
BRANCH  18  19
ATOM     19  C   UNL d   1      50.815  34.098  52.567  0.00  0.00     0.024 C 
BRANCH  19  20
ATOM     20  C   UNL d   1      50.179  34.407  52.994  0.00  0.00     0.047 C 
BRANCH  20  21
ATOM     21  C   UNL d   1      49.577  34.811  52.601  0.00  0.00     0.234 C 
ATOM     22  O   UNL d   1      49.036  35.262  53.031  0.00  0.00    -0.283 OA
ENDBRANCH  20  21
ENDBRANCH  19  20
ENDBRANCH  18  19
ENDBRANCH  17  18
ENDBRANCH   5  17
TORSDOF 5
ENDMDL
