MODEL 1
REMARK VINA RESULT:      -1.5      0.000      0.000
REMARK  3 active torsions:
REMARK  status: ('A' for Active; 'I' for Inactive)
REMARK    1  A    between atoms: N_4  and  C_1 
REMARK    2  A    between atoms: C_15  and  C_5 
REMARK    3  A    between atoms: C_9  and  N_8 
ROOT
ATOM      1  C   UNL d   1      58.096   0.139  31.345  0.00  0.00     0.169 A 
ATOM      2  N   UNL d   1      58.716   0.682  31.338  0.00  0.00    -0.130 NA
ATOM      3  N   UNL d   1      59.316   0.585  30.767  0.00  0.00    -0.147 NA
ATOM      4  C   UNL d   1      59.291  -0.028  30.232  0.00  0.00     0.103 A 
ATOM      5  C   UNL d   1      58.072  -0.471  30.812  0.00  0.00     0.038 A 
ATOM      6  C   UNL d   1      58.675  -0.555  30.250  0.00  0.00     0.022 A 
ATOM      7  C   UNL d   1      57.433  -1.025  30.824  0.00  0.00     0.003 A 
ATOM      8  C   UNL d   1      58.629  -1.205  29.698  0.00  0.00     0.002 A 
ATOM      9  C   UNL d   1      57.399  -1.668  30.268  0.00  0.00     0.000 A 
ATOM     10  C   UNL d   1      58.010  -1.739  29.712  0.00  0.00     0.000 A 
ENDROOT
BRANCH   1  11
ATOM     11  N   UNL d   1      57.503   0.222  31.896  0.00  0.00    -0.285 N 
ATOM     12  C   UNL d   1      57.600  -0.034  32.677  0.00  0.00     0.101 A 
ATOM     13  C   UNL d   1      57.000   0.050  33.235  0.00  0.00     0.101 A 
ATOM     14  N   UNL d   1      56.288   0.392  33.027  0.00  0.00    -0.286 N 
ATOM     15  C   UNL d   1      56.179   0.648  32.263  0.00  0.00     0.101 A 
ATOM     16  C   UNL d   1      56.798   0.562  31.687  0.00  0.00     0.101 A 
BRANCH  14  17
ATOM     17  C   UNL d   1      55.680   0.483  33.574  0.00  0.00     0.148 A 
ATOM     18  N   UNL d   1      55.826   0.588  34.382  0.00  0.00    -0.227 NA
ATOM     19  C   UNL d   1      55.217   0.679  34.930  0.00  0.00     0.101 A 
ATOM     20  C   UNL d   1      54.438   0.665  34.673  0.00  0.00     0.021 A 
ATOM     21  C   UNL d   1      54.291   0.562  33.878  0.00  0.00     0.005 A 
ATOM     22  C   UNL d   1      54.901   0.471  33.331  0.00  0.00     0.037 A 
ENDBRANCH  14  17
ENDBRANCH   1  11
BRANCH   4  23
ATOM     23  C   UNL d   1      59.895  -0.113  29.670  0.00  0.00     0.019 A 
ATOM     24  C   UNL d   1      59.917   0.400  29.025  0.00  0.00     0.002 A 
ATOM     25  C   UNL d   1      60.522   0.320  28.457  0.00  0.00     0.000 A 
ATOM     26  C   UNL d   1      61.100  -0.263  28.526  0.00  0.00     0.000 A 
ATOM     27  C   UNL d   1      61.079  -0.781  29.175  0.00  0.00     0.000 A 
ATOM     28  C   UNL d   1      60.470  -0.706  29.754  0.00  0.00     0.002 A 
ENDBRANCH   4  23
TORSDOF 3
ENDMDL
MODEL 2
REMARK VINA RESULT:      -0.6      1.231      1.717
REMARK  3 active torsions:
REMARK  status: ('A' for Active; 'I' for Inactive)
REMARK    1  A    between atoms: N_4  and  C_1 
REMARK    2  A    between atoms: C_15  and  C_5 
REMARK    3  A    between atoms: C_9  and  N_8 
ROOT
ATOM      1  C   UNL d   1      57.189  -0.539  31.672  0.00  0.00     0.169 A 
ATOM      2  N   UNL d   1      56.904  -1.080  31.119  0.00  0.00    -0.130 NA
ATOM      3  N   UNL d   1      57.399  -1.283  30.478  0.00  0.00    -0.147 NA
ATOM      4  C   UNL d   1      58.141  -0.958  30.401  0.00  0.00     0.103 A 
ATOM      5  C   UNL d   1      57.928  -0.217  31.594  0.00  0.00     0.038 A 
ATOM      6  C   UNL d   1      58.409  -0.428  30.952  0.00  0.00     0.022 A 
ATOM      7  C   UNL d   1      58.215   0.338  32.165  0.00  0.00     0.003 A 
ATOM      8  C   UNL d   1      59.184  -0.075  30.891  0.00  0.00     0.002 A 
ATOM      9  C   UNL d   1      58.989   0.682  32.092  0.00  0.00     0.000 A 
ATOM     10  C   UNL d   1      59.458   0.461  31.445  0.00  0.00     0.000 A 
ENDROOT
BRANCH   1  11
ATOM     11  N   UNL d   1      56.718  -0.332  32.302  0.00  0.00    -0.285 N 
ATOM     12  C   UNL d   1      56.582   0.460  32.497  0.00  0.00     0.101 A 
ATOM     13  C   UNL d   1      56.104   0.670  33.135  0.00  0.00     0.101 A 
ATOM     14  N   UNL d   1      55.751   0.094  33.593  0.00  0.00    -0.286 N 
ATOM     15  C   UNL d   1      55.876  -0.689  33.412  0.00  0.00     0.101 A 
ATOM     16  C   UNL d   1      56.369  -0.906  32.754  0.00  0.00     0.101 A 
BRANCH  14  17
ATOM     17  C   UNL d   1      55.272   0.288  34.233  0.00  0.00     0.148 A 
ATOM     18  N   UNL d   1      55.582   0.443  34.985  0.00  0.00    -0.227 NA
ATOM     19  C   UNL d   1      55.102   0.638  35.626  0.00  0.00     0.101 A 
ATOM     20  C   UNL d   1      54.290   0.682  35.523  0.00  0.00     0.021 A 
ATOM     21  C   UNL d   1      53.981   0.530  34.784  0.00  0.00     0.005 A 
ATOM     22  C   UNL d   1      54.462   0.336  34.144  0.00  0.00     0.037 A 
ENDBRANCH  14  17
ENDBRANCH   1  11
BRANCH   4  23
ATOM     23  C   UNL d   1      58.621  -1.170  29.759  0.00  0.00     0.019 A 
ATOM     24  C   UNL d   1      58.657  -0.672  29.104  0.00  0.00     0.002 A 
ATOM     25  C   UNL d   1      59.139  -0.880  28.455  0.00  0.00     0.000 A 
ATOM     26  C   UNL d   1      59.581  -1.575  28.456  0.00  0.00     0.000 A 
ATOM     27  C   UNL d   1      59.546  -2.078  29.115  0.00  0.00     0.000 A 
ATOM     28  C   UNL d   1      59.061  -1.875  29.776  0.00  0.00     0.002 A 
ENDBRANCH   4  23
TORSDOF 3
ENDMDL
MODEL 3
REMARK VINA RESULT:       0.2      0.950      5.643
REMARK  3 active torsions:
REMARK  status: ('A' for Active; 'I' for Inactive)
REMARK    1  A    between atoms: N_4  and  C_1 
REMARK    2  A    between atoms: C_15  and  C_5 
REMARK    3  A    between atoms: C_9  and  N_8 
ROOT
ATOM      1  C   UNL d   1      56.712   0.114  32.329  0.00  0.00     0.169 A 
ATOM      2  N   UNL d   1      55.900   0.037  32.216  0.00  0.00    -0.130 NA
ATOM      3  N   UNL d   1      55.399   0.155  32.873  0.00  0.00    -0.147 NA
ATOM      4  C   UNL d   1      55.703   0.340  33.604  0.00  0.00     0.103 A 
ATOM      5  C   UNL d   1      57.014   0.299  33.058  0.00  0.00     0.038 A 
ATOM      6  C   UNL d   1      56.504   0.413  33.702  0.00  0.00     0.022 A 
ATOM      7  C   UNL d   1      57.849   0.377  33.168  0.00  0.00     0.003 A 
ATOM      8  C   UNL d   1      56.845   0.607  34.461  0.00  0.00     0.002 A 
ATOM      9  C   UNL d   1      58.175   0.571  33.929  0.00  0.00     0.000 A 
ATOM     10  C   UNL d   1      57.653   0.682  34.564  0.00  0.00     0.000 A 
ENDROOT
BRANCH   1  11
ATOM     11  N   UNL d   1      57.213   0.003  31.697  0.00  0.00    -0.285 N 
ATOM     12  C   UNL d   1      57.546   0.641  31.292  0.00  0.00     0.101 A 
ATOM     13  C   UNL d   1      58.053   0.528  30.652  0.00  0.00     0.101 A 
ATOM     14  N   UNL d   1      58.238  -0.227  30.401  0.00  0.00    -0.286 N 
ATOM     15  C   UNL d   1      57.917  -0.864  30.791  0.00  0.00     0.101 A 
ATOM     16  C   UNL d   1      57.395  -0.748  31.451  0.00  0.00     0.101 A 
BRANCH  14  17
ATOM     17  C   UNL d   1      58.742  -0.356  29.764  0.00  0.00     0.148 A 
ATOM     18  N   UNL d   1      58.824  -1.100  29.410  0.00  0.00    -0.227 NA
ATOM     19  C   UNL d   1      59.329  -1.230  28.772  0.00  0.00     0.101 A 
ATOM     20  C   UNL d   1      59.768  -0.605  28.472  0.00  0.00     0.021 A 
ATOM     21  C   UNL d   1      59.690   0.129  28.818  0.00  0.00     0.005 A 
ATOM     22  C   UNL d   1      59.185   0.257  29.456  0.00  0.00     0.037 A 
ENDBRANCH  14  17
ENDBRANCH   1  11
BRANCH   4  23
ATOM     23  C   UNL d   1      55.193   0.454  34.248  0.00  0.00     0.019 A 
ATOM     24  C   UNL d   1      54.379   0.456  34.120  0.00  0.00     0.002 A 
ATOM     25  C   UNL d   1      53.862   0.570  34.764  0.00  0.00     0.000 A 
ATOM     26  C   UNL d   1      54.148   0.682  35.529  0.00  0.00     0.000 A 
ATOM     27  C   UNL d   1      54.968   0.680  35.660  0.00  0.00     0.000 A 
ATOM     28  C   UNL d   1      55.498   0.566  35.013  0.00  0.00     0.002 A 
ENDBRANCH   4  23
TORSDOF 3
ENDMDL
