MODEL 1
REMARK VINA RESULT:      73.2      0.000      0.000
REMARK  7 active torsions:
REMARK  status: ('A' for Active; 'I' for Inactive)
REMARK    1  A    between atoms: N_6  and  C_1 
REMARK    2  A    between atoms: S_9  and  C_3 
REMARK       I    between atoms: C_7  and  N_6 
REMARK    3  A    between atoms: C_14  and  C_7 
REMARK    4  A    between atoms: C_8  and  C_13 
REMARK       I    between atoms: N_10  and  C_8 
REMARK    5  A    between atoms: C_13  and  S_9 
REMARK    6  A    between atoms: C_15  and  N_10 
REMARK    7  A    between atoms: C_22  and  C_14 
ROOT
ATOM      1  C   UNL d   1      61.425  45.642  50.771  0.00  0.00     0.219 A 
ATOM      2  S   UNL d   1      61.568  46.277  50.277  0.00  0.00    -0.019 SA
ATOM      3  C   UNL d   1      61.110  46.875  50.502  0.00  0.00     0.165 A 
ATOM      4  N   UNL d   1      60.848  45.896  51.313  0.00  0.00    -0.120 NA
ATOM      5  N   UNL d   1      60.658  46.637  51.151  0.00  0.00    -0.133 NA
ENDROOT
BRANCH   3   6
ATOM      6  S   UNL d   1      61.141  47.611  50.087  0.00  0.00    -0.054 SA
BRANCH   6   7
ATOM      7  C   UNL d   1      60.891  48.305  50.459  0.00  0.00     0.100 C 
BRANCH   7   8
ATOM      8  C   UNL d   1      60.835  49.011  50.036  0.00  0.00     0.286 C 
ATOM      9  N   UNL d   1      60.712  49.708  50.420  0.00  0.00    -0.208 NA
ATOM     10  O   UNL d   1      60.908  49.006  49.191  0.00  0.00    -0.265 OA
BRANCH   9  11
ATOM     11  C   UNL d   1      60.639  49.708  51.271  0.00  0.00     0.085 A 
ATOM     12  C   UNL d   1      59.883  49.708  51.581  0.00  0.00     0.021 A 
ATOM     13  C   UNL d   1      59.798  49.708  52.402  0.00  0.00     0.031 A 
ATOM     14  C   UNL d   1      60.440  49.708  52.895  0.00  0.00     0.140 A 
ATOM     15  C   UNL d   1      61.217  49.708  52.570  0.00  0.00     0.031 A 
ATOM     16  F   UNL d   1      60.359  49.708  53.646  0.00  0.00    -0.204 F 
ATOM     17  C   UNL d   1      61.313  49.708  51.747  0.00  0.00     0.021 A 
ENDBRANCH   9  11
ENDBRANCH   7   8
ENDBRANCH   6   7
ENDBRANCH   3   6
BRANCH   1  18
ATOM     18  N   UNL d   1      61.764  44.880  50.769  0.00  0.00    -0.181 NA
ATOM     19  C   UNL d   1      61.702  44.081  51.046  0.00  0.00     0.281 C 
ATOM     20  O   UNL d   1      61.070  43.875  51.531  0.00  0.00    -0.265 OA
BRANCH  19  21
ATOM     21  C   UNL d   1      62.203  43.443  50.898  0.00  0.00     0.063 C 
BRANCH  21  22
ATOM     22  C   UNL d   1      62.129  42.724  51.436  0.00  0.00     0.005 C 
ATOM     23  C   UNL d   1      62.783  42.202  51.444  0.00  0.00     0.000 C 
ATOM     24  C   UNL d   1      61.614  42.531  51.846  0.00  0.00     0.000 C 
ENDBRANCH  21  22
ENDBRANCH  19  21
ENDBRANCH   1  18
TORSDOF 7
ENDMDL
