MODEL 1
REMARK VINA RESULT:      86.5      0.000      0.000
REMARK  3 active torsions:
REMARK  status: ('A' for Active; 'I' for Inactive)
REMARK    1  A    between atoms: C_24  and  N_10 
REMARK    2  A    between atoms: C_12  and  N_15 
REMARK       I    between atoms: N_15  and  C_16 
REMARK    3  A    between atoms: C_16  and  C_24 
ROOT
ATOM      1  N   UNL d   1     -54.765-102.306 -40.764  0.00  0.00    -0.188 NA
ATOM      2  C   UNL d   1     -54.920-102.220 -39.957  0.00  0.00     0.298 C 
ATOM      3  O   UNL d   1     -55.064-101.461 -39.648  0.00  0.00    -0.263 OA
ENDROOT
BRANCH   1   4
ATOM      4  C   UNL d   1     -54.753-101.641 -41.259  0.00  0.00     0.166 A 
ATOM      5  N   UNL d   1     -54.747-101.736 -42.080  0.00  0.00    -0.226 NA
ATOM      6  C   UNL d   1     -54.735-101.077 -42.575  0.00  0.00     0.090 A 
ATOM      7  C   UNL d   1     -54.729-101.166 -43.396  0.00  0.00     0.041 A 
ATOM      8  C   UNL d   1     -54.729-100.314 -42.251  0.00  0.00     0.081 A 
ATOM      9  C   UNL d   1     -54.717-100.501 -43.891  0.00  0.00     0.105 A 
ATOM     10  C   UNL d   1     -54.735-101.925 -43.724  0.00  0.00     0.004 A 
ATOM     11  C   UNL d   1     -54.711-100.599 -44.710  0.00  0.00     0.025 A 
ATOM     12  O   UNL d   1     -54.711 -99.747 -43.564  0.00  0.00    -0.273 OA
ATOM     13  C   UNL d   1     -54.717-101.355 -45.039  0.00  0.00     0.002 A 
ATOM     14  C   UNL d   1     -54.729-102.023 -44.542  0.00  0.00     0.000 A 
ATOM     15  C   UNL d   1     -54.717 -99.649 -42.746  0.00  0.00     0.301 A 
ATOM     16  O   UNL d   1     -54.711 -98.887 -42.415  0.00  0.00    -0.259 OA
ATOM     17  C   UNL d   1     -54.735-100.219 -41.430  0.00  0.00     0.010 A 
ATOM     18  C   UNL d   1     -54.747-100.876 -40.937  0.00  0.00     0.039 A 
ATOM     19  C   UNL d   1     -54.729 -99.453 -41.107  0.00  0.00     0.000 C 
ENDBRANCH   1   4
BRANCH   2  20
ATOM     20  C   UNL d   1     -54.934-102.880 -39.455  0.00  0.00     0.143 C 
BRANCH  20  21
ATOM     21  N   UNL d   1     -55.257-102.820 -38.700  0.00  0.00    -0.306 N 
ATOM     22  C   UNL d   1     -56.039-102.750 -38.718  0.00  0.00     0.059 A 
ATOM     23  C   UNL d   1     -56.607-102.676 -38.165  0.00  0.00     0.080 A 
ATOM     24  C   UNL d   1     -56.613-102.643 -37.390  0.00  0.00     0.061 A 
ATOM     25  C   UNL d   1     -55.525-102.767 -38.015  0.00  0.00     0.024 A 
ATOM     26  N   UNL d   1     -56.072-102.668 -36.817  0.00  0.00    -0.280 N 
ATOM     27  C   UNL d   1     -55.278-102.738 -36.800  0.00  0.00     0.049 A 
ATOM     28  C   UNL d   1     -56.475-102.603 -36.134  0.00  0.00     0.264 A 
ATOM     29  C   UNL d   1     -54.726-102.810 -37.340  0.00  0.00     0.079 A 
ATOM     30  C   UNL d   1     -54.904-102.743 -36.101  0.00  0.00     0.014 A 
ATOM     31  C   UNL d   1     -54.711-102.845 -38.128  0.00  0.00     0.059 A 
ATOM     32  C   UNL d   1     -55.303-102.679 -35.426  0.00  0.00     0.006 A 
ATOM     33  C   UNL d   1     -56.097-102.608 -35.442  0.00  0.00     0.061 A 
ATOM     34  O   UNL d   1     -57.270-102.533 -36.157  0.00  0.00    -0.267 OA
ENDBRANCH  20  21
ENDBRANCH   2  20
TORSDOF 3
ENDMDL
