MODEL 1
REMARK VINA RESULT:      93.3      0.000      0.000
REMARK  1 active torsions:
REMARK  status: ('A' for Active; 'I' for Inactive)
REMARK    1  A    between atoms: C_3  and  C_1 
REMARK       I    between atoms: N_2  and  C_3 
ROOT
ATOM      1  N   UNL d   1      61.411  47.749  50.252  0.00  0.00    -0.303 N 
ATOM      2  C   UNL d   1      61.333  48.582  50.359  0.00  0.00     0.244 C 
ATOM      3  C   UNL d   1      60.912  47.271  50.732  0.00  0.00     0.088 A 
ATOM      4  C   UNL d   1      62.174  46.720  49.457  0.00  0.00     0.037 A 
ATOM      5  C   UNL d   1      61.977  47.497  49.680  0.00  0.00     0.051 A 
ATOM      6  C   UNL d   1      61.454  46.665  50.171  0.00  0.00     0.028 A 
ATOM      7  C   UNL d   1      61.276  45.870  50.321  0.00  0.00     0.002 A 
ATOM      8  C   UNL d   1      60.859  46.434  50.756  0.00  0.00     0.023 A 
ATOM      9  O   UNL d   1      61.781  49.061  49.930  0.00  0.00    -0.271 OA
ATOM     10  C   UNL d   1      61.860  46.012  49.745  0.00  0.00     0.006 A 
ATOM     11  C   UNL d   1      62.777  46.716  48.857  0.00  0.00     0.006 C 
ATOM     12  C   UNL d   1      61.602  45.179  49.972  0.00  0.00     0.000 C 
ATOM     13  C   UNL d   1      60.776  45.393  50.801  0.00  0.00     0.000 C 
ENDROOT
BRANCH   2  14
ATOM     14  C   UNL d   1      60.814  48.861  50.885  0.00  0.00     0.111 A 
ATOM     15  C   UNL d   1      59.565  49.489  51.339  0.00  0.00     0.025 A 
ATOM     16  C   UNL d   1      60.276  49.147  51.400  0.00  0.00     0.074 A 
ATOM     17  C   UNL d   1      59.069  49.701  50.750  0.00  0.00     0.002 C 
ATOM     18  C   UNL d   1      59.183  49.708  51.999  0.00  0.00     0.002 C 
ATOM     19  C   UNL d   1      59.893  49.365  52.044  0.00  0.00     0.012 C 
ATOM     20  C   UNL d   1      60.760  48.941  51.990  0.00  0.00    -0.023 A 
ATOM     21  C   UNL d   1      60.125  49.182  50.624  0.00  0.00     0.172 A 
ATOM     22  C   UNL d   1      61.285  48.660  51.475  0.00  0.00    -0.018 A 
ATOM     23  C   UNL d   1      60.657  48.898  50.103  0.00  0.00     0.024 A 
ATOM     24  O   UNL d   1      59.525  49.452  50.182  0.00  0.00    -0.291 OA
ENDBRANCH   2  14
TORSDOF 1
ENDMDL
