MODEL 1
REMARK VINA RESULT:      -3.1      0.000      0.000
REMARK  6 active torsions:
REMARK  status: ('A' for Active; 'I' for Inactive)
REMARK    1  A    between atoms: C_3  and  S_1 
REMARK    2  A    between atoms: N_12  and  S_1 
REMARK    3  A    between atoms: C_6  and  C_16 
REMARK    4  A    between atoms: C_17  and  N_12 
REMARK    5  A    between atoms: O_18  and  C_13 
REMARK    6  A    between atoms: C_16  and  C_17 
ROOT
ATOM      1  S   UNL d   1      32.877  18.383 -23.204  0.00  0.00     0.285 S 
ATOM      2  O   UNL d   1      32.562  18.683 -23.913  0.00  0.00    -0.198 OA
ATOM      3  O   UNL d   1      33.190  18.083 -22.499  0.00  0.00    -0.198 OA
ENDROOT
BRANCH   1   4
ATOM      4  C   UNL d   1      32.513  17.661 -23.351  0.00  0.00     0.105 A 
ATOM      5  C   UNL d   1      32.921  16.960 -23.219  0.00  0.00     0.015 A 
ATOM      6  C   UNL d   1      32.546  16.233 -23.369  0.00  0.00     0.023 A 
ATOM      7  C   UNL d   1      32.955  15.525 -23.236  0.00  0.00     0.002 C 
ATOM      8  C   UNL d   1      31.780  16.217 -23.646  0.00  0.00     0.094 A 
ATOM      9  C   UNL d   1      31.373  16.921 -23.779  0.00  0.00     0.025 A 
ATOM     10  C   UNL d   1      31.737  17.640 -23.632  0.00  0.00     0.015 A 
BRANCH   8  11
ATOM     11  O   UNL d   1      31.411  15.497 -23.795  0.00  0.00    -0.328 OA
ATOM     12  C   UNL d   1      30.682  15.476 -24.171  0.00  0.00     0.181 C 
ENDBRANCH   8  11
ENDBRANCH   1   4
BRANCH   1  13
ATOM     13  N   UNL d   1      33.239  19.112 -23.065  0.00  0.00    -0.157 NA
BRANCH  13  14
ATOM     14  C   UNL d   1      32.880  19.654 -22.533  0.00  0.00     0.114 C 
BRANCH  14  15
ATOM     15  C   UNL d   1      33.234  20.380 -22.393  0.00  0.00     0.041 C 
BRANCH  15  16
ATOM     16  C   UNL d   1      32.901  20.914 -21.857  0.00  0.00     0.090 A 
ATOM     17  N   UNL d   1      32.896  21.737 -21.944  0.00  0.00    -0.238 NA
ATOM     18  C   UNL d   1      32.508  22.053 -21.284  0.00  0.00     0.111 A 
ATOM     19  C   UNL d   1      32.372  22.861 -21.133  0.00  0.00     0.028 C 
ATOM     20  S   UNL d   1      32.277  21.431 -20.793  0.00  0.00    -0.066 SA
ATOM     21  C   UNL d   1      32.522  20.723 -21.151  0.00  0.00     0.056 A 
ENDBRANCH  15  16
ENDBRANCH  14  15
ENDBRANCH  13  14
ENDBRANCH   1  13
TORSDOF 6
ENDMDL
MODEL 2
REMARK VINA RESULT:      -2.7      1.538      2.312
REMARK  6 active torsions:
REMARK  status: ('A' for Active; 'I' for Inactive)
REMARK    1  A    between atoms: C_3  and  S_1 
REMARK    2  A    between atoms: N_12  and  S_1 
REMARK    3  A    between atoms: C_6  and  C_16 
REMARK    4  A    between atoms: C_17  and  N_12 
REMARK    5  A    between atoms: O_18  and  C_13 
REMARK    6  A    between atoms: C_16  and  C_17 
ROOT
ATOM      1  S   UNL d   1      31.630  17.332 -23.891  0.00  0.00     0.285 S 
ATOM      2  O   UNL d   1      31.591  17.943 -24.454  0.00  0.00    -0.198 OA
ATOM      3  O   UNL d   1      31.666  16.723 -23.331  0.00  0.00    -0.198 OA
ENDROOT
BRANCH   1   4
ATOM      4  C   UNL d   1      30.901  17.051 -24.150  0.00  0.00     0.105 A 
ATOM      5  C   UNL d   1      30.237  17.532 -24.109  0.00  0.00     0.015 A 
ATOM      6  C   UNL d   1      29.504  17.241 -24.373  0.00  0.00     0.023 A 
ATOM      7  C   UNL d   1      28.832  17.724 -24.333  0.00  0.00     0.002 C 
ATOM      8  C   UNL d   1      29.446  16.485 -24.670  0.00  0.00     0.094 A 
ATOM      9  C   UNL d   1      30.115  16.003 -24.710  0.00  0.00     0.025 A 
ATOM     10  C   UNL d   1      30.839  16.285 -24.452  0.00  0.00     0.015 A 
BRANCH   8  11
ATOM     11  O   UNL d   1      28.720  16.199 -24.930  0.00  0.00    -0.328 OA
ATOM     12  C   UNL d   1      28.464  15.453 -24.703  0.00  0.00     0.181 C 
ENDBRANCH   8  11
ENDBRANCH   1   4
BRANCH   1  13
ATOM     13  N   UNL d   1      32.360  17.621 -23.637  0.00  0.00    -0.157 NA
BRANCH  13  14
ATOM     14  C   UNL d   1      32.394  18.359 -23.238  0.00  0.00     0.114 C 
BRANCH  14  15
ATOM     15  C   UNL d   1      33.112  18.634 -22.954  0.00  0.00     0.041 C 
BRANCH  15  16
ATOM     16  C   UNL d   1      33.158  19.357 -22.557  0.00  0.00     0.090 A 
ATOM     17  N   UNL d   1      33.166  20.102 -22.919  0.00  0.00    -0.238 NA
ATOM     18  C   UNL d   1      33.217  20.669 -22.318  0.00  0.00     0.111 A 
ATOM     19  C   UNL d   1      33.241  21.495 -22.421  0.00  0.00     0.028 C 
ATOM     20  S   UNL d   1      33.241  20.279 -21.591  0.00  0.00    -0.066 SA
ATOM     21  C   UNL d   1      33.204  19.463 -21.740  0.00  0.00     0.056 A 
ENDBRANCH  15  16
ENDBRANCH  14  15
ENDBRANCH  13  14
ENDBRANCH   1  13
TORSDOF 6
ENDMDL
MODEL 3
REMARK VINA RESULT:      -2.3      1.662      4.859
REMARK  6 active torsions:
REMARK  status: ('A' for Active; 'I' for Inactive)
REMARK    1  A    between atoms: C_3  and  S_1 
REMARK    2  A    between atoms: N_12  and  S_1 
REMARK    3  A    between atoms: C_6  and  C_16 
REMARK    4  A    between atoms: C_17  and  N_12 
REMARK    5  A    between atoms: O_18  and  C_13 
REMARK    6  A    between atoms: C_16  and  C_17 
ROOT
ATOM      1  S   UNL d   1      33.040  19.063 -23.371  0.00  0.00     0.285 S 
ATOM      2  O   UNL d   1      32.959  19.488 -24.081  0.00  0.00    -0.198 OA
ATOM      3  O   UNL d   1      33.121  18.641 -22.663  0.00  0.00    -0.198 OA
ENDROOT
BRANCH   1   4
ATOM      4  C   UNL d   1      33.087  19.771 -22.955  0.00  0.00     0.105 A 
ATOM      5  C   UNL d   1      33.030  19.772 -22.136  0.00  0.00     0.015 A 
ATOM      6  C   UNL d   1      33.079  20.492 -21.723  0.00  0.00     0.023 A 
ATOM      7  C   UNL d   1      33.021  20.495 -20.896  0.00  0.00     0.002 C 
ATOM      8  C   UNL d   1      33.183  21.190 -22.128  0.00  0.00     0.094 A 
ATOM      9  C   UNL d   1      33.241  21.188 -22.950  0.00  0.00     0.025 A 
ATOM     10  C   UNL d   1      33.193  20.482 -23.363  0.00  0.00     0.015 A 
BRANCH   8  11
ATOM     11  O   UNL d   1      33.231  21.901 -21.717  0.00  0.00    -0.328 OA
ATOM     12  C   UNL d   1      32.998  22.602 -22.075  0.00  0.00     0.181 C 
ENDBRANCH   8  11
ENDBRANCH   1   4
BRANCH   1  13
ATOM     13  N   UNL d   1      32.991  18.357 -23.796  0.00  0.00    -0.157 NA
BRANCH  13  14
ATOM     14  C   UNL d   1      32.242  17.992 -23.903  0.00  0.00     0.114 C 
BRANCH  14  15
ATOM     15  C   UNL d   1      32.200  17.232 -24.205  0.00  0.00     0.041 C 
BRANCH  15  16
ATOM     16  C   UNL d   1      31.475  16.840 -24.261  0.00  0.00     0.090 A 
ATOM     17  N   UNL d   1      30.744  17.205 -24.396  0.00  0.00    -0.238 NA
ATOM     18  C   UNL d   1      30.169  16.609 -24.410  0.00  0.00     0.111 A 
ATOM     19  C   UNL d   1      29.352  16.717 -24.530  0.00  0.00     0.028 C 
ATOM     20  S   UNL d   1      30.540  15.883 -24.286  0.00  0.00    -0.066 SA
ATOM     21  C   UNL d   1      31.353  16.027 -24.193  0.00  0.00     0.056 A 
ENDBRANCH  15  16
ENDBRANCH  14  15
ENDBRANCH  13  14
ENDBRANCH   1  13
TORSDOF 6
ENDMDL
MODEL 4
REMARK VINA RESULT:      -2.3      0.894      1.150
REMARK  6 active torsions:
REMARK  status: ('A' for Active; 'I' for Inactive)
REMARK    1  A    between atoms: C_3  and  S_1 
REMARK    2  A    between atoms: N_12  and  S_1 
REMARK    3  A    between atoms: C_6  and  C_16 
REMARK    4  A    between atoms: C_17  and  N_12 
REMARK    5  A    between atoms: O_18  and  C_13 
REMARK    6  A    between atoms: C_16  and  C_17 
ROOT
ATOM      1  S   UNL d   1      32.894  19.003 -22.802  0.00  0.00     0.285 S 
ATOM      2  O   UNL d   1      32.545  18.589 -22.170  0.00  0.00    -0.198 OA
ATOM      3  O   UNL d   1      33.240  19.413 -23.433  0.00  0.00    -0.198 OA
ENDROOT
BRANCH   1   4
ATOM      4  C   UNL d   1      32.570  18.462 -23.331  0.00  0.00     0.105 A 
ATOM      5  C   UNL d   1      32.756  17.664 -23.270  0.00  0.00     0.015 A 
ATOM      6  C   UNL d   1      32.425  17.124 -23.808  0.00  0.00     0.023 A 
ATOM      7  C   UNL d   1      32.611  16.319 -23.748  0.00  0.00     0.002 C 
ATOM      8  C   UNL d   1      31.919  17.384 -24.391  0.00  0.00     0.094 A 
ATOM      9  C   UNL d   1      31.733  18.186 -24.451  0.00  0.00     0.025 A 
ATOM     10  C   UNL d   1      32.057  18.722 -23.923  0.00  0.00     0.015 A 
BRANCH   8  11
ATOM     11  O   UNL d   1      31.593  16.848 -24.922  0.00  0.00    -0.328 OA
ATOM     12  C   UNL d   1      30.778  16.780 -24.992  0.00  0.00     0.181 C 
ENDBRANCH   8  11
ENDBRANCH   1   4
BRANCH   1  13
ATOM     13  N   UNL d   1      33.215  19.541 -22.265  0.00  0.00    -0.157 NA
BRANCH  13  14
ATOM     14  C   UNL d   1      32.811  20.262 -22.114  0.00  0.00     0.114 C 
BRANCH  14  15
ATOM     15  C   UNL d   1      32.965  20.677 -21.425  0.00  0.00     0.041 C 
BRANCH  15  16
ATOM     16  C   UNL d   1      32.674  21.443 -21.320  0.00  0.00     0.090 A 
ATOM     17  N   UNL d   1      32.669  22.035 -21.898  0.00  0.00    -0.238 NA
ATOM     18  C   UNL d   1      32.329  22.710 -21.558  0.00  0.00     0.111 A 
ATOM     19  C   UNL d   1      32.209  23.443 -21.935  0.00  0.00     0.028 C 
ATOM     20  S   UNL d   1      32.125  22.536 -20.778  0.00  0.00    -0.066 SA
ATOM     21  C   UNL d   1      32.340  21.748 -20.630  0.00  0.00     0.056 A 
ENDBRANCH  15  16
ENDBRANCH  14  15
ENDBRANCH  13  14
ENDBRANCH   1  13
TORSDOF 6
ENDMDL
MODEL 5
REMARK VINA RESULT:      -0.9      1.698      5.185
REMARK  6 active torsions:
REMARK  status: ('A' for Active; 'I' for Inactive)
REMARK    1  A    between atoms: C_3  and  S_1 
REMARK    2  A    between atoms: N_12  and  S_1 
REMARK    3  A    between atoms: C_6  and  C_16 
REMARK    4  A    between atoms: C_17  and  N_12 
REMARK    5  A    between atoms: O_18  and  C_13 
REMARK    6  A    between atoms: C_16  and  C_17 
ROOT
ATOM      1  S   UNL d   1      33.068  20.089 -22.072  0.00  0.00     0.285 S 
ATOM      2  O   UNL d   1      33.241  20.435 -22.809  0.00  0.00    -0.198 OA
ATOM      3  O   UNL d   1      32.896  19.746 -21.338  0.00  0.00    -0.198 OA
ENDROOT
BRANCH   1   4
ATOM      4  C   UNL d   1      32.898  20.832 -21.765  0.00  0.00     0.105 A 
ATOM      5  C   UNL d   1      33.145  21.508 -22.162  0.00  0.00     0.015 A 
ATOM      6  C   UNL d   1      32.969  22.256 -21.845  0.00  0.00     0.023 A 
ATOM      7  C   UNL d   1      33.217  22.939 -22.244  0.00  0.00     0.002 C 
ATOM      8  C   UNL d   1      32.556  22.319 -21.146  0.00  0.00     0.094 A 
ATOM      9  C   UNL d   1      32.309  21.639 -20.749  0.00  0.00     0.025 A 
ATOM     10  C   UNL d   1      32.479  20.899 -21.057  0.00  0.00     0.015 A 
BRANCH   8  11
ATOM     11  O   UNL d   1      32.383  23.060 -20.835  0.00  0.00    -0.328 OA
ATOM     12  C   UNL d   1      32.244  23.148 -20.030  0.00  0.00     0.181 C 
ENDBRANCH   8  11
ENDBRANCH   1   4
BRANCH   1  13
ATOM     13  N   UNL d   1      33.241  19.346 -22.388  0.00  0.00    -0.157 NA
BRANCH  13  14
ATOM     14  C   UNL d   1      32.673  18.965 -22.875  0.00  0.00     0.114 C 
BRANCH  14  15
ATOM     15  C   UNL d   1      32.872  18.272 -23.266  0.00  0.00     0.041 C 
BRANCH  15  16
ATOM     16  C   UNL d   1      32.286  17.785 -23.586  0.00  0.00     0.090 A 
ATOM     17  N   UNL d   1      32.029  17.070 -23.260  0.00  0.00    -0.238 NA
ATOM     18  C   UNL d   1      31.439  16.769 -23.756  0.00  0.00     0.111 A 
ATOM     19  C   UNL d   1      31.019  16.057 -23.648  0.00  0.00     0.028 C 
ATOM     20  S   UNL d   1      31.331  17.293 -24.384  0.00  0.00    -0.066 SA
ATOM     21  C   UNL d   1      31.859  17.926 -24.277  0.00  0.00     0.056 A 
ENDBRANCH  15  16
ENDBRANCH  14  15
ENDBRANCH  13  14
ENDBRANCH   1  13
TORSDOF 6
ENDMDL
MODEL 6
REMARK VINA RESULT:      -0.3      2.354      5.897
REMARK  6 active torsions:
REMARK  status: ('A' for Active; 'I' for Inactive)
REMARK    1  A    between atoms: C_3  and  S_1 
REMARK    2  A    between atoms: N_12  and  S_1 
REMARK    3  A    between atoms: C_6  and  C_16 
REMARK    4  A    between atoms: C_17  and  N_12 
REMARK    5  A    between atoms: O_18  and  C_13 
REMARK    6  A    between atoms: C_16  and  C_17 
ROOT
ATOM      1  S   UNL d   1      33.004  22.058 -21.257  0.00  0.00     0.285 S 
ATOM      2  O   UNL d   1      33.040  22.782 -21.665  0.00  0.00    -0.198 OA
ATOM      3  O   UNL d   1      32.967  21.339 -20.848  0.00  0.00    -0.198 OA
ENDROOT
BRANCH   1   4
ATOM      4  C   UNL d   1      32.767  22.457 -20.577  0.00  0.00     0.105 A 
ATOM      5  C   UNL d   1      32.062  22.877 -20.570  0.00  0.00     0.015 A 
ATOM      6  C   UNL d   1      31.830  23.277 -19.879  0.00  0.00     0.023 A 
ATOM      7  C   UNL d   1      31.118  23.702 -19.870  0.00  0.00     0.002 C 
ATOM      8  C   UNL d   1      32.299  23.251 -19.214  0.00  0.00     0.094 A 
ATOM      9  C   UNL d   1      33.007  22.829 -19.222  0.00  0.00     0.025 A 
ATOM     10  C   UNL d   1      33.241  22.433 -19.900  0.00  0.00     0.015 A 
BRANCH   8  11
ATOM     11  O   UNL d   1      32.067  23.648 -18.531  0.00  0.00    -0.328 OA
ATOM     12  C   UNL d   1      32.524  23.600 -17.851  0.00  0.00     0.181 C 
ENDBRANCH   8  11
ENDBRANCH   1   4
BRANCH   1  13
ATOM     13  N   UNL d   1      33.241  21.667 -21.943  0.00  0.00    -0.157 NA
BRANCH  13  14
ATOM     14  C   UNL d   1      33.089  20.844 -22.020  0.00  0.00     0.114 C 
BRANCH  14  15
ATOM     15  C   UNL d   1      33.139  20.489 -22.758  0.00  0.00     0.041 C 
BRANCH  15  16
ATOM     16  C   UNL d   1      33.090  19.668 -22.834  0.00  0.00     0.090 A 
ATOM     17  N   UNL d   1      33.145  19.250 -23.546  0.00  0.00    -0.238 NA
ATOM     18  C   UNL d   1      33.067  18.445 -23.367  0.00  0.00     0.111 A 
ATOM     19  C   UNL d   1      33.087  17.816 -23.913  0.00  0.00     0.028 C 
ATOM     20  S   UNL d   1      32.964  18.366 -22.553  0.00  0.00    -0.066 SA
ATOM     21  C   UNL d   1      32.979  19.127 -22.221  0.00  0.00     0.056 A 
ENDBRANCH  15  16
ENDBRANCH  14  15
ENDBRANCH  13  14
ENDBRANCH   1  13
TORSDOF 6
ENDMDL
