MODEL 1
REMARK VINA RESULT:       8.8      0.000      0.000
REMARK  1 active torsions:
REMARK  status: ('A' for Active; 'I' for Inactive)
REMARK    1  A    between atoms: C_4  and  C_1 
REMARK       I    between atoms: N_5  and  C_1 
ROOT
ATOM      1  N   UNL d   1      56.785  49.699  51.859  0.00  0.00    -0.242 NA
ATOM      2  C   UNL d   1      56.978  49.702  50.216  0.00  0.00     0.062 A 
ATOM      3  C   UNL d   1      57.541  49.694  51.526  0.00  0.00     0.099 A 
ATOM      4  C   UNL d   1      56.124  49.706  51.360  0.00  0.00     0.099 A 
ATOM      5  C   UNL d   1      56.220  49.707  50.540  0.00  0.00     0.025 A 
ATOM      6  C   UNL d   1      57.637  49.696  50.707  0.00  0.00     0.025 A 
ENDROOT
BRANCH   2   7
ATOM      7  C   UNL d   1      57.105  49.703  49.776  0.00  0.00     0.298 C 
ATOM      8  O   UNL d   1      57.765  49.708  49.469  0.00  0.00    -0.264 OA
ATOM      9  N   UNL d   1      56.570  49.698  49.229  0.00  0.00    -0.085 NA
ATOM     10  N   UNL d   1      56.134  49.695  49.543  0.00  0.00    -0.019 N 
ENDBRANCH   2   7
TORSDOF 1
ENDMDL
