MODEL 1
REMARK VINA RESULT:      -3.2      0.000      0.000
REMARK  3 active torsions:
REMARK  status: ('A' for Active; 'I' for Inactive)
REMARK    1  A    between atoms: N_6  and  C_1 
REMARK       I    between atoms: C_8  and  N_6 
REMARK       I    between atoms: C_11  and  N_7 
REMARK    2  A    between atoms: C_14  and  C_8 
REMARK    3  A    between atoms: O_23  and  C_20 
ROOT
ATOM      1  C   UNL d   1      56.952   0.606  32.318  0.00  0.00     0.124 A 
ATOM      2  C   UNL d   1      57.177   0.639  33.113  0.00  0.00     0.093 A 
ATOM      3  C   UNL d   1      55.847   0.619  33.071  0.00  0.00     0.049 A 
ATOM      4  C   UNL d   1      56.480   0.647  33.577  0.00  0.00     0.021 A 
ATOM      5  S   UNL d   1      56.122   0.593  32.290  0.00  0.00    -0.066 SA
ATOM      6  N   UNL d   1      54.949   0.648  34.194  0.00  0.00    -0.272 N 
ATOM      7  C   UNL d   1      55.059   0.619  33.380  0.00  0.00     0.089 A 
ATOM      8  C   UNL d   1      57.949   0.660  33.392  0.00  0.00     0.103 C 
ATOM      9  C   UNL d   1      54.183   0.649  34.509  0.00  0.00     0.265 C 
ATOM     10  N   UNL d   1      58.716   0.682  33.670  0.00  0.00    -0.191 NA
ATOM     11  C   UNL d   1      56.376   0.676  34.401  0.00  0.00     0.020 A 
ATOM     12  C   UNL d   1      55.605   0.677  34.703  0.00  0.00     0.083 A 
ATOM     13  O   UNL d   1      53.533   0.621  34.005  0.00  0.00    -0.267 OA
ATOM     14  C   UNL d   1      54.070   0.678  35.326  0.00  0.00     0.066 C 
ENDROOT
BRANCH   1  15
ATOM     15  N   UNL d   1      57.462   0.589  31.661  0.00  0.00    -0.201 NA
ATOM     16  C   UNL d   1      57.334   0.033  31.066  0.00  0.00     0.280 C 
ATOM     17  O   UNL d   1      56.714  -0.503  31.110  0.00  0.00    -0.265 OA
BRANCH  16  18
ATOM     18  C   UNL d   1      57.839   0.015  30.417  0.00  0.00     0.058 A 
ATOM     19  C   UNL d   1      57.908   0.666  29.932  0.00  0.00     0.007 A 
ATOM     20  C   UNL d   1      58.418   0.649  29.275  0.00  0.00     0.024 A 
ATOM     21  C   UNL d   1      58.851  -0.031  29.120  0.00  0.00     0.094 A 
ATOM     22  C   UNL d   1      58.784  -0.689  29.606  0.00  0.00     0.024 A 
ATOM     23  C   UNL d   1      58.279  -0.672  30.255  0.00  0.00     0.007 A 
BRANCH  21  24
ATOM     24  O   UNL d   1      59.364  -0.048  28.459  0.00  0.00    -0.328 OA
ATOM     25  C   UNL d   1      60.120   0.294  28.501  0.00  0.00     0.181 C 
ENDBRANCH  21  24
ENDBRANCH  16  18
ENDBRANCH   1  15
TORSDOF 3
ENDMDL
