MODEL 1
REMARK VINA RESULT:      35.7      0.000      0.000
REMARK  3 active torsions:
REMARK  status: ('A' for Active; 'I' for Inactive)
REMARK    1  A    between atoms: C_10  and  N_4 
REMARK    2  A    between atoms: C_11  and  N_6 
REMARK    3  A    between atoms: C_16  and  C_11 
ROOT
ATOM      1  C   UNL d   1      14.319  13.108  -1.984  0.00  0.00     0.172 A 
ATOM      2  C   UNL d   1      14.671  12.867  -1.277  0.00  0.00     0.113 A 
ATOM      3  N   UNL d   1      14.194  13.905  -2.133  0.00  0.00    -0.206 NA
ATOM      4  N   UNL d   1      14.155  12.424  -2.424  0.00  0.00    -0.212 N 
ATOM      5  C   UNL d   1      14.899  13.424  -0.720  0.00  0.00     0.270 A 
ATOM      6  N   UNL d   1      14.775  14.229  -0.866  0.00  0.00    -0.254 N 
ATOM      7  N   UNL d   1      14.406  11.779  -1.988  0.00  0.00    -0.162 NA
ATOM      8  C   UNL d   1      14.423  14.470  -1.572  0.00  0.00     0.187 A 
ATOM      9  C   UNL d   1      14.719  12.039  -1.295  0.00  0.00     0.129 A 
ATOM     10  O   UNL d   1      15.251  13.184  -0.014  0.00  0.00    -0.266 OA
ENDROOT
BRANCH   4  11
ATOM     11  C   UNL d   1      13.810  12.361  -3.159  0.00  0.00     0.085 A 
ATOM     12  C   UNL d   1      13.169  11.842  -3.276  0.00  0.00     0.021 A 
ATOM     13  C   UNL d   1      12.826  11.783  -4.017  0.00  0.00     0.031 A 
ATOM     14  C   UNL d   1      13.118  12.245  -4.658  0.00  0.00     0.140 A 
ATOM     15  C   UNL d   1      13.743  12.747  -4.531  0.00  0.00     0.031 A 
ATOM     16  F   UNL d   1      12.773  12.192  -5.421  0.00  0.00    -0.204 F 
ATOM     17  C   UNL d   1      14.094  12.813  -3.790  0.00  0.00     0.021 A 
ENDBRANCH   4  11
BRANCH   6  18
ATOM     18  C   UNL d   1      15.004  14.802  -0.303  0.00  0.00     0.104 C 
BRANCH  18  19
ATOM     19  C   UNL d   1      15.211  15.568  -0.550  0.00  0.00     0.099 A 
ATOM     20  N   UNL d   1      15.852  15.945  -0.193  0.00  0.00    -0.242 NA
ATOM     21  C   UNL d   1      16.065  16.718  -0.439  0.00  0.00     0.099 A 
ATOM     22  C   UNL d   1      15.623  17.071  -1.029  0.00  0.00     0.021 A 
ATOM     23  C   UNL d   1      14.977  16.689  -1.388  0.00  0.00     0.003 A 
ATOM     24  C   UNL d   1      14.780  15.936  -1.139  0.00  0.00     0.021 A 
ENDBRANCH  18  19
ENDBRANCH   6  18
TORSDOF 3
ENDMDL
