MODEL 1
REMARK VINA RESULT:      44.5      0.000      0.000
REMARK  2 active torsions:
REMARK  status: ('A' for Active; 'I' for Inactive)
REMARK    1  A    between atoms: C_7  and  C_1 
REMARK    2  A    between atoms: O_16  and  C_12 
ROOT
ATOM      1  C   UNL d   1     -57.959 -98.875 -43.878  0.00  0.00     0.105 A 
ATOM      2  C   UNL d   1     -56.724 -98.850 -45.003  0.00  0.00     0.064 A 
ATOM      3  O   UNL d   1     -57.167 -98.914 -43.625  0.00  0.00    -0.307 OA
ATOM      4  C   UNL d   1     -57.514 -98.812 -45.252  0.00  0.00     0.200 A 
ATOM      5  C   UNL d   1     -56.555 -98.902 -44.184  0.00  0.00     0.103 A 
ATOM      6  C   UNL d   1     -58.136 -98.823 -44.696  0.00  0.00     0.067 A 
ATOM      7  C   UNL d   1     -56.113 -98.838 -45.553  0.00  0.00     0.029 A 
ATOM      8  O   UNL d   1     -57.688 -98.761 -46.057  0.00  0.00    -0.286 OA
ATOM      9  C   UNL d   1     -55.763 -98.941 -43.935  0.00  0.00     0.027 A 
ATOM     10  C   UNL d   1     -55.331 -98.877 -45.302  0.00  0.00     0.094 A 
ATOM     11  C   UNL d   1     -55.156 -98.928 -44.497  0.00  0.00     0.026 A 
ENDROOT
BRANCH   1  12
ATOM     12  C   UNL d   1     -58.570 -98.887 -43.333  0.00  0.00     0.050 A 
ATOM     13  C   UNL d   1     -59.341 -99.010 -43.586  0.00  0.00     0.142 A 
ATOM     14  F   UNL d   1     -59.491 -99.122 -44.399  0.00  0.00    -0.204 F 
ATOM     15  C   UNL d   1     -59.960 -99.023 -43.043  0.00  0.00     0.030 A 
ATOM     16  C   UNL d   1     -59.805 -98.912 -42.242  0.00  0.00     0.002 A 
ATOM     17  C   UNL d   1     -59.032 -98.788 -41.984  0.00  0.00     0.000 A 
ATOM     18  C   UNL d   1     -58.413 -98.775 -42.526  0.00  0.00     0.004 A 
ENDBRANCH   1  12
BRANCH  10  19
ATOM     19  O   UNL d   1     -54.721 -98.865 -45.856  0.00  0.00    -0.328 OA
ATOM     20  C   UNL d   1     -54.893 -98.764 -46.656  0.00  0.00     0.181 C 
ENDBRANCH  10  19
TORSDOF 2
ENDMDL
