MODEL 1
REMARK VINA RESULT:      55.3      0.000      0.000
REMARK  4 active torsions:
REMARK  status: ('A' for Active; 'I' for Inactive)
REMARK    1  A    between atoms: C_10  and  N_3 
REMARK    2  A    between atoms: C_11  and  C_6 
REMARK    3  A    between atoms: C_16  and  C_10 
REMARK    4  A    between atoms: N_17  and  C_16 
ROOT
ATOM      1  C   UNL d   1     -58.140 -98.756 -45.066  0.00  0.00     0.083 A 
ATOM      2  C   UNL d   1     -57.518 -98.756 -45.589  0.00  0.00     0.161 A 
ATOM      3  N   UNL d   1     -57.026 -98.756 -44.374  0.00  0.00    -0.270 N 
ATOM      4  C   UNL d   1     -56.827 -98.756 -45.161  0.00  0.00     0.288 A 
ATOM      5  C   UNL d   1     -58.916 -98.756 -45.336  0.00  0.00     0.201 A 
ATOM      6  C   UNL d   1     -57.834 -98.756 -44.314  0.00  0.00     0.072 A 
ATOM      7  O   UNL d   1     -57.669 -98.755 -46.401  0.00  0.00    -0.302 OA
ATOM      8  C   UNL d   1     -59.054 -98.756 -46.145  0.00  0.00     0.062 A 
ATOM      9  C   UNL d   1     -58.428 -98.755 -46.672  0.00  0.00     0.103 A 
ATOM     10  O   UNL d   1     -56.059 -98.756 -45.477  0.00  0.00    -0.264 OA
ATOM     11  O   UNL d   1     -59.549 -98.756 -44.804  0.00  0.00    -0.286 OA
ATOM     12  C   UNL d   1     -59.831 -98.755 -46.425  0.00  0.00     0.005 A 
ATOM     13  C   UNL d   1     -58.576 -98.755 -47.480  0.00  0.00     0.025 A 
ATOM     14  C   UNL d   1     -59.961 -98.755 -47.224  0.00  0.00     0.000 A 
ATOM     15  C   UNL d   1     -59.335 -98.755 -47.750  0.00  0.00     0.002 A 
ENDROOT
BRANCH   6  16
ATOM     16  C   UNL d   1     -58.276 -98.756 -43.607  0.00  0.00     0.017 A 
ATOM     17  C   UNL d   1     -59.100 -98.757 -43.639  0.00  0.00     0.004 A 
ATOM     18  C   UNL d   1     -59.536 -98.757 -42.937  0.00  0.00     0.030 A 
ATOM     19  C   UNL d   1     -59.143 -98.757 -42.193  0.00  0.00     0.140 A 
ATOM     20  C   UNL d   1     -58.317 -98.756 -42.173  0.00  0.00     0.030 A 
ATOM     21  F   UNL d   1     -59.582 -98.757 -41.488  0.00  0.00    -0.204 F 
ATOM     22  C   UNL d   1     -57.878 -98.756 -42.880  0.00  0.00     0.004 A 
ENDBRANCH   6  16
BRANCH   3  23
ATOM     23  C   UNL d   1     -56.489 -98.756 -43.734  0.00  0.00     0.102 C 
BRANCH  23  24
ATOM     24  C   UNL d   1     -56.074 -99.457 -43.545  0.00  0.00     0.100 C 
BRANCH  24  25
ATOM     25  N   UNL d   1     -55.256 -99.506 -43.705  0.00  0.00    -0.299 N 
ATOM     26  C   UNL d   1     -54.807 -98.808 -43.773  0.00  0.00     0.100 C 
ATOM     27  C   UNL d   1     -54.898-100.247 -43.794  0.00  0.00     0.100 C 
ENDBRANCH  24  25
ENDBRANCH  23  24
ENDBRANCH   3  23
TORSDOF 4
ENDMDL
