MODEL 1
REMARK VINA RESULT:      25.2      0.000      0.000
REMARK  4 active torsions:
REMARK  status: ('A' for Active; 'I' for Inactive)
REMARK    1  A    between atoms: C_2  and  C_1 
REMARK       I    between atoms: N_9  and  C_2 
REMARK    2  A    between atoms: N_4  and  C_14 
REMARK    3  A    between atoms: C_13  and  N_9 
REMARK    4  A    between atoms: C_14  and  C_13 
ROOT
ATOM      1  C   UNL d   1     -50.784  26.606  33.466  0.00  0.00     0.281 C 
ATOM      2  O   UNL d   1     -50.501  27.376  33.524  0.00  0.00    -0.265 OA
ATOM      3  N   UNL d   1     -51.596  26.459  33.447  0.00  0.00    -0.205 NA
ENDROOT
BRANCH   1   4
ATOM      4  C   UNL d   1     -50.248  25.970  33.426  0.00  0.00     0.077 A 
ATOM      5  C   UNL d   1     -50.532  25.199  33.350  0.00  0.00     0.105 A 
ATOM      6  N   UNL d   1     -50.005  24.570  33.311  0.00  0.00    -0.233 NA
ATOM      7  C   UNL d   1     -49.191  24.708  33.346  0.00  0.00     0.139 A 
ATOM      8  C   UNL d   1     -48.906  25.475  33.422  0.00  0.00     0.031 A 
ATOM      9 CL   UNL d   1     -48.651  24.073  33.307  0.00  0.00    -0.061 Cl
ATOM     10  C   UNL d   1     -49.434  26.109  33.462  0.00  0.00     0.009 A 
ENDBRANCH   1   4
BRANCH   3  11
ATOM     11  C   UNL d   1     -51.881  25.689  33.389  0.00  0.00     0.121 C 
BRANCH  11  12
ATOM     12  C   UNL d   1     -52.672  25.523  33.537  0.00  0.00     0.101 C 
BRANCH  12  13
ATOM     13  N   UNL d   1     -52.945  24.748  33.492  0.00  0.00    -0.298 N 
ATOM     14  C   UNL d   1     -53.740  24.599  33.350  0.00  0.00     0.107 A 
ATOM     15  C   UNL d   1     -54.015  23.816  33.306  0.00  0.00     0.142 A 
ATOM     16  O   UNL d   1     -53.494  23.189  33.403  0.00  0.00    -0.300 OA
ATOM     17  C   UNL d   1     -52.691  23.335  33.547  0.00  0.00     0.142 A 
ATOM     18  C   UNL d   1     -52.415  24.118  33.592  0.00  0.00     0.107 A 
ENDBRANCH  12  13
ENDBRANCH  11  12
ENDBRANCH   3  11
TORSDOF 4
ENDMDL
MODEL 2
REMARK VINA RESULT:      27.8      1.840      3.775
REMARK  4 active torsions:
REMARK  status: ('A' for Active; 'I' for Inactive)
REMARK    1  A    between atoms: C_2  and  C_1 
REMARK       I    between atoms: N_9  and  C_2 
REMARK    2  A    between atoms: N_4  and  C_14 
REMARK    3  A    between atoms: C_13  and  N_9 
REMARK    4  A    between atoms: C_14  and  C_13 
ROOT
ATOM      1  C   UNL d   1     -50.987  24.414  33.619  0.00  0.00     0.281 C 
ATOM      2  O   UNL d   1     -50.425  23.845  33.813  0.00  0.00    -0.265 OA
ATOM      3  N   UNL d   1     -50.764  25.200  33.500  0.00  0.00    -0.205 NA
ENDROOT
BRANCH   1   4
ATOM      4  C   UNL d   1     -51.787  24.196  33.542  0.00  0.00     0.077 A 
ATOM      5  C   UNL d   1     -52.376  24.771  33.599  0.00  0.00     0.105 A 
ATOM      6  N   UNL d   1     -53.166  24.558  33.524  0.00  0.00    -0.233 NA
ATOM      7  C   UNL d   1     -53.371  23.768  33.390  0.00  0.00     0.139 A 
ATOM      8  C   UNL d   1     -52.786  23.194  33.333  0.00  0.00     0.031 A 
ATOM      9 CL   UNL d   1     -54.172  23.546  33.313  0.00  0.00    -0.061 Cl
ATOM     10  C   UNL d   1     -51.992  23.406  33.408  0.00  0.00     0.009 A 
ENDBRANCH   1   4
BRANCH   3  11
ATOM     11  C   UNL d   1     -51.325  25.770  33.306  0.00  0.00     0.121 C 
BRANCH  11  12
ATOM     12  C   UNL d   1     -51.501  26.379  33.828  0.00  0.00     0.101 C 
BRANCH  12  13
ATOM     13  N   UNL d   1     -51.239  27.143  33.672  0.00  0.00    -0.298 N 
ATOM     14  C   UNL d   1     -51.774  27.765  33.647  0.00  0.00     0.107 A 
ATOM     15  C   UNL d   1     -51.509  28.537  33.490  0.00  0.00     0.142 A 
ATOM     16  O   UNL d   1     -50.712  28.681  33.360  0.00  0.00    -0.300 OA
ATOM     17  C   UNL d   1     -50.167  28.055  33.384  0.00  0.00     0.142 A 
ATOM     18  C   UNL d   1     -50.432  27.283  33.541  0.00  0.00     0.107 A 
ENDBRANCH  12  13
ENDBRANCH  11  12
ENDBRANCH   3  11
TORSDOF 4
ENDMDL
