MODEL 1
REMARK VINA RESULT:      -8.8      0.000      0.000
REMARK  3 active torsions:
REMARK  status: ('A' for Active; 'I' for Inactive)
REMARK    1  A    between atoms: N_2  and  S_1 
REMARK    2  A    between atoms: N_3  and  S_1 
REMARK    3  A    between atoms: C_6  and  N_3 
ROOT
ATOM      1  S   UNL d   1      52.323  32.999  53.287  0.00  0.00     0.351 S 
ATOM      2  O   UNL d   1      52.115  33.236  54.048  0.00  0.00    -0.180 OA
ATOM      3  O   UNL d   1      52.531  32.762  52.527  0.00  0.00    -0.180 OA
ENDROOT
BRANCH   1   4
ATOM      4  N   UNL d   1      51.728  33.475  52.976  0.00  0.00    -0.215 N 
ATOM      5  C   UNL d   1      50.961  33.432  53.292  0.00  0.00     0.093 C 
ATOM      6  C   UNL d   1      50.374  33.904  52.981  0.00  0.00     0.020 C 
ATOM      7  C   UNL d   1      50.500  34.336  52.298  0.00  0.00     0.003 C 
ATOM      8  C   UNL d   1      51.229  34.293  51.920  0.00  0.00     0.020 C 
ATOM      9  C   UNL d   1      51.834  33.817  52.224  0.00  0.00     0.093 C 
ENDBRANCH   1   4
BRANCH   1  10
ATOM     10  N   UNL d   1      52.935  32.504  53.531  0.00  0.00    -0.144 NA
BRANCH  10  11
ATOM     11  C   UNL d   1      53.593  32.818  53.951  0.00  0.00     0.095 A 
ATOM     12  C   UNL d   1      53.551  32.913  54.777  0.00  0.00     0.020 A 
ATOM     13  C   UNL d   1      54.203  33.212  55.192  0.00  0.00     0.002 A 
ATOM     14  C   UNL d   1      54.895  33.422  54.778  0.00  0.00     0.000 A 
ATOM     15  C   UNL d   1      54.951  33.330  53.949  0.00  0.00     0.002 A 
ATOM     16  C   UNL d   1      55.537  33.736  55.198  0.00  0.00     0.000 C 
ATOM     17  C   UNL d   1      54.288  33.021  53.535  0.00  0.00     0.020 A 
ENDBRANCH  10  11
ENDBRANCH   1  10
TORSDOF 3
ENDMDL
MODEL 2
REMARK VINA RESULT:      -8.7      0.747      3.708
REMARK  3 active torsions:
REMARK  status: ('A' for Active; 'I' for Inactive)
REMARK    1  A    between atoms: N_2  and  S_1 
REMARK    2  A    between atoms: N_3  and  S_1 
REMARK    3  A    between atoms: C_6  and  N_3 
ROOT
ATOM      1  S   UNL d   1      53.336  32.929  53.658  0.00  0.00     0.351 S 
ATOM      2  O   UNL d   1      52.878  32.714  54.309  0.00  0.00    -0.180 OA
ATOM      3  O   UNL d   1      53.793  33.144  53.009  0.00  0.00    -0.180 OA
ENDROOT
BRANCH   1   4
ATOM      4  N   UNL d   1      53.939  33.172  54.164  0.00  0.00    -0.215 N 
ATOM      5  C   UNL d   1      54.697  33.318  53.858  0.00  0.00     0.093 C 
ATOM      6  C   UNL d   1      55.291  33.558  54.363  0.00  0.00     0.020 C 
ATOM      7  C   UNL d   1      55.183  33.552  55.172  0.00  0.00     0.003 C 
ATOM      8  C   UNL d   1      54.463  33.300  55.483  0.00  0.00     0.020 C 
ATOM      9  C   UNL d   1      53.852  33.054  54.984  0.00  0.00     0.093 C 
ENDBRANCH   1   4
BRANCH   1  10
ATOM     10  N   UNL d   1      52.774  32.705  53.099  0.00  0.00    -0.144 NA
BRANCH  10  11
ATOM     11  C   UNL d   1      52.087  33.175  52.977  0.00  0.00     0.095 A 
ATOM     12  C   UNL d   1      52.117  33.830  52.464  0.00  0.00     0.020 A 
ATOM     13  C   UNL d   1      51.437  34.285  52.335  0.00  0.00     0.002 A 
ATOM     14  C   UNL d   1      50.728  34.087  52.724  0.00  0.00     0.000 A 
ATOM     15  C   UNL d   1      50.683  33.432  53.240  0.00  0.00     0.002 A 
ATOM     16  C   UNL d   1      50.056  34.558  52.603  0.00  0.00     0.000 C 
ATOM     17  C   UNL d   1      51.374  32.971  53.362  0.00  0.00     0.020 A 
ENDBRANCH  10  11
ENDBRANCH   1  10
TORSDOF 3
ENDMDL
MODEL 3
REMARK VINA RESULT:      -8.6      1.984      2.536
REMARK  3 active torsions:
REMARK  status: ('A' for Active; 'I' for Inactive)
REMARK    1  A    between atoms: N_2  and  S_1 
REMARK    2  A    between atoms: N_3  and  S_1 
REMARK    3  A    between atoms: C_6  and  N_3 
ROOT
ATOM      1  S   UNL d   1      52.901  32.600  52.850  0.00  0.00     0.351 S 
ATOM      2  O   UNL d   1      53.591  32.773  53.267  0.00  0.00    -0.180 OA
ATOM      3  O   UNL d   1      52.212  32.428  52.434  0.00  0.00    -0.180 OA
ENDROOT
BRANCH   1   4
ATOM      4  N   UNL d   1      52.560  33.296  53.129  0.00  0.00    -0.215 N 
ATOM      5  C   UNL d   1      51.824  33.540  52.830  0.00  0.00     0.093 C 
ATOM      6  C   UNL d   1      51.490  34.230  53.108  0.00  0.00     0.020 C 
ATOM      7  C   UNL d   1      51.913  34.737  53.590  0.00  0.00     0.003 C 
ATOM      8  C   UNL d   1      52.686  34.548  53.798  0.00  0.00     0.020 C 
ATOM      9  C   UNL d   1      53.038  33.852  53.523  0.00  0.00     0.093 C 
ENDBRANCH   1   4
BRANCH   1  10
ATOM     10  N   UNL d   1      53.183  31.892  52.537  0.00  0.00    -0.144 NA
BRANCH  10  11
ATOM     11  C   UNL d   1      53.186  31.193  53.006  0.00  0.00     0.095 A 
ATOM     12  C   UNL d   1      52.590  30.621  52.903  0.00  0.00     0.020 A 
ATOM     13  C   UNL d   1      52.601  29.928  53.356  0.00  0.00     0.002 A 
ATOM     14  C   UNL d   1      53.205  29.810  53.917  0.00  0.00     0.000 A 
ATOM     15  C   UNL d   1      53.810  30.375  54.028  0.00  0.00     0.002 A 
ATOM     16  C   UNL d   1      53.198  29.121  54.378  0.00  0.00     0.000 C 
ATOM     17  C   UNL d   1      53.798  31.073  53.562  0.00  0.00     0.020 A 
ENDBRANCH  10  11
ENDBRANCH   1  10
TORSDOF 3
ENDMDL
MODEL 4
REMARK VINA RESULT:      -8.5      1.972      2.839
REMARK  3 active torsions:
REMARK  status: ('A' for Active; 'I' for Inactive)
REMARK    1  A    between atoms: N_2  and  S_1 
REMARK    2  A    between atoms: N_3  and  S_1 
REMARK    3  A    between atoms: C_6  and  N_3 
ROOT
ATOM      1  S   UNL d   1      53.584  32.218  53.304  0.00  0.00     0.351 S 
ATOM      2  O   UNL d   1      53.047  32.411  52.709  0.00  0.00    -0.180 OA
ATOM      3  O   UNL d   1      54.120  32.026  53.898  0.00  0.00    -0.180 OA
ENDROOT
BRANCH   1   4
ATOM      4  N   UNL d   1      53.248  31.469  53.364  0.00  0.00    -0.215 N 
ATOM      5  C   UNL d   1      53.697  30.841  53.670  0.00  0.00     0.093 C 
ATOM      6  C   UNL d   1      53.360  30.100  53.727  0.00  0.00     0.020 C 
ATOM      7  C   UNL d   1      52.633  29.943  53.389  0.00  0.00     0.003 C 
ATOM      8  C   UNL d   1      52.234  30.540  52.987  0.00  0.00     0.020 C 
ATOM      9  C   UNL d   1      52.564  31.296  52.921  0.00  0.00     0.093 C 
ENDBRANCH   1   4
BRANCH   1  10
ATOM     10  N   UNL d   1      53.965  32.949  53.295  0.00  0.00    -0.144 NA
BRANCH  10  11
ATOM     11  C   UNL d   1      53.615  33.614  53.674  0.00  0.00     0.095 A 
ATOM     12  C   UNL d   1      53.758  33.755  54.482  0.00  0.00     0.020 A 
ATOM     13  C   UNL d   1      53.424  34.416  54.851  0.00  0.00     0.002 A 
ATOM     14  C   UNL d   1      52.940  34.933  54.414  0.00  0.00     0.000 A 
ATOM     15  C   UNL d   1      52.789  34.805  53.602  0.00  0.00     0.002 A 
ATOM     16  C   UNL d   1      52.594  35.583  54.795  0.00  0.00     0.000 C 
ATOM     17  C   UNL d   1      53.136  34.136  53.231  0.00  0.00     0.020 A 
ENDBRANCH  10  11
ENDBRANCH   1  10
TORSDOF 3
ENDMDL
