MODEL 1
REMARK VINA RESULT:      -4.8      0.000      0.000
REMARK  4 active torsions:
REMARK  status: ('A' for Active; 'I' for Inactive)
REMARK    1  A    between atoms: C_7  and  N_2 
REMARK    2  A    between atoms: C_10  and  C_7 
REMARK    3  A    between atoms: O_8  and  C_10 
REMARK    4  A    between atoms: C_9  and  O_8 
ROOT
ATOM      1  C   UNL d   1     -42.947-122.352 -50.205  0.00  0.00     0.296 A 
ATOM      2  N   UNL d   1     -42.139-122.503 -50.255  0.00  0.00    -0.266 N 
ATOM      3  S   UNL d   1     -43.228-122.709 -49.500  0.00  0.00    -0.025 SA
ATOM      4  C   UNL d   1     -41.917-122.948 -49.592  0.00  0.00     0.074 A 
ATOM      5  C   UNL d   1     -42.583-123.074 -49.129  0.00  0.00     0.050 A 
ATOM      6  O   UNL d   1     -43.401-121.930 -50.743  0.00  0.00    -0.259 OA
ATOM      7  C   UNL d   1     -41.184-123.251 -49.358  0.00  0.00     0.018 A 
ATOM      8  C   UNL d   1     -42.532-123.506 -48.422  0.00  0.00     0.008 A 
ATOM      9  C   UNL d   1     -41.128-123.682 -48.655  0.00  0.00     0.002 A 
ATOM     10  C   UNL d   1     -41.794-123.808 -48.192  0.00  0.00     0.001 A 
ENDROOT
BRANCH   2  11
ATOM     11  C   UNL d   1     -41.638-122.254 -50.862  0.00  0.00     0.110 C 
BRANCH  11  12
ATOM     12  C   UNL d   1     -41.733-122.544 -51.626  0.00  0.00     0.142 C 
BRANCH  12  13
ATOM     13  O   UNL d   1     -41.159-122.409 -52.208  0.00  0.00    -0.304 OA
BRANCH  13  14
ATOM     14  C   UNL d   1     -41.258-122.713 -52.968  0.00  0.00     0.100 A 
ATOM     15  C   UNL d   1     -41.129-123.515 -53.110  0.00  0.00     0.025 A 
ATOM     16  C   UNL d   1     -41.227-123.817 -53.868  0.00  0.00     0.002 A 
ATOM     17  C   UNL d   1     -41.454-123.315 -54.482  0.00  0.00     0.000 A 
ATOM     18  C   UNL d   1     -41.583-122.510 -54.336  0.00  0.00     0.002 A 
ATOM     19  C   UNL d   1     -41.482-122.217 -53.574  0.00  0.00     0.025 A 
ENDBRANCH  13  14
ENDBRANCH  12  13
ENDBRANCH  11  12
ENDBRANCH   2  11
TORSDOF 4
ENDMDL
MODEL 2
REMARK VINA RESULT:      -4.6      1.592      4.622
REMARK  4 active torsions:
REMARK  status: ('A' for Active; 'I' for Inactive)
REMARK    1  A    between atoms: C_7  and  N_2 
REMARK    2  A    between atoms: C_10  and  C_7 
REMARK    3  A    between atoms: O_8  and  C_10 
REMARK    4  A    between atoms: C_9  and  O_8 
ROOT
ATOM      1  C   UNL d   1     -41.389-123.309 -53.316  0.00  0.00     0.296 A 
ATOM      2  N   UNL d   1     -41.601-122.519 -53.222  0.00  0.00    -0.266 N 
ATOM      3  S   UNL d   1     -41.495-123.504 -54.125  0.00  0.00    -0.025 SA
ATOM      4  C   UNL d   1     -41.836-122.223 -53.960  0.00  0.00     0.074 A 
ATOM      5  C   UNL d   1     -41.771-122.826 -54.513  0.00  0.00     0.050 A 
ATOM      6  O   UNL d   1     -41.123-123.817 -52.730  0.00  0.00    -0.259 OA
ATOM      7  C   UNL d   1     -42.101-121.474 -54.189  0.00  0.00     0.018 A 
ATOM      8  C   UNL d   1     -41.970-122.695 -55.308  0.00  0.00     0.008 A 
ATOM      9  C   UNL d   1     -42.300-121.338 -54.980  0.00  0.00     0.002 A 
ATOM     10  C   UNL d   1     -42.235-121.941 -55.533  0.00  0.00     0.001 A 
ENDROOT
BRANCH   2  11
ATOM     11  C   UNL d   1     -41.583-122.094 -52.514  0.00  0.00     0.110 C 
BRANCH  11  12
ATOM     12  C   UNL d   1     -41.900-122.416 -51.827  0.00  0.00     0.142 C 
BRANCH  12  13
ATOM     13  O   UNL d   1     -41.963-121.967 -51.135  0.00  0.00    -0.304 OA
BRANCH  13  14
ATOM     14  C   UNL d   1     -42.119-122.333 -50.412  0.00  0.00     0.100 A 
ATOM     15  C   UNL d   1     -41.501-122.669 -49.980  0.00  0.00     0.025 A 
ATOM     16  C   UNL d   1     -41.657-123.033 -49.261  0.00  0.00     0.002 A 
ATOM     17  C   UNL d   1     -42.431-123.062 -48.976  0.00  0.00     0.000 A 
ATOM     18  C   UNL d   1     -43.048-122.724 -49.412  0.00  0.00     0.002 A 
ATOM     19  C   UNL d   1     -42.883-122.361 -50.132  0.00  0.00     0.025 A 
ENDBRANCH  13  14
ENDBRANCH  12  13
ENDBRANCH  11  12
ENDBRANCH   2  11
TORSDOF 4
ENDMDL
MODEL 3
REMARK VINA RESULT:      -4.3      1.280      1.776
REMARK  4 active torsions:
REMARK  status: ('A' for Active; 'I' for Inactive)
REMARK    1  A    between atoms: C_7  and  N_2 
REMARK    2  A    between atoms: C_10  and  C_7 
REMARK    3  A    between atoms: O_8  and  C_10 
REMARK    4  A    between atoms: C_9  and  O_8 
ROOT
ATOM      1  C   UNL d   1     -41.399-121.512 -51.277  0.00  0.00     0.296 A 
ATOM      2  N   UNL d   1     -41.426-122.307 -51.491  0.00  0.00    -0.266 N 
ATOM      3  S   UNL d   1     -41.706-121.449 -50.500  0.00  0.00    -0.025 SA
ATOM      4  C   UNL d   1     -41.746-122.735 -50.857  0.00  0.00     0.074 A 
ATOM      5  C   UNL d   1     -41.917-122.210 -50.250  0.00  0.00     0.050 A 
ATOM      6  O   UNL d   1     -41.123-120.891 -51.737  0.00  0.00    -0.259 OA
ATOM      7  C   UNL d   1     -41.899-123.542 -50.766  0.00  0.00     0.018 A 
ATOM      8  C   UNL d   1     -42.246-122.480 -49.537  0.00  0.00     0.008 A 
ATOM      9  C   UNL d   1     -42.227-123.816 -50.057  0.00  0.00     0.002 A 
ATOM     10  C   UNL d   1     -42.398-123.291 -49.450  0.00  0.00     0.001 A 
ENDROOT
BRANCH   2  11
ATOM     11  C   UNL d   1     -41.178-122.623 -52.212  0.00  0.00     0.110 C 
BRANCH  11  12
ATOM     12  C   UNL d   1     -41.497-122.348 -52.919  0.00  0.00     0.142 C 
BRANCH  12  13
ATOM     13  O   UNL d   1     -41.516-122.828 -53.594  0.00  0.00    -0.304 OA
BRANCH  13  14
ATOM     14  C   UNL d   1     -41.749-122.515 -54.321  0.00  0.00     0.100 A 
ATOM     15  C   UNL d   1     -41.221-122.514 -54.956  0.00  0.00     0.025 A 
ATOM     16  C   UNL d   1     -41.454-122.203 -55.679  0.00  0.00     0.002 A 
ATOM     17  C   UNL d   1     -42.214-121.894 -55.766  0.00  0.00     0.000 A 
ATOM     18  C   UNL d   1     -42.740-121.897 -55.127  0.00  0.00     0.002 A 
ATOM     19  C   UNL d   1     -42.499-122.211 -54.406  0.00  0.00     0.025 A 
ENDBRANCH  13  14
ENDBRANCH  12  13
ENDBRANCH  11  12
ENDBRANCH   2  11
TORSDOF 4
ENDMDL
