MODEL 1
REMARK VINA RESULT:      -8.8      0.000      0.000
REMARK  3 active torsions:
REMARK  status: ('A' for Active; 'I' for Inactive)
REMARK    1  A    between atoms: C_7  and  C_3 
REMARK    2  A    between atoms: C_10  and  C_5 
REMARK    3  A    between atoms: C_9  and  C_7 
ROOT
ATOM      1  C   UNL d   1      53.734  33.018  53.656  0.00  0.00     0.101 A 
ATOM      2  O   UNL d   1      53.132  32.497  53.429  0.00  0.00    -0.307 OA
ATOM      3  C   UNL d   1      53.472  31.781  53.193  0.00  0.00     0.101 A 
ATOM      4  C   UNL d   1      54.446  32.610  53.556  0.00  0.00     0.027 A 
ATOM      5  C   UNL d   1      54.283  31.863  53.276  0.00  0.00     0.027 A 
ENDROOT
BRANCH   3   6
ATOM      6  C   UNL d   1      53.079  31.095  52.920  0.00  0.00     0.036 C 
BRANCH   6   7
ATOM      7  C   UNL d   1      53.058  30.424  53.400  0.00  0.00     0.091 A 
ATOM      8  C   UNL d   1      52.358  29.966  53.461  0.00  0.00     0.286 A 
ATOM      9  N   UNL d   1      52.498  29.339  53.972  0.00  0.00    -0.190 NA
ATOM     10  O   UNL d   1      51.639  30.125  53.065  0.00  0.00    -0.265 OA
ATOM     11  C   UNL d   1      53.247  29.390  54.227  0.00  0.00     0.169 A 
ATOM     12  S   UNL d   1      53.615  30.051  53.889  0.00  0.00    -0.052 SA
ATOM     13  S   UNL d   1      53.581  28.854  54.747  0.00  0.00    -0.050 SA
ENDBRANCH   6   7
ENDBRANCH   3   6
BRANCH   1  14
ATOM     14  C   UNL d   1      53.415  33.723  53.890  0.00  0.00     0.033 A 
ATOM     15  C   UNL d   1      53.617  34.036  54.638  0.00  0.00     0.060 A 
ATOM     16 CL   UNL d   1      54.132  33.635  55.134  0.00  0.00    -0.082 Cl
ATOM     17  C   UNL d   1      53.301  34.753  54.891  0.00  0.00     0.011 A 
ATOM     18  C   UNL d   1      52.781  35.161  54.394  0.00  0.00     0.001 A 
ATOM     19  C   UNL d   1      52.579  34.848  53.645  0.00  0.00     0.000 A 
ATOM     20  C   UNL d   1      52.903  34.136  53.413  0.00  0.00     0.003 A 
ENDBRANCH   1  14
TORSDOF 3
ENDMDL
MODEL 2
REMARK VINA RESULT:      -8.7      2.329      4.205
REMARK  3 active torsions:
REMARK  status: ('A' for Active; 'I' for Inactive)
REMARK    1  A    between atoms: C_7  and  C_3 
REMARK    2  A    between atoms: C_10  and  C_5 
REMARK    3  A    between atoms: C_9  and  C_7 
ROOT
ATOM      1  C   UNL d   1      53.775  31.505  53.674  0.00  0.00     0.101 A 
ATOM      2  O   UNL d   1      53.344  32.040  54.135  0.00  0.00    -0.307 OA
ATOM      3  C   UNL d   1      53.646  32.801  54.016  0.00  0.00     0.101 A 
ATOM      4  C   UNL d   1      54.344  31.949  53.272  0.00  0.00     0.027 A 
ATOM      5  C   UNL d   1      54.262  32.731  53.481  0.00  0.00     0.027 A 
ENDROOT
BRANCH   3   6
ATOM      6  C   UNL d   1      53.384  33.514  54.365  0.00  0.00     0.036 C 
BRANCH   6   7
ATOM      7  C   UNL d   1      52.798  33.957  53.988  0.00  0.00     0.091 A 
ATOM      8  C   UNL d   1      52.770  34.790  54.079  0.00  0.00     0.286 A 
ATOM      9  N   UNL d   1      52.135  35.080  53.645  0.00  0.00    -0.190 NA
ATOM     10  O   UNL d   1      53.302  35.246  54.535  0.00  0.00    -0.265 OA
ATOM     11  C   UNL d   1      51.774  34.467  53.295  0.00  0.00     0.169 A 
ATOM     12  S   UNL d   1      52.164  33.761  53.490  0.00  0.00    -0.052 SA
ATOM     13  S   UNL d   1      51.116  34.548  52.816  0.00  0.00    -0.050 SA
ENDBRANCH   6   7
ENDBRANCH   3   6
BRANCH   1  14
ATOM     14  C   UNL d   1      53.490  30.756  53.782  0.00  0.00     0.033 A 
ATOM     15  C   UNL d   1      53.147  30.352  53.135  0.00  0.00     0.060 A 
ATOM     16 CL   UNL d   1      53.098  30.707  52.399  0.00  0.00    -0.082 Cl
ATOM     17  C   UNL d   1      52.853  29.589  53.228  0.00  0.00     0.011 A 
ATOM     18  C   UNL d   1      52.900  29.226  53.970  0.00  0.00     0.001 A 
ATOM     19  C   UNL d   1      53.244  29.630  54.617  0.00  0.00     0.000 A 
ATOM     20  C   UNL d   1      53.530  30.387  54.504  0.00  0.00     0.003 A 
ENDBRANCH   1  14
TORSDOF 3
ENDMDL
MODEL 3
REMARK VINA RESULT:      -8.0      2.521      3.278
REMARK  3 active torsions:
REMARK  status: ('A' for Active; 'I' for Inactive)
REMARK    1  A    between atoms: C_7  and  C_3 
REMARK    2  A    between atoms: C_10  and  C_5 
REMARK    3  A    between atoms: C_9  and  C_7 
ROOT
ATOM      1  C   UNL d   1      53.810  32.559  53.893  0.00  0.00     0.101 A 
ATOM      2  O   UNL d   1      53.388  33.048  53.375  0.00  0.00    -0.307 OA
ATOM      3  C   UNL d   1      52.844  32.588  52.955  0.00  0.00     0.101 A 
ATOM      4  C   UNL d   1      53.516  31.795  53.784  0.00  0.00     0.027 A 
ATOM      5  C   UNL d   1      52.933  31.816  53.217  0.00  0.00     0.027 A 
ENDROOT
BRANCH   3   6
ATOM      6  C   UNL d   1      52.300  32.843  52.374  0.00  0.00     0.036 C 
BRANCH   6   7
ATOM      7  C   UNL d   1      51.704  33.375  52.584  0.00  0.00     0.091 A 
ATOM      8  C   UNL d   1      51.531  34.034  52.096  0.00  0.00     0.286 A 
ATOM      9  N   UNL d   1      50.919  34.461  52.440  0.00  0.00    -0.190 NA
ATOM     10  O   UNL d   1      51.918  34.222  51.380  0.00  0.00    -0.265 OA
ATOM     11  C   UNL d   1      50.709  34.096  53.112  0.00  0.00     0.169 A 
ATOM     12  S   UNL d   1      51.179  33.422  53.225  0.00  0.00    -0.052 SA
ATOM     13  S   UNL d   1      50.114  34.367  53.603  0.00  0.00    -0.050 SA
ENDBRANCH   6   7
ENDBRANCH   3   6
BRANCH   1  14
ATOM     14  C   UNL d   1      54.347  32.997  54.310  0.00  0.00     0.033 A 
ATOM     15  C   UNL d   1      54.336  32.970  55.145  0.00  0.00     0.060 A 
ATOM     16 CL   UNL d   1      53.788  32.507  55.542  0.00  0.00    -0.082 Cl
ATOM     17  C   UNL d   1      54.875  33.410  55.585  0.00  0.00     0.011 A 
ATOM     18  C   UNL d   1      55.430  33.879  55.189  0.00  0.00     0.001 A 
ATOM     19  C   UNL d   1      55.441  33.906  54.353  0.00  0.00     0.000 A 
ATOM     20  C   UNL d   1      54.897  33.462  53.936  0.00  0.00     0.003 A 
ENDBRANCH   1  14
TORSDOF 3
ENDMDL
MODEL 4
REMARK VINA RESULT:      -7.8      2.355      3.210
REMARK  3 active torsions:
REMARK  status: ('A' for Active; 'I' for Inactive)
REMARK    1  A    between atoms: C_7  and  C_3 
REMARK    2  A    between atoms: C_10  and  C_5 
REMARK    3  A    between atoms: C_9  and  C_7 
ROOT
ATOM      1  C   UNL d   1      52.067  32.677  52.884  0.00  0.00     0.101 A 
ATOM      2  O   UNL d   1      52.842  32.946  52.996  0.00  0.00    -0.307 OA
ATOM      3  C   UNL d   1      53.326  32.300  53.179  0.00  0.00     0.101 A 
ATOM      4  C   UNL d   1      52.085  31.859  53.000  0.00  0.00     0.027 A 
ATOM      5  C   UNL d   1      52.847  31.635  53.178  0.00  0.00     0.027 A 
ENDROOT
BRANCH   3   6
ATOM      6  C   UNL d   1      54.147  32.306  53.336  0.00  0.00     0.036 C 
BRANCH   6   7
ATOM      7  C   UNL d   1      54.432  32.741  53.977  0.00  0.00     0.091 A 
ATOM      8  C   UNL d   1      55.140  33.184  53.909  0.00  0.00     0.286 A 
ATOM      9  N   UNL d   1      55.287  33.557  54.626  0.00  0.00    -0.190 NA
ATOM     10  O   UNL d   1      55.616  33.235  53.223  0.00  0.00    -0.265 OA
ATOM     11  C   UNL d   1      54.704  33.365  55.129  0.00  0.00     0.169 A 
ATOM     12  S   UNL d   1      54.163  32.862  54.752  0.00  0.00    -0.052 SA
ATOM     13  S   UNL d   1      54.669  33.638  55.898  0.00  0.00    -0.050 SA
ENDBRANCH   6   7
ENDBRANCH   3   6
BRANCH   1  14
ATOM     14  C   UNL d   1      51.583  33.298  52.705  0.00  0.00     0.033 A 
ATOM     15  C   UNL d   1      50.864  33.391  53.122  0.00  0.00     0.060 A 
ATOM     16 CL   UNL d   1      50.649  32.859  53.707  0.00  0.00    -0.082 Cl
ATOM     17  C   UNL d   1      50.360  34.019  52.951  0.00  0.00     0.011 A 
ATOM     18  C   UNL d   1      50.573  34.558  52.361  0.00  0.00     0.001 A 
ATOM     19  C   UNL d   1      51.291  34.465  51.944  0.00  0.00     0.000 A 
ATOM     20  C   UNL d   1      51.778  33.836  52.128  0.00  0.00     0.003 A 
ENDBRANCH   1  14
TORSDOF 3
ENDMDL
MODEL 5
REMARK VINA RESULT:      -7.5      2.158      3.099
REMARK  3 active torsions:
REMARK  status: ('A' for Active; 'I' for Inactive)
REMARK    1  A    between atoms: C_7  and  C_3 
REMARK    2  A    between atoms: C_10  and  C_5 
REMARK    3  A    between atoms: C_9  and  C_7 
ROOT
ATOM      1  C   UNL d   1      51.826  34.489  52.982  0.00  0.00     0.101 A 
ATOM      2  O   UNL d   1      51.964  33.959  53.602  0.00  0.00    -0.307 OA
ATOM      3  C   UNL d   1      52.771  33.961  53.782  0.00  0.00     0.101 A 
ATOM      4  C   UNL d   1      52.559  34.816  52.786  0.00  0.00     0.027 A 
ATOM      5  C   UNL d   1      53.127  34.494  53.272  0.00  0.00     0.027 A 
ENDROOT
BRANCH   3   6
ATOM      6  C   UNL d   1      53.165  33.513  54.368  0.00  0.00     0.036 C 
BRANCH   6   7
ATOM      7  C   UNL d   1      53.373  32.731  54.206  0.00  0.00     0.091 A 
ATOM      8  C   UNL d   1      53.841  32.295  54.747  0.00  0.00     0.286 A 
ATOM      9  N   UNL d   1      53.960  31.541  54.444  0.00  0.00    -0.190 NA
ATOM     10  O   UNL d   1      54.137  32.583  55.474  0.00  0.00    -0.265 OA
ATOM     11  C   UNL d   1      53.588  31.494  53.745  0.00  0.00     0.169 A 
ATOM     12  S   UNL d   1      53.218  32.216  53.574  0.00  0.00    -0.052 SA
ATOM     13  S   UNL d   1      53.588  30.820  53.282  0.00  0.00    -0.050 SA
ENDBRANCH   6   7
ENDBRANCH   3   6
BRANCH   1  14
ATOM     14  C   UNL d   1      51.039  34.497  52.795  0.00  0.00     0.033 A 
ATOM     15  C   UNL d   1      50.803  34.338  52.009  0.00  0.00     0.060 A 
ATOM     16 CL   UNL d   1      51.360  34.175  51.431  0.00  0.00    -0.082 Cl
ATOM     17  C   UNL d   1      50.006  34.342  51.803  0.00  0.00     0.011 A 
ATOM     18  C   UNL d   1      49.441  34.505  52.384  0.00  0.00     0.001 A 
ATOM     19  C   UNL d   1      49.676  34.665  53.170  0.00  0.00     0.000 A 
ATOM     20  C   UNL d   1      50.472  34.656  53.355  0.00  0.00     0.003 A 
ENDBRANCH   1  14
TORSDOF 3
ENDMDL
MODEL 6
REMARK VINA RESULT:      -7.5      2.657      4.075
REMARK  3 active torsions:
REMARK  status: ('A' for Active; 'I' for Inactive)
REMARK    1  A    between atoms: C_7  and  C_3 
REMARK    2  A    between atoms: C_10  and  C_5 
REMARK    3  A    between atoms: C_9  and  C_7 
ROOT
ATOM      1  C   UNL d   1      53.072  32.478  53.468  0.00  0.00     0.101 A 
ATOM      2  O   UNL d   1      52.632  32.767  52.829  0.00  0.00    -0.307 OA
ATOM      3  C   UNL d   1      52.594  33.592  52.881  0.00  0.00     0.101 A 
ATOM      4  C   UNL d   1      53.302  33.136  53.910  0.00  0.00     0.027 A 
ATOM      5  C   UNL d   1      53.011  33.807  53.553  0.00  0.00     0.027 A 
ENDROOT
BRANCH   3   6
ATOM      6  C   UNL d   1      52.209  34.119  52.360  0.00  0.00     0.036 C 
BRANCH   6   7
ATOM      7  C   UNL d   1      51.404  34.275  52.463  0.00  0.00     0.091 A 
ATOM      8  C   UNL d   1      50.886  34.291  51.805  0.00  0.00     0.286 A 
ATOM      9  N   UNL d   1      50.127  34.458  52.072  0.00  0.00    -0.190 NA
ATOM     10  O   UNL d   1      51.108  34.160  51.010  0.00  0.00    -0.265 OA
ATOM     11  C   UNL d   1      50.156  34.544  52.860  0.00  0.00     0.169 A 
ATOM     12  S   UNL d   1      50.934  34.436  53.127  0.00  0.00    -0.052 SA
ATOM     13  S   UNL d   1      49.499  34.714  53.316  0.00  0.00    -0.050 SA
ENDBRANCH   6   7
ENDBRANCH   3   6
BRANCH   1  14
ATOM     14  C   UNL d   1      53.117  31.671  53.429  0.00  0.00     0.033 A 
ATOM     15  C   UNL d   1      53.569  31.259  53.999  0.00  0.00     0.060 A 
ATOM     16 CL   UNL d   1      53.964  31.664  54.592  0.00  0.00    -0.082 Cl
ATOM     17  C   UNL d   1      53.625  30.438  53.973  0.00  0.00     0.011 A 
ATOM     18  C   UNL d   1      53.228  30.026  53.376  0.00  0.00     0.001 A 
ATOM     19  C   UNL d   1      52.776  30.438  52.806  0.00  0.00     0.000 A 
ATOM     20  C   UNL d   1      52.733  31.252  52.849  0.00  0.00     0.003 A 
ENDBRANCH   1  14
TORSDOF 3
ENDMDL
