MODEL 1
REMARK VINA RESULT:       7.1      0.000      0.000
REMARK  5 active torsions:
REMARK  status: ('A' for Active; 'I' for Inactive)
REMARK    1  A    between atoms: C_7  and  C_1 
REMARK    2  A    between atoms: C_10  and  C_3 
REMARK    3  A    between atoms: C_8  and  C_4 
REMARK    4  A    between atoms: O_14  and  C_7 
REMARK    5  A    between atoms: C_20  and  O_14 
ROOT
ATOM      1  C   UNL d   1     -41.992-122.498 -51.855  0.00  0.00     0.102 A 
ATOM      2  C   UNL d   1     -42.215-123.270 -51.640  0.00  0.00     0.201 A 
ATOM      3  C   UNL d   1     -41.774-121.945 -51.280  0.00  0.00     0.008 A 
ATOM      4  C   UNL d   1     -41.995-122.912 -50.266  0.00  0.00     0.003 A 
ATOM      5  C   UNL d   1     -42.212-123.466 -50.840  0.00  0.00     0.042 A 
ATOM      6  C   UNL d   1     -41.778-122.158 -50.485  0.00  0.00     0.000 A 
ATOM      7  O   UNL d   1     -42.430-123.817 -52.209  0.00  0.00    -0.286 OA
ENDROOT
BRANCH   4   8
ATOM      8  C   UNL d   1     -41.999-123.131 -49.464  0.00  0.00     0.000 A 
ATOM      9  C   UNL d   1     -42.720-123.162 -49.053  0.00  0.00     0.000 A 
ATOM     10  C   UNL d   1     -42.736-123.375 -48.270  0.00  0.00     0.000 A 
ATOM     11  C   UNL d   1     -42.018-123.562 -47.886  0.00  0.00     0.000 A 
ATOM     12  C   UNL d   1     -41.317-123.528 -48.299  0.00  0.00     0.000 A 
ATOM     13  C   UNL d   1     -42.029-123.780 -47.086  0.00  0.00     0.000 C 
ATOM     14  C   UNL d   1     -41.304-123.314 -49.086  0.00  0.00     0.000 A 
ENDBRANCH   4   8
BRANCH   3  15
ATOM     15  C   UNL d   1     -41.556-121.185 -51.507  0.00  0.00     0.000 A 
ATOM     16  C   UNL d   1     -41.560-120.581 -50.941  0.00  0.00     0.000 A 
ATOM     17  C   UNL d   1     -41.339-119.819 -51.175  0.00  0.00     0.000 A 
ATOM     18  C   UNL d   1     -41.123-119.656 -51.935  0.00  0.00     0.000 A 
ATOM     19  C   UNL d   1     -41.123-120.276 -52.501  0.00  0.00     0.000 A 
ATOM     20  C   UNL d   1     -41.341-121.039 -52.278  0.00  0.00     0.000 A 
ENDBRANCH   3  15
BRANCH   1  21
ATOM     21  C   UNL d   1     -41.989-122.283 -52.658  0.00  0.00     0.303 C 
ATOM     22  O   UNL d   1     -42.354-121.582 -52.901  0.00  0.00    -0.259 OA
BRANCH  21  23
ATOM     23  O   UNL d   1     -41.620-122.767 -53.221  0.00  0.00    -0.271 OA
BRANCH  23  24
ATOM     24  C   UNL d   1     -41.836-122.718 -54.015  0.00  0.00     0.126 C 
ATOM     25  C   UNL d   1     -41.412-123.138 -54.584  0.00  0.00     0.029 C 
ENDBRANCH  23  24
ENDBRANCH  21  23
ENDBRANCH   1  21
TORSDOF 5
ENDMDL
