MODEL 1
REMARK VINA RESULT:     107.5      0.000      0.000
REMARK  4 active torsions:
REMARK  status: ('A' for Active; 'I' for Inactive)
REMARK    1  A    between atoms: C_2  and  S_1 
REMARK    2  A    between atoms: C_15  and  S_1 
REMARK    3  A    between atoms: C_5  and  C_3 
REMARK    4  A    between atoms: C_16  and  C_5 
ROOT
ATOM      1  C   UNL d   1      58.813  49.255  51.498  0.00  0.00     0.094 A 
ATOM      2  C   UNL d   1      58.553  49.526  52.235  0.00  0.00     0.069 A 
ATOM      3  C   UNL d   1      59.619  49.158  51.357  0.00  0.00     0.031 A 
ATOM      4  C   UNL d   1      60.166  49.332  51.948  0.00  0.00     0.084 A 
ATOM      5  C   UNL d   1      59.876  48.887  50.622  0.00  0.00     0.029 A 
ATOM      6  N   UNL d   1      59.908  49.602  52.682  0.00  0.00    -0.244 NA
ATOM      7  C   UNL d   1      59.100  49.700  52.826  0.00  0.00     0.103 A 
ATOM      8  C   UNL d   1      60.972  49.235  51.806  0.00  0.00     0.046 A 
ATOM      9  C   UNL d   1      60.681  48.791  50.481  0.00  0.00     0.123 A 
ATOM     10  C   UNL d   1      61.228  48.964  51.073  0.00  0.00     0.124 A 
ATOM     11  O   UNL d   1      60.938  48.521  49.747  0.00  0.00    -0.301 OA
ATOM     12  O   UNL d   1      62.034  48.868  50.931  0.00  0.00    -0.301 OA
ATOM     13  C   UNL d   1      61.750  48.422  49.601  0.00  0.00     0.149 A 
ATOM     14  C   UNL d   1      62.297  48.595  50.192  0.00  0.00     0.149 A 
ENDROOT
BRANCH   1  15
ATOM     15  S   UNL d   1      58.272  49.079  50.901  0.00  0.00     0.210 S 
ATOM     16  O   UNL d   1      58.570  49.707  50.458  0.00  0.00    -0.217 OA
ATOM     17  O   UNL d   1      57.973  48.450  51.344  0.00  0.00    -0.217 OA
BRANCH  15  18
ATOM     18  C   UNL d   1      57.737  48.917  50.294  0.00  0.00     0.088 A 
ATOM     19  C   UNL d   1      57.539  49.501  49.747  0.00  0.00     0.011 A 
ATOM     20  C   UNL d   1      57.000  49.329  49.140  0.00  0.00     0.001 A 
ATOM     21  C   UNL d   1      56.667  48.579  49.084  0.00  0.00     0.000 A 
ATOM     22  C   UNL d   1      56.863  47.997  49.626  0.00  0.00     0.001 A 
ATOM     23  C   UNL d   1      57.403  48.165  50.238  0.00  0.00     0.011 A 
ENDBRANCH  15  18
ENDBRANCH   1  15
BRANCH   2  24
ATOM     24  C   UNL d   1      57.741  49.625  52.381  0.00  0.00     0.198 C 
ATOM     25  O   UNL d   1      57.214  49.703  51.752  0.00  0.00    -0.286 OA
BRANCH  24  26
ATOM     26  C   UNL d   1      57.464  49.645  53.158  0.00  0.00     0.039 A 
ATOM     27  C   UNL d   1      56.648  49.653  53.314  0.00  0.00     0.003 A 
ATOM     28  C   UNL d   1      56.370  49.673  54.091  0.00  0.00     0.000 A 
ATOM     29  C   UNL d   1      56.900  49.686  54.723  0.00  0.00     0.000 A 
ATOM     30  C   UNL d   1      57.724  49.678  54.565  0.00  0.00     0.000 A 
ATOM     31  C   UNL d   1      56.631  49.706  55.498  0.00  0.00     0.000 C 
ATOM     32  C   UNL d   1      58.005  49.658  53.791  0.00  0.00     0.003 A 
ENDBRANCH  24  26
ENDBRANCH   2  24
TORSDOF 4
ENDMDL
