MODEL 1
REMARK VINA RESULT:      22.9      0.000      0.000
REMARK  1 active torsions:
REMARK  status: ('A' for Active; 'I' for Inactive)
REMARK    1  A    between atoms: C_5  and  N_1 
ROOT
ATOM      1  N   UNL d   1     -54.741-101.622 -38.484  0.00  0.00    -0.226 N 
ATOM      2  C   UNL d   1     -54.757-102.444 -38.506  0.00  0.00     0.359 A 
ATOM      3  C   UNL d   1     -54.731-101.189 -39.191  0.00  0.00     0.273 A 
ATOM      4  N   UNL d   1     -54.764-102.841 -39.231  0.00  0.00    -0.153 NA
ATOM      5  C   UNL d   1     -54.755-102.408 -39.938  0.00  0.00     0.288 A 
ATOM      6  C   UNL d   1     -54.738-101.580 -39.917  0.00  0.00     0.124 A 
ATOM      7  O   UNL d   1     -54.767-102.880 -37.810  0.00  0.00    -0.244 OA
ATOM      8  O   UNL d   1     -54.714-100.368 -39.174  0.00  0.00    -0.266 OA
ATOM      9  O   UNL d   1     -54.761-102.795 -40.662  0.00  0.00    -0.265 OA
ENDROOT
BRANCH   1  10
ATOM     10  C   UNL d   1     -54.734-101.232 -37.763  0.00  0.00     0.072 A 
ATOM     11  C   UNL d   1     -54.734-101.676 -37.054  0.00  0.00     0.029 A 
ATOM     12  C   UNL d   1     -54.727-101.288 -36.333  0.00  0.00     0.059 A 
ATOM     13 CL   UNL d   1     -54.728-101.731 -35.637  0.00  0.00    -0.082 Cl
ATOM     14  C   UNL d   1     -54.720-100.467 -36.301  0.00  0.00     0.011 A 
ATOM     15  C   UNL d   1     -54.719-100.031 -37.005  0.00  0.00     0.002 A 
ATOM     16  C   UNL d   1     -54.713-100.074 -35.576  0.00  0.00     0.001 C 
ATOM     17  C   UNL d   1     -54.726-100.420 -37.739  0.00  0.00     0.018 A 
ENDBRANCH   1  10
TORSDOF 1
ENDMDL
