MODEL 1
REMARK VINA RESULT:     101.6      0.000      0.000
REMARK  6 active torsions:
REMARK  status: ('A' for Active; 'I' for Inactive)
REMARK    1  A    between atoms: C_10  and  N_1 
REMARK    2  A    between atoms: S_14  and  C_6 
REMARK       I    between atoms: N_7  and  C_11 
REMARK    3  A    between atoms: C_22  and  N_9 
REMARK    4  A    between atoms: C_13  and  C_10 
REMARK    5  A    between atoms: C_11  and  C_16 
REMARK    6  A    between atoms: C_16  and  S_14 
ROOT
ATOM      1  N   UNL d   1      58.973  49.187  50.561  0.00  0.00    -0.192 N 
ATOM      2  N   UNL d   1      58.853  48.648  49.958  0.00  0.00    -0.058 NA
ATOM      3  C   UNL d   1      59.756  49.122  50.801  0.00  0.00     0.189 A 
ATOM      4  C   UNL d   1      60.110  48.539  50.337  0.00  0.00     0.164 A 
ATOM      5  N   UNL d   1      59.540  48.254  49.819  0.00  0.00    -0.125 NA
ATOM      6  C   UNL d   1      60.894  48.345  50.444  0.00  0.00     0.135 A 
ATOM      7  N   UNL d   1      60.186  49.511  51.372  0.00  0.00    -0.203 NA
ATOM      8  N   UNL d   1      61.336  48.738  51.022  0.00  0.00    -0.216 NA
ATOM      9  C   UNL d   1      60.982  49.321  51.486  0.00  0.00     0.201 A 
ENDROOT
BRANCH   6  10
ATOM     10  S   UNL d   1      61.248  47.762  49.980  0.00  0.00    -0.061 SA
BRANCH  10  11
ATOM     11  C   UNL d   1      61.573  47.101  50.326  0.00  0.00     0.098 C 
BRANCH  11  12
ATOM     12  C   UNL d   1      61.973  46.550  49.860  0.00  0.00     0.272 C 
ATOM     13  N   UNL d   1      62.021  45.764  50.116  0.00  0.00    -0.269 N 
ATOM     14  C   UNL d   1      61.671  45.536  50.831  0.00  0.00     0.102 A 
ATOM     15  C   UNL d   1      62.416  45.200  49.663  0.00  0.00     0.102 A 
ATOM     16  C   UNL d   1      61.719  44.750  51.087  0.00  0.00     0.100 A 
ATOM     17  N   UNL d   1      62.116  44.192  50.628  0.00  0.00    -0.301 N 
ATOM     18  C   UNL d   1      62.466  44.419  49.913  0.00  0.00     0.100 A 
ATOM     19  O   UNL d   1      62.321  46.771  49.152  0.00  0.00    -0.266 OA
BRANCH  17  20
ATOM     20  C   UNL d   1      62.165  43.406  50.883  0.00  0.00     0.064 A 
ATOM     21  C   UNL d   1      61.772  43.171  51.569  0.00  0.00     0.018 A 
ATOM     22  C   UNL d   1      61.825  42.387  51.817  0.00  0.00     0.002 A 
ATOM     23  C   UNL d   1      62.257  41.849  51.394  0.00  0.00     0.000 A 
ATOM     24  C   UNL d   1      62.649  42.084  50.707  0.00  0.00     0.002 A 
ATOM     25  C   UNL d   1      62.601  42.871  50.453  0.00  0.00     0.018 A 
ENDBRANCH  17  20
ENDBRANCH  11  12
ENDBRANCH  10  11
ENDBRANCH   6  10
BRANCH   1  26
ATOM     26  C   UNL d   1      58.397  49.708  50.875  0.00  0.00     0.106 C 
BRANCH  26  27
ATOM     27  C   UNL d   1      57.620  49.707  50.576  0.00  0.00     0.047 A 
ATOM     28  C   UNL d   1      56.980  49.707  51.095  0.00  0.00     0.142 A 
ATOM     29  F   UNL d   1      57.094  49.708  51.908  0.00  0.00    -0.204 F 
ATOM     30  C   UNL d   1      56.217  49.707  50.807  0.00  0.00     0.030 A 
ATOM     31  C   UNL d   1      56.088  49.706  49.990  0.00  0.00     0.002 A 
ATOM     32  C   UNL d   1      56.730  49.707  49.462  0.00  0.00     0.000 A 
ATOM     33  C   UNL d   1      57.481  49.707  49.765  0.00  0.00     0.004 A 
ENDBRANCH  26  27
ENDBRANCH   1  26
TORSDOF 6
ENDMDL
