MODEL 1
REMARK VINA RESULT:      67.4      0.000      0.000
REMARK  3 active torsions:
REMARK  status: ('A' for Active; 'I' for Inactive)
REMARK    1  A    between atoms: C_3  and  C_1 
REMARK    2  A    between atoms: N_4  and  C_3 
REMARK    3  A    between atoms: C_8  and  C_3 
ROOT
ATOM      1  C   UNL d   1     -58.076 -99.152 -44.454  0.00  0.00     0.069 C 
ENDROOT
BRANCH   1   2
ATOM      2  C   UNL d   1     -58.543 -99.063 -45.132  0.00  0.00     0.057 A 
ATOM      3  C   UNL d   1     -58.190 -99.058 -45.878  0.00  0.00     0.214 A 
ATOM      4  C   UNL d   1     -58.663 -98.970 -46.541  0.00  0.00     0.120 A 
ATOM      5  O   UNL d   1     -57.368 -99.140 -45.962  0.00  0.00    -0.285 OA
ATOM      6  N   UNL d   1     -58.325 -98.962 -47.293  0.00  0.00    -0.241 NA
ATOM      7  C   UNL d   1     -59.486 -98.887 -46.457  0.00  0.00     0.021 A 
ATOM      8  C   UNL d   1     -58.813 -98.873 -47.955  0.00  0.00     0.099 A 
ATOM      9  C   UNL d   1     -59.602 -98.794 -47.874  0.00  0.00     0.021 A 
ATOM     10  C   UNL d   1     -59.959 -98.798 -47.126  0.00  0.00     0.003 A 
ATOM     11  C   UNL d   1     -59.823 -98.894 -45.711  0.00  0.00     0.002 A 
ATOM     12  C   UNL d   1     -59.332 -98.984 -45.051  0.00  0.00     0.005 A 
ENDBRANCH   1   2
BRANCH   1  13
ATOM     13  N   UNL d   1     -57.283 -99.348 -44.520  0.00  0.00    -0.301 N 
ATOM     14  C   UNL d   1     -56.756 -98.798 -44.824  0.00  0.00     0.100 A 
ATOM     15  C   UNL d   1     -55.951 -98.994 -44.892  0.00  0.00     0.100 A 
ATOM     16  N   UNL d   1     -55.687 -99.726 -44.660  0.00  0.00    -0.299 N 
ATOM     17  C   UNL d   1     -56.215-100.280 -44.355  0.00  0.00     0.100 A 
ATOM     18  C   UNL d   1     -54.902 -99.925 -44.725  0.00  0.00     0.100 C 
ATOM     19  C   UNL d   1     -57.006-100.088 -44.287  0.00  0.00     0.100 A 
ENDBRANCH   1  13
BRANCH   1  20
ATOM     20  C   UNL d   1     -58.388 -99.046 -43.707  0.00  0.00     0.035 A 
ATOM     21  C   UNL d   1     -57.906 -98.863 -43.077  0.00  0.00     0.100 A 
ATOM     22  N   UNL d   1     -58.216 -98.755 -42.320  0.00  0.00    -0.242 NA
ATOM     23  C   UNL d   1     -59.031 -98.836 -42.202  0.00  0.00     0.099 A 
ATOM     24  C   UNL d   1     -59.519 -99.020 -42.833  0.00  0.00     0.021 A 
ATOM     25  C   UNL d   1     -59.202 -99.126 -43.590  0.00  0.00     0.005 A 
ENDBRANCH   1  20
TORSDOF 3
ENDMDL
