MODEL 1
REMARK VINA RESULT:      -4.2      0.000      0.000
REMARK  2 active torsions:
REMARK  status: ('A' for Active; 'I' for Inactive)
REMARK    1  A    between atoms: C_8  and  N_1 
REMARK    2  A    between atoms: N_5  and  C_9 
ROOT
ATOM      1  N   UNL d   1      57.465  -0.652  31.001  0.00  0.00    -0.192 N 
ATOM      2  C   UNL d   1      57.991  -0.068  30.739  0.00  0.00     0.281 A 
ATOM      3  N   UNL d   1      57.452  -1.366  30.643  0.00  0.00    -0.120 NA
ATOM      4  C   UNL d   1      57.959  -1.531  30.012  0.00  0.00     0.296 A 
ATOM      5  C   UNL d   1      58.504  -0.216  30.111  0.00  0.00     0.063 A 
ATOM      6  C   UNL d   1      58.489  -0.986  29.726  0.00  0.00     0.064 A 
ATOM      7  O   UNL d   1      58.014   0.677  31.102  0.00  0.00    -0.265 OA
ATOM      8  O   UNL d   1      57.937  -2.258  29.657  0.00  0.00    -0.264 OA
ATOM      9  C   UNL d   1      59.030   0.352  29.842  0.00  0.00     0.005 A 
ATOM     10  C   UNL d   1      59.000  -1.115  29.110  0.00  0.00     0.005 A 
ATOM     11  C   UNL d   1      59.541   0.184  29.204  0.00  0.00     0.000 A 
ATOM     12  C   UNL d   1      59.532  -0.531  28.842  0.00  0.00     0.000 A 
ENDROOT
BRANCH   1  13
ATOM     13  C   UNL d   1      56.961  -0.512  31.614  0.00  0.00     0.086 A 
ATOM     14  C   UNL d   1      56.735  -1.127  32.117  0.00  0.00     0.021 A 
ATOM     15  C   UNL d   1      56.208  -0.959  32.752  0.00  0.00     0.025 A 
ATOM     16  C   UNL d   1      55.926  -0.177  32.859  0.00  0.00     0.127 A 
ATOM     17  C   UNL d   1      56.172   0.395  32.346  0.00  0.00     0.025 A 
ATOM     18  C   UNL d   1      56.677   0.264  31.727  0.00  0.00     0.021 A 
BRANCH  16  19
ATOM     19  N   UNL d   1      55.402  -0.016  33.493  0.00  0.00    -0.114 N 
ATOM     20  O   UNL d   1      54.718   0.389  33.330  0.00  0.00    -0.532 OA
ATOM     21  O   UNL d   1      55.543  -0.247  34.279  0.00  0.00    -0.532 OA
ENDBRANCH  16  19
ENDBRANCH   1  13
TORSDOF 2
ENDMDL
MODEL 2
REMARK VINA RESULT:      -3.9      1.117      1.505
REMARK  2 active torsions:
REMARK  status: ('A' for Active; 'I' for Inactive)
REMARK    1  A    between atoms: C_8  and  N_1 
REMARK    2  A    between atoms: N_5  and  C_9 
ROOT
ATOM      1  N   UNL d   1      58.017   0.251  31.326  0.00  0.00    -0.192 N 
ATOM      2  C   UNL d   1      57.878   0.247  30.509  0.00  0.00     0.281 A 
ATOM      3  N   UNL d   1      58.752   0.393  31.604  0.00  0.00    -0.120 NA
ATOM      4  C   UNL d   1      59.380   0.538  31.086  0.00  0.00     0.296 A 
ATOM      5  C   UNL d   1      58.492   0.389  29.978  0.00  0.00     0.063 A 
ATOM      6  C   UNL d   1      59.283   0.543  30.279  0.00  0.00     0.064 A 
ATOM      7  O   UNL d   1      57.119   0.100  30.208  0.00  0.00    -0.265 OA
ATOM      8  O   UNL d   1      60.120   0.681  31.380  0.00  0.00    -0.264 OA
ATOM      9  C   UNL d   1      58.369   0.389  29.168  0.00  0.00     0.005 A 
ATOM     10  C   UNL d   1      59.877   0.681  29.743  0.00  0.00     0.005 A 
ATOM     11  C   UNL d   1      59.003   0.535  28.646  0.00  0.00     0.000 A 
ATOM     12  C   UNL d   1      59.742   0.678  28.920  0.00  0.00     0.000 A 
ENDROOT
BRANCH   1  13
ATOM     13  C   UNL d   1      57.420   0.112  31.849  0.00  0.00     0.086 A 
ATOM     14  C   UNL d   1      56.973  -0.580  31.799  0.00  0.00     0.021 A 
ATOM     15  C   UNL d   1      56.354  -0.704  32.356  0.00  0.00     0.025 A 
ATOM     16  C   UNL d   1      56.206  -0.128  32.945  0.00  0.00     0.127 A 
ATOM     17  C   UNL d   1      56.666   0.535  32.960  0.00  0.00     0.025 A 
ATOM     18  C   UNL d   1      57.267   0.682  32.439  0.00  0.00     0.021 A 
BRANCH  16  19
ATOM     19  N   UNL d   1      55.589  -0.258  33.496  0.00  0.00    -0.114 N 
ATOM     20  O   UNL d   1      54.850   0.029  33.319  0.00  0.00    -0.532 OA
ATOM     21  O   UNL d   1      55.688  -0.663  34.215  0.00  0.00    -0.532 OA
ENDBRANCH  16  19
ENDBRANCH   1  13
TORSDOF 2
ENDMDL
