MODEL 1
REMARK VINA RESULT:     -10.5      0.000      0.000
REMARK  4 active torsions:
REMARK  status: ('A' for Active; 'I' for Inactive)
REMARK    1  A    between atoms: C_2  and  S_1 
REMARK    2  A    between atoms: C_15  and  S_1 
REMARK    3  A    between atoms: C_5  and  C_3 
REMARK    4  A    between atoms: C_16  and  C_5 
ROOT
ATOM      1  C   UNL d   1      53.075  32.011  53.478  0.00  0.00     0.094 A 
ATOM      2  C   UNL d   1      52.565  32.387  52.948  0.00  0.00     0.069 A 
ATOM      3  C   UNL d   1      53.046  31.192  53.565  0.00  0.00     0.031 A 
ATOM      4  C   UNL d   1      52.510  30.748  53.124  0.00  0.00     0.084 A 
ATOM      5  C   UNL d   1      53.555  30.818  54.094  0.00  0.00     0.029 A 
ATOM      6  N   UNL d   1      52.001  31.122  52.595  0.00  0.00    -0.244 NA
ATOM      7  C   UNL d   1      52.028  31.944  52.507  0.00  0.00     0.103 A 
ATOM      8  C   UNL d   1      52.481  29.929  53.211  0.00  0.00     0.046 A 
ATOM      9  C   UNL d   1      53.526  30.000  54.180  0.00  0.00     0.123 A 
ATOM     10  C   UNL d   1      52.990  29.556  53.739  0.00  0.00     0.124 A 
ATOM     11  O   UNL d   1      54.035  29.626  54.709  0.00  0.00    -0.301 OA
ATOM     12  O   UNL d   1      52.961  28.738  53.826  0.00  0.00    -0.301 OA
ATOM     13  C   UNL d   1      54.009  28.801  54.799  0.00  0.00     0.149 A 
ATOM     14  C   UNL d   1      53.473  28.357  54.358  0.00  0.00     0.149 A 
ENDROOT
BRANCH   1  15
ATOM     15  S   UNL d   1      53.615  32.448  53.924  0.00  0.00     0.210 S 
ATOM     16  O   UNL d   1      53.066  32.482  54.539  0.00  0.00    -0.217 OA
ATOM     17  O   UNL d   1      54.163  32.413  53.308  0.00  0.00    -0.217 OA
BRANCH  15  18
ATOM     18  C   UNL d   1      54.143  32.885  54.382  0.00  0.00     0.088 A 
ATOM     19  C   UNL d   1      54.868  33.120  54.070  0.00  0.00     0.011 A 
ATOM     20  C   UNL d   1      55.394  33.560  54.539  0.00  0.00     0.001 A 
ATOM     21  C   UNL d   1      55.190  33.759  55.310  0.00  0.00     0.000 A 
ATOM     22  C   UNL d   1      54.469  33.526  55.622  0.00  0.00     0.001 A 
ATOM     23  C   UNL d   1      53.939  33.085  55.155  0.00  0.00     0.011 A 
ENDBRANCH  15  18
ENDBRANCH   1  15
BRANCH   2  24
ATOM     24  C   UNL d   1      52.590  33.213  52.858  0.00  0.00     0.198 C 
ATOM     25  O   UNL d   1      53.317  33.604  52.832  0.00  0.00    -0.286 OA
BRANCH  24  26
ATOM     26  C   UNL d   1      51.888  33.641  52.794  0.00  0.00     0.039 A 
ATOM     27  C   UNL d   1      51.377  33.712  53.444  0.00  0.00     0.003 A 
ATOM     28  C   UNL d   1      50.674  34.141  53.382  0.00  0.00     0.000 A 
ATOM     29  C   UNL d   1      50.471  34.504  52.670  0.00  0.00     0.000 A 
ATOM     30  C   UNL d   1      50.987  34.432  52.013  0.00  0.00     0.000 A 
ATOM     31  C   UNL d   1      49.774  34.931  52.599  0.00  0.00     0.000 C 
ATOM     32  C   UNL d   1      51.689  34.005  52.072  0.00  0.00     0.003 A 
ENDBRANCH  24  26
ENDBRANCH   2  24
TORSDOF 4
ENDMDL
MODEL 2
REMARK VINA RESULT:      -9.4      0.916      3.965
REMARK  4 active torsions:
REMARK  status: ('A' for Active; 'I' for Inactive)
REMARK    1  A    between atoms: C_2  and  S_1 
REMARK    2  A    between atoms: C_15  and  S_1 
REMARK    3  A    between atoms: C_5  and  C_3 
REMARK    4  A    between atoms: C_16  and  C_5 
ROOT
ATOM      1  C   UNL d   1      52.959  32.359  53.531  0.00  0.00     0.094 A 
ATOM      2  C   UNL d   1      53.012  31.556  53.344  0.00  0.00     0.069 A 
ATOM      3  C   UNL d   1      52.288  32.788  53.319  0.00  0.00     0.031 A 
ATOM      4  C   UNL d   1      51.670  32.416  52.920  0.00  0.00     0.084 A 
ATOM      5  C   UNL d   1      52.237  33.588  53.506  0.00  0.00     0.029 A 
ATOM      6  N   UNL d   1      51.722  31.615  52.733  0.00  0.00    -0.244 NA
ATOM      7  C   UNL d   1      52.395  31.184  52.945  0.00  0.00     0.103 A 
ATOM      8  C   UNL d   1      50.999  32.844  52.707  0.00  0.00     0.046 A 
ATOM      9  C   UNL d   1      51.566  34.016  53.294  0.00  0.00     0.123 A 
ATOM     10  C   UNL d   1      50.948  33.644  52.895  0.00  0.00     0.124 A 
ATOM     11  O   UNL d   1      51.515  34.816  53.481  0.00  0.00    -0.301 OA
ATOM     12  O   UNL d   1      50.278  34.072  52.682  0.00  0.00    -0.301 OA
ATOM     13  C   UNL d   1      50.840  35.251  53.268  0.00  0.00     0.149 A 
ATOM     14  C   UNL d   1      50.222  34.879  52.869  0.00  0.00     0.149 A 
ENDROOT
BRANCH   1  15
ATOM     15  S   UNL d   1      53.573  32.739  53.931  0.00  0.00     0.210 S 
ATOM     16  O   UNL d   1      53.182  32.603  54.644  0.00  0.00    -0.217 OA
ATOM     17  O   UNL d   1      53.965  32.875  53.218  0.00  0.00    -0.217 OA
BRANCH  15  18
ATOM     18  C   UNL d   1      54.179  33.116  54.346  0.00  0.00     0.088 A 
ATOM     19  C   UNL d   1      54.830  33.423  53.944  0.00  0.00     0.011 A 
ATOM     20  C   UNL d   1      55.434  33.800  54.369  0.00  0.00     0.001 A 
ATOM     21  C   UNL d   1      55.383  33.867  55.187  0.00  0.00     0.000 A 
ATOM     22  C   UNL d   1      54.737  33.562  55.588  0.00  0.00     0.001 A 
ATOM     23  C   UNL d   1      54.128  33.182  55.165  0.00  0.00     0.011 A 
ENDBRANCH  15  18
ENDBRANCH   1  15
BRANCH   2  24
ATOM     24  C   UNL d   1      53.688  31.121  53.557  0.00  0.00     0.198 C 
ATOM     25  O   UNL d   1      54.440  31.435  53.429  0.00  0.00    -0.286 OA
BRANCH  24  26
ATOM     26  C   UNL d   1      53.604  30.373  53.896  0.00  0.00     0.039 A 
ATOM     27  C   UNL d   1      53.402  30.294  54.697  0.00  0.00     0.003 A 
ATOM     28  C   UNL d   1      53.318  29.547  55.038  0.00  0.00     0.000 A 
ATOM     29  C   UNL d   1      53.435  28.868  54.585  0.00  0.00     0.000 A 
ATOM     30  C   UNL d   1      53.639  28.948  53.775  0.00  0.00     0.000 A 
ATOM     31  C   UNL d   1      53.353  28.122  54.916  0.00  0.00     0.000 C 
ATOM     32  C   UNL d   1      53.723  29.692  53.432  0.00  0.00     0.003 A 
ENDBRANCH  24  26
ENDBRANCH   2  24
TORSDOF 4
ENDMDL
MODEL 3
REMARK VINA RESULT:      -7.9      1.586      3.356
REMARK  4 active torsions:
REMARK  status: ('A' for Active; 'I' for Inactive)
REMARK    1  A    between atoms: C_2  and  S_1 
REMARK    2  A    between atoms: C_15  and  S_1 
REMARK    3  A    between atoms: C_5  and  C_3 
REMARK    4  A    between atoms: C_16  and  C_5 
ROOT
ATOM      1  C   UNL d   1      52.592  33.394  53.298  0.00  0.00     0.094 A 
ATOM      2  C   UNL d   1      52.083  33.883  52.868  0.00  0.00     0.069 A 
ATOM      3  C   UNL d   1      53.132  33.725  53.826  0.00  0.00     0.031 A 
ATOM      4  C   UNL d   1      53.163  34.542  53.926  0.00  0.00     0.084 A 
ATOM      5  C   UNL d   1      53.639  33.237  54.253  0.00  0.00     0.029 A 
ATOM      6  N   UNL d   1      52.655  35.031  53.498  0.00  0.00    -0.244 NA
ATOM      7  C   UNL d   1      52.114  34.700  52.968  0.00  0.00     0.103 A 
ATOM      8  C   UNL d   1      53.702  34.873  54.454  0.00  0.00     0.046 A 
ATOM      9  C   UNL d   1      54.178  33.568  54.781  0.00  0.00     0.123 A 
ATOM     10  C   UNL d   1      54.209  34.385  54.881  0.00  0.00     0.124 A 
ATOM     11  O   UNL d   1      54.685  33.080  55.207  0.00  0.00    -0.301 OA
ATOM     12  O   UNL d   1      54.747  34.716  55.408  0.00  0.00    -0.301 OA
ATOM     13  C   UNL d   1      55.229  33.410  55.741  0.00  0.00     0.149 A 
ATOM     14  C   UNL d   1      55.261  34.227  55.841  0.00  0.00     0.149 A 
ENDROOT
BRANCH   1  15
ATOM     15  S   UNL d   1      52.568  32.575  53.203  0.00  0.00     0.210 S 
ATOM     16  O   UNL d   1      52.043  32.527  53.838  0.00  0.00    -0.217 OA
ATOM     17  O   UNL d   1      53.093  32.623  52.569  0.00  0.00    -0.217 OA
BRANCH  15  18
ATOM     18  C   UNL d   1      52.532  31.754  53.123  0.00  0.00     0.088 A 
ATOM     19  C   UNL d   1      51.943  31.324  53.508  0.00  0.00     0.011 A 
ATOM     20  C   UNL d   1      51.914  30.499  53.421  0.00  0.00     0.001 A 
ATOM     21  C   UNL d   1      52.470  30.114  52.954  0.00  0.00     0.000 A 
ATOM     22  C   UNL d   1      53.056  30.540  52.571  0.00  0.00     0.001 A 
ATOM     23  C   UNL d   1      53.089  31.368  52.655  0.00  0.00     0.011 A 
ENDBRANCH  15  18
ENDBRANCH   1  15
BRANCH   2  24
ATOM     24  C   UNL d   1      51.538  33.552  52.335  0.00  0.00     0.198 C 
ATOM     25  O   UNL d   1      51.731  32.867  51.918  0.00  0.00    -0.286 OA
BRANCH  24  26
ATOM     26  C   UNL d   1      50.803  33.911  52.223  0.00  0.00     0.039 A 
ATOM     27  C   UNL d   1      50.302  34.054  52.869  0.00  0.00     0.003 A 
ATOM     28  C   UNL d   1      49.567  34.414  52.759  0.00  0.00     0.000 A 
ATOM     29  C   UNL d   1      49.321  34.635  52.003  0.00  0.00     0.000 A 
ATOM     30  C   UNL d   1      49.828  34.490  51.351  0.00  0.00     0.000 A 
ATOM     31  C   UNL d   1      48.592  34.992  51.885  0.00  0.00     0.000 C 
ATOM     32  C   UNL d   1      50.562  34.132  51.457  0.00  0.00     0.003 A 
ENDBRANCH  24  26
ENDBRANCH   2  24
TORSDOF 4
ENDMDL
