MODEL 1
REMARK VINA RESULT:      -7.0      0.000      0.000
REMARK  6 active torsions:
REMARK  status: ('A' for Active; 'I' for Inactive)
REMARK    1  A    between atoms: N_2  and  S_1 
REMARK    2  A    between atoms: C_3  and  S_1 
REMARK    3  A    between atoms: C_9  and  N_2 
REMARK    4  A    between atoms: C_13  and  C_9 
REMARK    5  A    between atoms: O_14  and  C_10 
REMARK    6  A    between atoms: C_17  and  O_14 
ROOT
ATOM      1  S   UNL d   1      52.017  34.034  52.920  0.00  0.00     0.285 S 
ATOM      2  O   UNL d   1      52.191  34.837  52.854  0.00  0.00    -0.198 OA
ATOM      3  O   UNL d   1      51.844  33.230  52.987  0.00  0.00    -0.198 OA
ENDROOT
BRANCH   1   4
ATOM      4  N   UNL d   1      52.780  33.892  53.203  0.00  0.00    -0.157 NA
BRANCH   4   5
ATOM      5  C   UNL d   1      52.889  33.479  53.911  0.00  0.00     0.112 C 
BRANCH   5   6
ATOM      6  C   UNL d   1      53.639  33.435  54.252  0.00  0.00     0.023 A 
ATOM      7  C   UNL d   1      53.788  33.798  54.986  0.00  0.00     0.022 A 
ATOM      8  C   UNL d   1      54.538  33.753  55.326  0.00  0.00     0.099 A 
ATOM      9  N   UNL d   1      55.139  33.352  54.942  0.00  0.00    -0.242 NA
ATOM     10  C   UNL d   1      54.996  32.991  54.214  0.00  0.00     0.099 A 
ATOM     11  C   UNL d   1      54.240  33.034  53.868  0.00  0.00     0.022 A 
ENDBRANCH   5   6
ENDBRANCH   4   5
ENDBRANCH   1   4
BRANCH   1  12
ATOM     12  C   UNL d   1      51.255  34.175  52.638  0.00  0.00     0.105 A 
ATOM     13  C   UNL d   1      50.661  34.412  53.159  0.00  0.00     0.015 A 
ATOM     14  C   UNL d   1      49.899  34.554  52.877  0.00  0.00     0.025 A 
ATOM     15  C   UNL d   1      49.731  34.458  52.072  0.00  0.00     0.100 A 
ATOM     16  C   UNL d   1      50.325  34.221  51.552  0.00  0.00     0.025 A 
ATOM     17  C   UNL d   1      51.087  34.080  51.834  0.00  0.00     0.015 A 
BRANCH  15  18
ATOM     18  O   UNL d   1      48.969  34.599  51.790  0.00  0.00    -0.305 OA
BRANCH  18  19
ATOM     19  C   UNL d   1      48.837  34.668  50.979  0.00  0.00     0.123 C 
ATOM     20  C   UNL d   1      48.075  34.820  50.694  0.00  0.00     0.029 C 
ENDBRANCH  18  19
ENDBRANCH  15  18
ENDBRANCH   1  12
TORSDOF 6
ENDMDL
MODEL 2
REMARK VINA RESULT:      -7.0      1.754      4.991
REMARK  6 active torsions:
REMARK  status: ('A' for Active; 'I' for Inactive)
REMARK    1  A    between atoms: N_2  and  S_1 
REMARK    2  A    between atoms: C_3  and  S_1 
REMARK    3  A    between atoms: C_9  and  N_2 
REMARK    4  A    between atoms: C_13  and  C_9 
REMARK    5  A    between atoms: O_14  and  C_10 
REMARK    6  A    between atoms: C_17  and  O_14 
ROOT
ATOM      1  S   UNL d   1      51.056  34.122  52.649  0.00  0.00     0.285 S 
ATOM      2  O   UNL d   1      50.663  33.778  53.287  0.00  0.00    -0.198 OA
ATOM      3  O   UNL d   1      51.449  34.466  52.011  0.00  0.00    -0.198 OA
ENDROOT
BRANCH   1   4
ATOM      4  N   UNL d   1      50.330  34.302  52.299  0.00  0.00    -0.157 NA
BRANCH   4   5
ATOM      5  C   UNL d   1      49.724  34.638  52.750  0.00  0.00     0.112 C 
BRANCH   5   6
ATOM      6  C   UNL d   1      49.054  34.943  52.379  0.00  0.00     0.023 A 
ATOM      7  C   UNL d   1      48.600  35.532  52.752  0.00  0.00     0.022 A 
ATOM      8  C   UNL d   1      47.930  35.837  52.381  0.00  0.00     0.099 A 
ATOM      9  N   UNL d   1      47.708  35.559  51.644  0.00  0.00    -0.242 NA
ATOM     10  C   UNL d   1      48.155  34.975  51.270  0.00  0.00     0.099 A 
ATOM     11  C   UNL d   1      48.832  34.666  51.642  0.00  0.00     0.022 A 
ENDBRANCH   5   6
ENDBRANCH   4   5
ENDBRANCH   1   4
BRANCH   1  12
ATOM     12  C   UNL d   1      51.781  33.942  52.999  0.00  0.00     0.105 A 
ATOM     13  C   UNL d   1      52.253  34.547  53.301  0.00  0.00     0.015 A 
ATOM     14  C   UNL d   1      52.978  34.367  53.651  0.00  0.00     0.025 A 
ATOM     15  C   UNL d   1      53.232  33.581  53.697  0.00  0.00     0.100 A 
ATOM     16  C   UNL d   1      52.760  32.976  53.394  0.00  0.00     0.025 A 
ATOM     17  C   UNL d   1      52.035  33.156  53.045  0.00  0.00     0.015 A 
BRANCH  15  18
ATOM     18  O   UNL d   1      53.957  33.401  54.046  0.00  0.00    -0.305 OA
BRANCH  18  19
ATOM     19  C   UNL d   1      54.055  33.492  54.860  0.00  0.00     0.123 C 
ATOM     20  C   UNL d   1      54.800  33.376  55.204  0.00  0.00     0.029 C 
ENDBRANCH  18  19
ENDBRANCH  15  18
ENDBRANCH   1  12
TORSDOF 6
ENDMDL
MODEL 3
REMARK VINA RESULT:      -5.2     10.415     11.254
REMARK  6 active torsions:
REMARK  status: ('A' for Active; 'I' for Inactive)
REMARK    1  A    between atoms: N_2  and  S_1 
REMARK    2  A    between atoms: C_3  and  S_1 
REMARK    3  A    between atoms: C_9  and  N_2 
REMARK    4  A    between atoms: C_13  and  C_9 
REMARK    5  A    between atoms: O_14  and  C_10 
REMARK    6  A    between atoms: C_17  and  O_14 
ROOT
ATOM      1  S   UNL d   1      45.148  27.026  56.699  0.00  0.00     0.285 S 
ATOM      2  O   UNL d   1      44.349  27.148  56.534  0.00  0.00    -0.198 OA
ATOM      3  O   UNL d   1      45.947  26.905  56.863  0.00  0.00    -0.198 OA
ENDROOT
BRANCH   1   4
ATOM      4  N   UNL d   1      45.143  26.351  56.224  0.00  0.00    -0.157 NA
BRANCH   4   5
ATOM      5  C   UNL d   1      44.586  25.755  56.355  0.00  0.00     0.112 C 
BRANCH   5   6
ATOM      6  C   UNL d   1      44.607  25.063  55.907  0.00  0.00     0.023 A 
ATOM      7  C   UNL d   1      44.314  25.060  55.128  0.00  0.00     0.022 A 
ATOM      8  C   UNL d   1      44.336  24.368  54.680  0.00  0.00     0.099 A 
ATOM      9  N   UNL d   1      44.646  23.682  55.000  0.00  0.00    -0.242 NA
ATOM     10  C   UNL d   1      44.937  23.681  55.772  0.00  0.00     0.099 A 
ATOM     11  C   UNL d   1      44.917  24.377  56.227  0.00  0.00     0.022 A 
ENDBRANCH   5   6
ENDBRANCH   4   5
ENDBRANCH   1   4
BRANCH   1  12
ATOM     12  C   UNL d   1      45.153  27.701  57.173  0.00  0.00     0.105 A 
ATOM     13  C   UNL d   1      45.299  27.634  57.982  0.00  0.00     0.015 A 
ATOM     14  C   UNL d   1      45.304  28.308  58.457  0.00  0.00     0.025 A 
ATOM     15  C   UNL d   1      45.162  29.051  58.122  0.00  0.00     0.100 A 
ATOM     16  C   UNL d   1      45.015  29.118  57.313  0.00  0.00     0.025 A 
ATOM     17  C   UNL d   1      45.010  28.444  56.839  0.00  0.00     0.015 A 
BRANCH  15  18
ATOM     18  O   UNL d   1      45.167  29.726  58.597  0.00  0.00    -0.305 OA
BRANCH  18  19
ATOM     19  C   UNL d   1      44.782  29.718  59.326  0.00  0.00     0.123 C 
ATOM     20  C   UNL d   1      44.783  30.396  59.803  0.00  0.00     0.029 C 
ENDBRANCH  18  19
ENDBRANCH  15  18
ENDBRANCH   1  12
TORSDOF 6
ENDMDL
MODEL 4
REMARK VINA RESULT:      -4.9     10.228     10.868
REMARK  6 active torsions:
REMARK  status: ('A' for Active; 'I' for Inactive)
REMARK    1  A    between atoms: N_2  and  S_1 
REMARK    2  A    between atoms: C_3  and  S_1 
REMARK    3  A    between atoms: C_9  and  N_2 
REMARK    4  A    between atoms: C_13  and  C_9 
REMARK    5  A    between atoms: O_14  and  C_10 
REMARK    6  A    between atoms: C_17  and  O_14 
ROOT
ATOM      1  S   UNL d   1      45.060  28.853  58.369  0.00  0.00     0.285 S 
ATOM      2  O   UNL d   1      45.465  28.373  58.903  0.00  0.00    -0.198 OA
ATOM      3  O   UNL d   1      44.654  29.333  57.836  0.00  0.00    -0.198 OA
ENDROOT
BRANCH   1   4
ATOM      4  N   UNL d   1      45.055  29.464  58.923  0.00  0.00    -0.157 NA
BRANCH   4   5
ATOM      5  C   UNL d   1      44.460  29.500  59.496  0.00  0.00     0.112 C 
BRANCH   5   6
ATOM      6  C   UNL d   1      44.481  30.085  60.078  0.00  0.00     0.023 A 
ATOM      7  C   UNL d   1      44.314  30.876  59.883  0.00  0.00     0.022 A 
ATOM      8  C   UNL d   1      44.335  31.460  60.464  0.00  0.00     0.099 A 
ATOM      9  N   UNL d   1      44.521  31.263  61.236  0.00  0.00    -0.242 NA
ATOM     10  C   UNL d   1      44.688  30.479  61.435  0.00  0.00     0.099 A 
ATOM     11  C   UNL d   1      44.667  29.888  60.850  0.00  0.00     0.022 A 
ENDBRANCH   5   6
ENDBRANCH   4   5
ENDBRANCH   1   4
BRANCH   1  12
ATOM     12  C   UNL d   1      45.065  28.242  57.815  0.00  0.00     0.105 A 
ATOM     13  C   UNL d   1      45.439  27.528  57.993  0.00  0.00     0.015 A 
ATOM     14  C   UNL d   1      45.444  26.917  57.439  0.00  0.00     0.025 A 
ATOM     15  C   UNL d   1      45.074  27.020  56.706  0.00  0.00     0.100 A 
ATOM     16  C   UNL d   1      44.699  27.733  56.529  0.00  0.00     0.025 A 
ATOM     17  C   UNL d   1      44.695  28.344  57.083  0.00  0.00     0.015 A 
BRANCH  15  18
ATOM     18  O   UNL d   1      45.078  26.409  56.152  0.00  0.00    -0.305 OA
BRANCH  18  19
ATOM     19  C   UNL d   1      44.656  25.716  56.300  0.00  0.00     0.123 C 
ATOM     20  C   UNL d   1      44.652  25.105  55.741  0.00  0.00     0.029 C 
ENDBRANCH  18  19
ENDBRANCH  15  18
ENDBRANCH   1  12
TORSDOF 6
ENDMDL
MODEL 5
REMARK VINA RESULT:      -4.8     10.570     11.436
REMARK  6 active torsions:
REMARK  status: ('A' for Active; 'I' for Inactive)
REMARK    1  A    between atoms: N_2  and  S_1 
REMARK    2  A    between atoms: C_3  and  S_1 
REMARK    3  A    between atoms: C_9  and  N_2 
REMARK    4  A    between atoms: C_13  and  C_9 
REMARK    5  A    between atoms: O_14  and  C_10 
REMARK    6  A    between atoms: C_17  and  O_14 
ROOT
ATOM      1  S   UNL d   1      44.536  28.981  59.308  0.00  0.00     0.285 S 
ATOM      2  O   UNL d   1      44.325  28.466  59.916  0.00  0.00    -0.198 OA
ATOM      3  O   UNL d   1      44.747  29.496  58.699  0.00  0.00    -0.198 OA
ENDROOT
BRANCH   1   4
ATOM      4  N   UNL d   1      44.466  28.366  58.763  0.00  0.00    -0.157 NA
BRANCH   4   5
ATOM      5  C   UNL d   1      45.136  27.943  58.526  0.00  0.00     0.112 C 
BRANCH   5   6
ATOM      6  C   UNL d   1      45.065  27.327  57.982  0.00  0.00     0.023 A 
ATOM      7  C   UNL d   1      45.292  27.440  57.190  0.00  0.00     0.022 A 
ATOM      8  C   UNL d   1      45.221  26.824  56.646  0.00  0.00     0.099 A 
ATOM      9  N   UNL d   1      44.927  26.099  56.884  0.00  0.00    -0.242 NA
ATOM     10  C   UNL d   1      44.701  25.982  57.669  0.00  0.00     0.099 A 
ATOM     11  C   UNL d   1      44.771  26.602  58.221  0.00  0.00     0.022 A 
ENDBRANCH   5   6
ENDBRANCH   4   5
ENDBRANCH   1   4
BRANCH   1  12
ATOM     12  C   UNL d   1      44.606  29.597  59.853  0.00  0.00     0.105 A 
ATOM     13  C   UNL d   1      44.584  30.379  59.594  0.00  0.00     0.015 A 
ATOM     14  C   UNL d   1      44.654  30.995  60.139  0.00  0.00     0.025 A 
ATOM     15  C   UNL d   1      44.746  30.827  60.943  0.00  0.00     0.100 A 
ATOM     16  C   UNL d   1      44.769  30.044  61.202  0.00  0.00     0.025 A 
ATOM     17  C   UNL d   1      44.699  29.429  60.657  0.00  0.00     0.015 A 
BRANCH  15  18
ATOM     18  O   UNL d   1      44.817  31.443  61.488  0.00  0.00    -0.305 OA
BRANCH  18  19
ATOM     19  C   UNL d   1      44.314  31.473  62.141  0.00  0.00     0.123 C 
ATOM     20  C   UNL d   1      44.411  32.065  62.712  0.00  0.00     0.029 C 
ENDBRANCH  18  19
ENDBRANCH  15  18
ENDBRANCH   1  12
TORSDOF 6
ENDMDL
MODEL 6
REMARK VINA RESULT:      -4.6     10.369     11.494
REMARK  6 active torsions:
REMARK  status: ('A' for Active; 'I' for Inactive)
REMARK    1  A    between atoms: N_2  and  S_1 
REMARK    2  A    between atoms: C_3  and  S_1 
REMARK    3  A    between atoms: C_9  and  N_2 
REMARK    4  A    between atoms: C_13  and  C_9 
REMARK    5  A    between atoms: O_14  and  C_10 
REMARK    6  A    between atoms: C_17  and  O_14 
ROOT
ATOM      1  S   UNL d   1      44.461  30.344  59.836  0.00  0.00     0.285 S 
ATOM      2  O   UNL d   1      44.603  31.101  60.129  0.00  0.00    -0.198 OA
ATOM      3  O   UNL d   1      44.319  29.586  59.543  0.00  0.00    -0.198 OA
ENDROOT
BRANCH   1   4
ATOM      4  N   UNL d   1      44.344  30.657  59.082  0.00  0.00    -0.157 NA
BRANCH   4   5
ATOM      5  C   UNL d   1      44.935  30.589  58.508  0.00  0.00     0.112 C 
BRANCH   5   6
ATOM      6  C   UNL d   1      44.796  30.851  57.738  0.00  0.00     0.023 A 
ATOM      7  C   UNL d   1      44.704  30.303  57.120  0.00  0.00     0.022 A 
ATOM      8  C   UNL d   1      44.565  30.565  56.350  0.00  0.00     0.099 A 
ATOM      9  N   UNL d   1      44.518  31.367  56.193  0.00  0.00    -0.242 NA
ATOM     10  C   UNL d   1      44.609  31.914  56.804  0.00  0.00     0.099 A 
ATOM     11  C   UNL d   1      44.749  31.653  57.581  0.00  0.00     0.022 A 
ENDBRANCH   5   6
ENDBRANCH   4   5
ENDBRANCH   1   4
BRANCH   1  12
ATOM     12  C   UNL d   1      44.578  30.030  60.590  0.00  0.00     0.105 A 
ATOM     13  C   UNL d   1      44.391  29.241  60.740  0.00  0.00     0.015 A 
ATOM     14  C   UNL d   1      44.507  28.927  61.494  0.00  0.00     0.025 A 
ATOM     15  C   UNL d   1      44.812  29.402  62.098  0.00  0.00     0.100 A 
ATOM     16  C   UNL d   1      44.999  30.191  61.948  0.00  0.00     0.025 A 
ATOM     17  C   UNL d   1      44.882  30.505  61.194  0.00  0.00     0.015 A 
BRANCH  15  18
ATOM     18  O   UNL d   1      44.928  29.088  62.852  0.00  0.00    -0.305 OA
BRANCH  18  19
ATOM     19  C   UNL d   1      44.455  28.467  63.116  0.00  0.00     0.123 C 
ATOM     20  C   UNL d   1      44.487  28.229  63.909  0.00  0.00     0.029 C 
ENDBRANCH  18  19
ENDBRANCH  15  18
ENDBRANCH   1  12
TORSDOF 6
ENDMDL
MODEL 7
REMARK VINA RESULT:      -4.6     10.751     11.590
REMARK  6 active torsions:
REMARK  status: ('A' for Active; 'I' for Inactive)
REMARK    1  A    between atoms: N_2  and  S_1 
REMARK    2  A    between atoms: C_3  and  S_1 
REMARK    3  A    between atoms: C_9  and  N_2 
REMARK    4  A    between atoms: C_13  and  C_9 
REMARK    5  A    between atoms: O_14  and  C_10 
REMARK    6  A    between atoms: C_17  and  O_14 
ROOT
ATOM      1  S   UNL d   1      45.034  27.416  58.090  0.00  0.00     0.285 S 
ATOM      2  O   UNL d   1      45.754  27.286  58.470  0.00  0.00    -0.198 OA
ATOM      3  O   UNL d   1      44.314  27.546  57.709  0.00  0.00    -0.198 OA
ENDROOT
BRANCH   1   4
ATOM      4  N   UNL d   1      45.205  28.222  58.040  0.00  0.00    -0.157 NA
BRANCH   4   5
ATOM      5  C   UNL d   1      44.621  28.781  58.211  0.00  0.00     0.112 C 
BRANCH   5   6
ATOM      6  C   UNL d   1      44.805  29.585  58.205  0.00  0.00     0.023 A 
ATOM      7  C   UNL d   1      44.784  30.014  57.493  0.00  0.00     0.022 A 
ATOM      8  C   UNL d   1      44.967  30.818  57.487  0.00  0.00     0.099 A 
ATOM      9  N   UNL d   1      45.171  31.197  58.183  0.00  0.00    -0.242 NA
ATOM     10  C   UNL d   1      45.193  30.775  58.892  0.00  0.00     0.099 A 
ATOM     11  C   UNL d   1      45.008  29.964  58.901  0.00  0.00     0.022 A 
ENDBRANCH   5   6
ENDBRANCH   4   5
ENDBRANCH   1   4
BRANCH   1  12
ATOM     12  C   UNL d   1      44.862  26.611  58.139  0.00  0.00     0.105 A 
ATOM     13  C   UNL d   1      44.748  26.171  57.451  0.00  0.00     0.015 A 
ATOM     14  C   UNL d   1      44.576  25.366  57.500  0.00  0.00     0.025 A 
ATOM     15  C   UNL d   1      44.519  25.000  58.239  0.00  0.00     0.100 A 
ATOM     16  C   UNL d   1      44.633  25.439  58.928  0.00  0.00     0.025 A 
ATOM     17  C   UNL d   1      44.805  26.244  58.879  0.00  0.00     0.015 A 
BRANCH  15  18
ATOM     18  O   UNL d   1      44.347  24.195  58.289  0.00  0.00    -0.305 OA
BRANCH  18  19
ATOM     19  C   UNL d   1      44.958  23.649  58.381  0.00  0.00     0.123 C 
ATOM     20  C   UNL d   1      44.784  22.855  58.546  0.00  0.00     0.029 C 
ENDBRANCH  18  19
ENDBRANCH  15  18
ENDBRANCH   1  12
TORSDOF 6
ENDMDL
MODEL 8
REMARK VINA RESULT:      -4.5     10.317     11.076
REMARK  6 active torsions:
REMARK  status: ('A' for Active; 'I' for Inactive)
REMARK    1  A    between atoms: N_2  and  S_1 
REMARK    2  A    between atoms: C_3  and  S_1 
REMARK    3  A    between atoms: C_9  and  N_2 
REMARK    4  A    between atoms: C_13  and  C_9 
REMARK    5  A    between atoms: O_14  and  C_10 
REMARK    6  A    between atoms: C_17  and  O_14 
ROOT
ATOM      1  S   UNL d   1      45.049  27.263  57.063  0.00  0.00     0.285 S 
ATOM      2  O   UNL d   1      45.784  27.232  56.691  0.00  0.00    -0.198 OA
ATOM      3  O   UNL d   1      44.314  27.295  57.436  0.00  0.00    -0.198 OA
ENDROOT
BRANCH   1   4
ATOM      4  N   UNL d   1      45.230  28.013  57.357  0.00  0.00    -0.157 NA
BRANCH   4   5
ATOM      5  C   UNL d   1      44.629  28.497  57.655  0.00  0.00     0.112 C 
BRANCH   5   6
ATOM      6  C   UNL d   1      44.803  29.264  57.904  0.00  0.00     0.023 A 
ATOM      7  C   UNL d   1      44.697  29.906  57.385  0.00  0.00     0.022 A 
ATOM      8  C   UNL d   1      44.870  30.673  57.633  0.00  0.00     0.099 A 
ATOM      9  N   UNL d   1      45.147  30.805  58.391  0.00  0.00    -0.242 NA
ATOM     10  C   UNL d   1      45.253  30.172  58.910  0.00  0.00     0.099 A 
ATOM     11  C   UNL d   1      45.079  29.397  58.662  0.00  0.00     0.022 A 
ENDBRANCH   5   6
ENDBRANCH   4   5
ENDBRANCH   1   4
BRANCH   1  12
ATOM     12  C   UNL d   1      44.868  26.514  56.770  0.00  0.00     0.105 A 
ATOM     13  C   UNL d   1      44.612  26.428  55.990  0.00  0.00     0.015 A 
ATOM     14  C   UNL d   1      44.431  25.679  55.696  0.00  0.00     0.025 A 
ATOM     15  C   UNL d   1      44.506  25.014  56.183  0.00  0.00     0.100 A 
ATOM     16  C   UNL d   1      44.762  25.100  56.962  0.00  0.00     0.025 A 
ATOM     17  C   UNL d   1      44.943  25.849  57.256  0.00  0.00     0.015 A 
BRANCH  15  18
ATOM     18  O   UNL d   1      44.325  24.265  55.889  0.00  0.00    -0.305 OA
BRANCH  18  19
ATOM     19  C   UNL d   1      44.816  23.914  55.328  0.00  0.00     0.123 C 
ATOM     20  C   UNL d   1      44.687  23.129  55.097  0.00  0.00     0.029 C 
ENDBRANCH  18  19
ENDBRANCH  15  18
ENDBRANCH   1  12
TORSDOF 6
ENDMDL
MODEL 9
REMARK VINA RESULT:      -4.2      9.767     10.530
REMARK  6 active torsions:
REMARK  status: ('A' for Active; 'I' for Inactive)
REMARK    1  A    between atoms: N_2  and  S_1 
REMARK    2  A    between atoms: C_3  and  S_1 
REMARK    3  A    between atoms: C_9  and  N_2 
REMARK    4  A    between atoms: C_13  and  C_9 
REMARK    5  A    between atoms: O_14  and  C_10 
REMARK    6  A    between atoms: C_17  and  O_14 
ROOT
ATOM      1  S   UNL d   1      45.016  28.287  57.548  0.00  0.00     0.285 S 
ATOM      2  O   UNL d   1      45.687  28.383  58.016  0.00  0.00    -0.198 OA
ATOM      3  O   UNL d   1      44.343  28.191  57.080  0.00  0.00    -0.198 OA
ENDROOT
BRANCH   1   4
ATOM      4  N   UNL d   1      45.077  27.468  57.627  0.00  0.00    -0.157 NA
BRANCH   4   5
ATOM      5  C   UNL d   1      44.459  26.980  57.373  0.00  0.00     0.112 C 
BRANCH   5   6
ATOM      6  C   UNL d   1      44.512  26.162  57.472  0.00  0.00     0.023 A 
ATOM      7  C   UNL d   1      44.505  25.660  56.809  0.00  0.00     0.022 A 
ATOM      8  C   UNL d   1      44.558  24.843  56.907  0.00  0.00     0.099 A 
ATOM      9  N   UNL d   1      44.617  24.524  57.658  0.00  0.00    -0.242 NA
ATOM     10  C   UNL d   1      44.625  25.018  58.318  0.00  0.00     0.099 A 
ATOM     11  C   UNL d   1      44.571  25.843  58.222  0.00  0.00     0.022 A 
ENDBRANCH   5   6
ENDBRANCH   4   5
ENDBRANCH   1   4
BRANCH   1  12
ATOM     12  C   UNL d   1      44.954  29.106  57.469  0.00  0.00     0.105 A 
ATOM     13  C   UNL d   1      45.068  29.593  58.125  0.00  0.00     0.015 A 
ATOM     14  C   UNL d   1      45.006  30.411  58.046  0.00  0.00     0.025 A 
ATOM     15  C   UNL d   1      44.830  30.744  57.310  0.00  0.00     0.100 A 
ATOM     16  C   UNL d   1      44.716  30.257  56.653  0.00  0.00     0.025 A 
ATOM     17  C   UNL d   1      44.778  29.439  56.733  0.00  0.00     0.015 A 
BRANCH  15  18
ATOM     18  O   UNL d   1      44.769  31.563  57.230  0.00  0.00    -0.305 OA
BRANCH  18  19
ATOM     19  C   UNL d   1      44.347  31.884  56.598  0.00  0.00     0.123 C 
ATOM     20  C   UNL d   1      44.318  32.705  56.494  0.00  0.00     0.029 C 
ENDBRANCH  18  19
ENDBRANCH  15  18
ENDBRANCH   1  12
TORSDOF 6
ENDMDL
