MODEL 1
REMARK VINA RESULT:      30.1      0.000      0.000
REMARK  4 active torsions:
REMARK  status: ('A' for Active; 'I' for Inactive)
REMARK    1  A    between atoms: C_8  and  C_1 
REMARK    2  A    between atoms: N_7  and  C_8 
REMARK    3  A    between atoms: C_18  and  N_9 
REMARK    4  A    between atoms: C_21  and  C_18 
ROOT
ATOM      1  C   UNL d   1     -57.095 -98.827 -44.470  0.00  0.00     0.059 A 
ATOM      2  C   UNL d   1     -58.272 -98.796 -43.669  0.00  0.00     0.121 A 
ATOM      3  C   UNL d   1     -57.441 -98.815 -43.727  0.00  0.00     0.214 A 
ATOM      4  C   UNL d   1     -58.736 -98.789 -44.352  0.00  0.00     0.032 A 
ATOM      5  C   UNL d   1     -58.385 -98.801 -45.094  0.00  0.00     0.059 A 
ATOM      6  C   UNL d   1     -57.561 -98.820 -45.156  0.00  0.00     0.016 A 
ATOM      7  N   UNL d   1     -58.625 -98.783 -42.922  0.00  0.00    -0.241 NA
ATOM      8 CL   UNL d   1     -58.846 -98.794 -45.773  0.00  0.00    -0.082 Cl
ATOM      9  O   UNL d   1     -56.982 -98.822 -43.051  0.00  0.00    -0.285 OA
ATOM     10  C   UNL d   1     -59.563 -98.769 -44.278  0.00  0.00     0.004 A 
ATOM     11  C   UNL d   1     -59.449 -98.764 -42.859  0.00  0.00     0.099 A 
ATOM     12  C   UNL d   1     -59.917 -98.757 -43.548  0.00  0.00     0.021 A 
ENDROOT
BRANCH   1  13
ATOM     13  C   UNL d   1     -56.266 -98.846 -44.540  0.00  0.00     0.084 C 
BRANCH  13  14
ATOM     14  N   UNL d   1     -55.875 -99.577 -44.534  0.00  0.00    -0.300 N 
ATOM     15  C   UNL d   1     -56.078-100.149 -43.969  0.00  0.00     0.100 A 
ATOM     16  C   UNL d   1     -55.690-100.873 -43.963  0.00  0.00     0.100 A 
ATOM     17  N   UNL d   1     -55.100-101.033 -44.516  0.00  0.00    -0.297 N 
ATOM     18  C   UNL d   1     -54.897-100.461 -45.083  0.00  0.00     0.100 A 
ATOM     19  C   UNL d   1     -55.283 -99.741 -45.088  0.00  0.00     0.100 A 
BRANCH  17  20
ATOM     20  C   UNL d   1     -54.713-101.756 -44.510  0.00  0.00     0.126 C 
BRANCH  20  21
ATOM     21  C   UNL d   1     -55.134-102.455 -44.603  0.00  0.00     0.253 C 
ATOM     22  O   UNL d   1     -55.191-102.810 -45.355  0.00  0.00    -0.281 OA
ENDBRANCH  20  21
ENDBRANCH  17  20
ENDBRANCH  13  14
ENDBRANCH   1  13
TORSDOF 4
ENDMDL
MODEL 2
REMARK VINA RESULT:      30.9      1.095      1.366
REMARK  4 active torsions:
REMARK  status: ('A' for Active; 'I' for Inactive)
REMARK    1  A    between atoms: C_8  and  C_1 
REMARK    2  A    between atoms: N_7  and  C_8 
REMARK    3  A    between atoms: C_18  and  N_9 
REMARK    4  A    between atoms: C_21  and  C_18 
ROOT
ATOM      1  C   UNL d   1     -57.074 -98.842 -44.057  0.00  0.00     0.059 A 
ATOM      2  C   UNL d   1     -58.311 -98.803 -44.761  0.00  0.00     0.121 A 
ATOM      3  C   UNL d   1     -57.478 -98.826 -44.770  0.00  0.00     0.214 A 
ATOM      4  C   UNL d   1     -58.719 -98.796 -44.044  0.00  0.00     0.032 A 
ATOM      5  C   UNL d   1     -58.310 -98.812 -43.332  0.00  0.00     0.059 A 
ATOM      6  C   UNL d   1     -57.484 -98.835 -43.336  0.00  0.00     0.016 A 
ATOM      7  N   UNL d   1     -58.722 -98.786 -45.478  0.00  0.00    -0.241 NA
ATOM      8 CL   UNL d   1     -58.716 -98.805 -42.618  0.00  0.00    -0.082 Cl
ATOM      9  O   UNL d   1     -57.074 -98.833 -45.480  0.00  0.00    -0.285 OA
ATOM     10  C   UNL d   1     -59.549 -98.772 -44.051  0.00  0.00     0.004 A 
ATOM     11  C   UNL d   1     -59.549 -98.763 -45.474  0.00  0.00     0.099 A 
ATOM     12  C   UNL d   1     -59.961 -98.756 -44.750  0.00  0.00     0.021 A 
ENDROOT
BRANCH   1  13
ATOM     13  C   UNL d   1     -56.243 -98.866 -44.053  0.00  0.00     0.084 C 
BRANCH  13  14
ATOM     14  N   UNL d   1     -55.856 -99.597 -44.110  0.00  0.00    -0.300 N 
ATOM     15  C   UNL d   1     -56.170-100.260 -43.722  0.00  0.00     0.100 A 
ATOM     16  C   UNL d   1     -55.788-100.984 -43.778  0.00  0.00     0.100 A 
ATOM     17  N   UNL d   1     -55.094-101.055 -44.218  0.00  0.00    -0.297 N 
ATOM     18  C   UNL d   1     -54.779-100.392 -44.607  0.00  0.00     0.100 A 
ATOM     19  C   UNL d   1     -55.160 -99.671 -44.551  0.00  0.00     0.100 A 
BRANCH  17  20
ATOM     20  C   UNL d   1     -54.712-101.779 -44.275  0.00  0.00     0.126 C 
BRANCH  20  21
ATOM     21  C   UNL d   1     -55.128-102.454 -44.488  0.00  0.00     0.253 C 
ATOM     22  O   UNL d   1     -55.052-102.763 -45.258  0.00  0.00    -0.281 OA
ENDBRANCH  20  21
ENDBRANCH  17  20
ENDBRANCH  13  14
ENDBRANCH   1  13
TORSDOF 4
ENDMDL
