MODEL 1
REMARK VINA RESULT:      24.5      0.000      0.000
REMARK  2 active torsions:
REMARK  status: ('A' for Active; 'I' for Inactive)
REMARK    1  A    between atoms: C_6  and  N_1 
REMARK    2  A    between atoms: C_11  and  C_6 
ROOT
ATOM      1  N   UNL d   1     -51.461  25.207  33.308  0.00  0.00    -0.251 N 
ATOM      2  C   UNL d   1     -50.850  24.644  33.309  0.00  0.00     0.378 A 
ATOM      3  C   UNL d   1     -51.108  25.956  33.308  0.00  0.00     0.092 A 
ATOM      4  O   UNL d   1     -50.124  25.039  33.310  0.00  0.00    -0.258 OA
ATOM      5  C   UNL d   1     -50.282  25.858  33.309  0.00  0.00     0.121 A 
ATOM      6  O   UNL d   1     -50.959  23.828  33.310  0.00  0.00    -0.237 OA
ATOM      7  C   UNL d   1     -51.432  26.715  33.307  0.00  0.00     0.020 A 
ATOM      8  C   UNL d   1     -49.789  26.519  33.309  0.00  0.00     0.026 A 
ATOM      9  C   UNL d   1     -50.931  27.371  33.307  0.00  0.00     0.002 A 
ATOM     10  C   UNL d   1     -50.114  27.274  33.309  0.00  0.00     0.002 A 
ATOM     11  C   UNL d   1     -51.263  28.135  33.307  0.00  0.00     0.000 C 
ENDROOT
BRANCH   1  12
ATOM     12  C   UNL d   1     -52.279  25.091  33.307  0.00  0.00     0.085 C 
BRANCH  12  13
ATOM     13  C   UNL d   1     -52.604  24.466  33.732  0.00  0.00     0.018 A 
ATOM     14  C   UNL d   1     -52.477  24.412  34.541  0.00  0.00     0.002 A 
ATOM     15  C   UNL d   1     -52.807  23.781  34.963  0.00  0.00     0.000 A 
ATOM     16  C   UNL d   1     -53.258  23.212  34.569  0.00  0.00     0.000 A 
ATOM     17  C   UNL d   1     -53.381  23.273  33.758  0.00  0.00     0.000 A 
ATOM     18  C   UNL d   1     -53.054  23.900  33.335  0.00  0.00     0.002 A 
ENDBRANCH  12  13
ENDBRANCH   1  12
TORSDOF 2
ENDMDL
MODEL 2
REMARK VINA RESULT:      26.4      0.893      3.421
REMARK  2 active torsions:
REMARK  status: ('A' for Active; 'I' for Inactive)
REMARK    1  A    between atoms: C_6  and  N_1 
REMARK    2  A    between atoms: C_11  and  C_6 
ROOT
ATOM      1  N   UNL d   1     -51.021  25.193  33.306  0.00  0.00    -0.251 N 
ATOM      2  C   UNL d   1     -50.291  24.796  33.307  0.00  0.00     0.378 A 
ATOM      3  C   UNL d   1     -51.617  24.618  33.307  0.00  0.00     0.092 A 
ATOM      4  O   UNL d   1     -50.431  23.981  33.307  0.00  0.00    -0.258 OA
ATOM      5  C   UNL d   1     -51.258  23.867  33.307  0.00  0.00     0.121 A 
ATOM      6  O   UNL d   1     -49.553  25.162  33.306  0.00  0.00    -0.237 OA
ATOM      7  C   UNL d   1     -52.439  24.680  33.307  0.00  0.00     0.020 A 
ATOM      8  C   UNL d   1     -51.725  23.188  33.308  0.00  0.00     0.026 A 
ATOM      9  C   UNL d   1     -52.899  23.994  33.307  0.00  0.00     0.002 A 
ATOM     10  C   UNL d   1     -52.544  23.252  33.308  0.00  0.00     0.002 A 
ATOM     11  C   UNL d   1     -53.729  24.063  33.307  0.00  0.00     0.000 C 
ENDROOT
BRANCH   1  12
ATOM     12  C   UNL d   1     -51.174  26.005  33.306  0.00  0.00     0.085 C 
BRANCH  12  13
ATOM     13  C   UNL d   1     -50.696  26.511  33.742  0.00  0.00     0.018 A 
ATOM     14  C   UNL d   1     -50.159  26.999  33.357  0.00  0.00     0.002 A 
ATOM     15  C   UNL d   1     -49.680  27.507  33.802  0.00  0.00     0.000 A 
ATOM     16  C   UNL d   1     -49.744  27.520  34.625  0.00  0.00     0.000 A 
ATOM     17  C   UNL d   1     -50.285  27.028  35.004  0.00  0.00     0.000 A 
ATOM     18  C   UNL d   1     -50.763  26.522  34.564  0.00  0.00     0.002 A 
ENDBRANCH  12  13
ENDBRANCH   1  12
TORSDOF 2
ENDMDL
