MODEL 1
REMARK VINA RESULT:     116.2      0.000      0.000
REMARK  5 active torsions:
REMARK  status: ('A' for Active; 'I' for Inactive)
REMARK    1  A    between atoms: N_3  and  S_1 
REMARK    2  A    between atoms: C_13  and  S_1 
REMARK    3  A    between atoms: C_2  and  N_3 
REMARK    4  A    between atoms: N_9  and  C_4 
REMARK       I    between atoms: C_8  and  N_10 
REMARK    5  A    between atoms: C_19  and  C_8 
ROOT
ATOM      1  C   UNL d   1     -48.015  29.792  34.687  0.00  0.00     0.110 A 
ATOM      2  C   UNL d   1     -48.664  29.011  34.998  0.00  0.00     0.083 A 
ATOM      3  C   UNL d   1     -47.646  29.992  35.392  0.00  0.00     0.020 A 
ATOM      4  C   UNL d   1     -48.513  28.948  35.807  0.00  0.00     0.018 A 
ATOM      5  C   UNL d   1     -47.939  29.514  35.980  0.00  0.00     0.003 A 
ATOM      6  C   UNL d   1     -47.662  29.597  36.753  0.00  0.00     0.000 A 
ATOM      7  C   UNL d   1     -47.068  30.567  35.552  0.00  0.00     0.002 A 
ATOM      8  C   UNL d   1     -48.805  28.472  36.395  0.00  0.00     0.002 A 
ATOM      9  C   UNL d   1     -46.797  30.639  36.338  0.00  0.00     0.000 A 
ATOM     10  C   UNL d   1     -48.535  28.542  37.184  0.00  0.00     0.000 A 
ATOM     11  C   UNL d   1     -47.092  30.158  36.933  0.00  0.00     0.000 A 
ATOM     12  C   UNL d   1     -47.958  29.115  37.347  0.00  0.00     0.000 A 
ENDROOT
BRANCH   2  13
ATOM     13  N   UNL d   1     -49.216  28.516  34.651  0.00  0.00    -0.300 N 
ATOM     14  C   UNL d   1     -49.937  28.825  34.399  0.00  0.00     0.100 A 
ATOM     15  C   UNL d   1     -50.466  28.337  34.064  0.00  0.00     0.102 A 
ATOM     16  N   UNL d   1     -50.330  27.509  33.949  0.00  0.00    -0.269 N 
ATOM     17  C   UNL d   1     -50.876  26.999  33.601  0.00  0.00     0.265 C 
ATOM     18  C   UNL d   1     -49.616  27.205  34.198  0.00  0.00     0.102 A 
ATOM     19  O   UNL d   1     -51.617  27.253  33.328  0.00  0.00    -0.267 OA
ATOM     20  C   UNL d   1     -49.031  27.733  34.567  0.00  0.00     0.100 A 
BRANCH  17  21
ATOM     21  C   UNL d   1     -50.675  26.209  33.522  0.00  0.00     0.057 A 
ATOM     22  C   UNL d   1     -49.885  25.974  33.398  0.00  0.00     0.005 A 
ATOM     23  C   UNL d   1     -49.688  25.171  33.319  0.00  0.00     0.000 A 
ATOM     24  C   UNL d   1     -50.286  24.590  33.364  0.00  0.00     0.000 A 
ATOM     25  C   UNL d   1     -51.070  24.826  33.488  0.00  0.00     0.000 A 
ATOM     26  C   UNL d   1     -51.261  25.629  33.566  0.00  0.00     0.005 A 
ENDBRANCH  17  21
ENDBRANCH   2  13
BRANCH   1  27
ATOM     27  N   UNL d   1     -47.840  30.174  33.989  0.00  0.00    -0.157 NA
BRANCH  27  28
ATOM     28  S   UNL d   1     -47.935  30.988  33.908  0.00  0.00     0.285 S 
ATOM     29  O   UNL d   1     -48.697  30.861  33.623  0.00  0.00    -0.198 OA
ATOM     30  O   UNL d   1     -47.176  31.107  34.191  0.00  0.00    -0.198 OA
BRANCH  28  31
ATOM     31  C   UNL d   1     -48.034  31.794  33.825  0.00  0.00     0.105 A 
ATOM     32  C   UNL d   1     -47.377  32.297  33.789  0.00  0.00     0.013 A 
ATOM     33  C   UNL d   1     -47.482  33.104  33.706  0.00  0.00     0.001 A 
ATOM     34  C   UNL d   1     -48.232  33.419  33.657  0.00  0.00     0.000 A 
ATOM     35  C   UNL d   1     -48.910  32.922  33.692  0.00  0.00     0.001 A 
ATOM     36  C   UNL d   1     -48.789  32.111  33.776  0.00  0.00     0.013 A 
ENDBRANCH  28  31
ENDBRANCH  27  28
ENDBRANCH   1  27
TORSDOF 5
ENDMDL
MODEL 2
REMARK VINA RESULT:     118.2      0.862      1.283
REMARK  5 active torsions:
REMARK  status: ('A' for Active; 'I' for Inactive)
REMARK    1  A    between atoms: N_3  and  S_1 
REMARK    2  A    between atoms: C_13  and  S_1 
REMARK    3  A    between atoms: C_2  and  N_3 
REMARK    4  A    between atoms: N_9  and  C_4 
REMARK       I    between atoms: C_8  and  N_10 
REMARK    5  A    between atoms: C_19  and  C_8 
ROOT
ATOM      1  C   UNL d   1     -47.579  30.206  34.793  0.00  0.00     0.110 A 
ATOM      2  C   UNL d   1     -48.000  29.287  35.122  0.00  0.00     0.083 A 
ATOM      3  C   UNL d   1     -47.308  30.526  35.498  0.00  0.00     0.020 A 
ATOM      4  C   UNL d   1     -47.870  29.300  35.937  0.00  0.00     0.018 A 
ATOM      5  C   UNL d   1     -47.482  30.009  36.099  0.00  0.00     0.003 A 
ATOM      6  C   UNL d   1     -47.271  30.193  36.875  0.00  0.00     0.000 A 
ATOM      7  C   UNL d   1     -46.918  31.244  35.647  0.00  0.00     0.002 A 
ATOM      8  C   UNL d   1     -48.044  28.784  36.538  0.00  0.00     0.002 A 
ATOM      9  C   UNL d   1     -46.710  31.418  36.436  0.00  0.00     0.000 A 
ATOM     10  C   UNL d   1     -47.836  28.955  37.330  0.00  0.00     0.000 A 
ATOM     11  C   UNL d   1     -46.885  30.897  37.044  0.00  0.00     0.000 A 
ATOM     12  C   UNL d   1     -47.446  29.672  37.483  0.00  0.00     0.000 A 
ENDROOT
BRANCH   2  13
ATOM     13  N   UNL d   1     -48.379  28.647  34.783  0.00  0.00    -0.300 N 
ATOM     14  C   UNL d   1     -47.948  27.968  34.603  0.00  0.00     0.100 A 
ATOM     15  C   UNL d   1     -48.325  27.351  34.274  0.00  0.00     0.102 A 
ATOM     16  N   UNL d   1     -49.153  27.352  34.096  0.00  0.00    -0.269 N 
ATOM     17  C   UNL d   1     -49.549  26.714  33.754  0.00  0.00     0.265 C 
ATOM     18  C   UNL d   1     -49.578  28.024  34.274  0.00  0.00     0.102 A 
ATOM     19  O   UNL d   1     -49.167  26.005  33.552  0.00  0.00    -0.267 OA
ATOM     20  C   UNL d   1     -49.172  28.705  34.635  0.00  0.00     0.100 A 
BRANCH  17  21
ATOM     21  C   UNL d   1     -50.351  26.786  33.610  0.00  0.00     0.057 A 
ATOM     22  C   UNL d   1     -50.845  26.116  33.568  0.00  0.00     0.005 A 
ATOM     23  C   UNL d   1     -51.658  26.196  33.422  0.00  0.00     0.000 A 
ATOM     24  C   UNL d   1     -51.989  26.956  33.314  0.00  0.00     0.000 A 
ATOM     25  C   UNL d   1     -51.496  27.620  33.356  0.00  0.00     0.000 A 
ATOM     26  C   UNL d   1     -50.684  27.533  33.503  0.00  0.00     0.005 A 
ENDBRANCH  17  21
ENDBRANCH   2  13
BRANCH   1  27
ATOM     27  N   UNL d   1     -47.487  30.595  34.083  0.00  0.00    -0.157 NA
BRANCH  27  28
ATOM     28  S   UNL d   1     -47.811  31.340  33.955  0.00  0.00     0.285 S 
ATOM     29  O   UNL d   1     -48.539  30.987  33.798  0.00  0.00    -0.198 OA
ATOM     30  O   UNL d   1     -47.086  31.685  34.112  0.00  0.00    -0.198 OA
BRANCH  28  31
ATOM     31  C   UNL d   1     -48.138  32.078  33.827  0.00  0.00     0.105 A 
ATOM     32  C   UNL d   1     -47.674  32.760  33.888  0.00  0.00     0.013 A 
ATOM     33  C   UNL d   1     -48.006  33.497  33.759  0.00  0.00     0.001 A 
ATOM     34  C   UNL d   1     -48.796  33.564  33.569  0.00  0.00     0.000 A 
ATOM     35  C   UNL d   1     -49.282  32.881  33.503  0.00  0.00     0.001 A 
ATOM     36  C   UNL d   1     -48.933  32.145  33.636  0.00  0.00     0.013 A 
ENDBRANCH  28  31
ENDBRANCH  27  28
ENDBRANCH   1  27
TORSDOF 5
ENDMDL
