MODEL 1
REMARK VINA RESULT:      -2.3      0.000      0.000
REMARK  5 active torsions:
REMARK  status: ('A' for Active; 'I' for Inactive)
REMARK    1  A    between atoms: C_5  and  N_1 
REMARK    2  A    between atoms: C_6  and  C_5 
REMARK       I    between atoms: N_9  and  C_6 
REMARK    3  A    between atoms: C_13  and  N_9 
REMARK    4  A    between atoms: O_19  and  C_14 
REMARK    5  A    between atoms: C_21  and  O_19 
ROOT
ATOM      1  C   UNL d   1     -42.187-122.076 -51.336  0.00  0.00     0.297 C 
ATOM      2  N   UNL d   1     -41.569-121.826 -51.822  0.00  0.00    -0.207 NA
ATOM      3  O   UNL d   1     -42.822-122.493 -51.659  0.00  0.00    -0.264 OA
ENDROOT
BRANCH   1   4
ATOM      4  C   UNL d   1     -42.171-121.913 -50.532  0.00  0.00     0.148 C 
BRANCH   4   5
ATOM      5  N   UNL d   1     -42.464-122.463 -49.992  0.00  0.00    -0.235 N 
ATOM      6  C   UNL d   1     -41.937-122.864 -49.485  0.00  0.00     0.273 A 
ATOM      7  C   UNL d   1     -42.230-123.414 -48.944  0.00  0.00     0.086 A 
ATOM      8  O   UNL d   1     -41.123-122.706 -49.528  0.00  0.00    -0.266 OA
ATOM      9  C   UNL d   1     -41.713-123.816 -48.438  0.00  0.00     0.012 C 
ATOM     10  S   UNL d   1     -43.049-123.565 -48.910  0.00  0.00    -0.077 SA
ATOM     11  C   UNL d   1     -43.558-123.167 -49.411  0.00  0.00     0.097 A 
ATOM     12  C   UNL d   1     -43.266-122.616 -49.952  0.00  0.00     0.274 A 
ATOM     13  O   UNL d   1     -43.789-122.209 -50.464  0.00  0.00    -0.266 OA
ENDBRANCH   4   5
ENDBRANCH   1   4
BRANCH   2  14
ATOM     14  C   UNL d   1     -41.587-121.991 -52.630  0.00  0.00     0.085 A 
ATOM     15  C   UNL d   1     -41.329-122.715 -52.904  0.00  0.00     0.021 A 
ATOM     16  C   UNL d   1     -41.343-122.887 -53.695  0.00  0.00     0.026 A 
ATOM     17  C   UNL d   1     -41.624-122.318 -54.236  0.00  0.00     0.100 A 
ATOM     18  C   UNL d   1     -41.883-121.594 -53.962  0.00  0.00     0.026 A 
ATOM     19  C   UNL d   1     -41.863-121.431 -53.146  0.00  0.00     0.021 A 
BRANCH  17  20
ATOM     20  O   UNL d   1     -41.639-122.496 -55.054  0.00  0.00    -0.305 OA
BRANCH  20  21
ATOM     21  C   UNL d   1     -42.316-122.354 -55.503  0.00  0.00     0.123 C 
ATOM     22  C   UNL d   1     -42.269-121.904 -56.188  0.00  0.00     0.029 C 
ENDBRANCH  20  21
ENDBRANCH  17  20
ENDBRANCH   2  14
TORSDOF 5
ENDMDL
