MODEL 1
REMARK VINA RESULT:      -9.5      0.000      0.000
REMARK  6 active torsions:
REMARK  status: ('A' for Active; 'I' for Inactive)
REMARK    1  A    between atoms: C_2  and  S_1 
REMARK    2  A    between atoms: N_3  and  S_1 
REMARK    3  A    between atoms: C_9  and  N_3 
REMARK    4  A    between atoms: C_13  and  C_7 
REMARK    5  A    between atoms: O_14  and  C_8 
REMARK    6  A    between atoms: C_20  and  O_14 
ROOT
ATOM      1  C   UNL d   1      53.086  32.875  53.501  0.00  0.00     0.128 A 
ATOM      2  C   UNL d   1      53.698  32.858  54.056  0.00  0.00     0.015 A 
ATOM      3  C   UNL d   1      53.909  33.546  54.461  0.00  0.00     0.001 A 
ATOM      4  C   UNL d   1      52.692  33.580  53.355  0.00  0.00     0.112 A 
ATOM      5  C   UNL d   1      53.508  34.251  54.308  0.00  0.00     0.002 A 
ATOM      6  C   UNL d   1      52.897  34.268  53.753  0.00  0.00     0.025 A 
ENDROOT
BRANCH   1   7
ATOM      7  S   UNL d   1      52.882  32.187  53.103  0.00  0.00     0.287 S 
ATOM      8  O   UNL d   1      52.243  32.076  53.600  0.00  0.00    -0.198 OA
ATOM      9  O   UNL d   1      53.525  32.295  52.599  0.00  0.00    -0.198 OA
BRANCH   7  10
ATOM     10  N   UNL d   1      52.682  31.496  52.698  0.00  0.00    -0.157 NA
BRANCH  10  11
ATOM     11  C   UNL d   1      52.798  30.762  53.057  0.00  0.00     0.113 A 
ATOM     12  C   UNL d   1      52.159  30.337  53.340  0.00  0.00     0.119 A 
ATOM     13  N   UNL d   1      52.276  29.604  53.698  0.00  0.00    -0.241 NA
ATOM     14  C   UNL d   1      53.044  29.293  53.773  0.00  0.00     0.099 A 
ATOM     15  C   UNL d   1      53.686  29.728  53.485  0.00  0.00     0.022 A 
ATOM     16  C   UNL d   1      53.568  30.462  53.126  0.00  0.00     0.023 A 
ENDBRANCH  10  11
ENDBRANCH   7  10
ENDBRANCH   1   7
BRANCH   4  17
ATOM     17  O   UNL d   1      52.080  33.597  52.799  0.00  0.00    -0.304 OA
BRANCH  17  18
ATOM     18  C   UNL d   1      51.678  34.301  52.648  0.00  0.00     0.123 C 
ATOM     19  C   UNL d   1      51.045  34.311  52.117  0.00  0.00     0.029 C 
ENDBRANCH  17  18
ENDBRANCH   4  17
BRANCH   3  20
ATOM     20  C   UNL d   1      54.521  33.529  55.017  0.00  0.00     0.000 C 
ATOM     21  C   UNL d   1      54.412  33.148  55.740  0.00  0.00     0.000 C 
ATOM     22  C   UNL d   1      55.247  33.896  54.843  0.00  0.00     0.000 C 
ENDBRANCH   3  20
TORSDOF 6
ENDMDL
MODEL 2
REMARK VINA RESULT:      -8.9      0.907      2.404
REMARK  6 active torsions:
REMARK  status: ('A' for Active; 'I' for Inactive)
REMARK    1  A    between atoms: C_2  and  S_1 
REMARK    2  A    between atoms: N_3  and  S_1 
REMARK    3  A    between atoms: C_9  and  N_3 
REMARK    4  A    between atoms: C_13  and  C_7 
REMARK    5  A    between atoms: O_14  and  C_8 
REMARK    6  A    between atoms: C_20  and  O_14 
ROOT
ATOM      1  C   UNL d   1      53.226  32.895  53.706  0.00  0.00     0.128 A 
ATOM      2  C   UNL d   1      52.515  33.014  53.303  0.00  0.00     0.015 A 
ATOM      3  C   UNL d   1      52.144  33.751  53.325  0.00  0.00     0.001 A 
ATOM      4  C   UNL d   1      53.560  33.514  54.128  0.00  0.00     0.112 A 
ATOM      5  C   UNL d   1      52.487  34.369  53.751  0.00  0.00     0.002 A 
ATOM      6  C   UNL d   1      53.198  34.250  54.155  0.00  0.00     0.025 A 
ENDROOT
BRANCH   1   7
ATOM      7  S   UNL d   1      53.588  32.159  53.680  0.00  0.00     0.287 S 
ATOM      8  O   UNL d   1      53.285  31.970  54.414  0.00  0.00    -0.198 OA
ATOM      9  O   UNL d   1      53.896  32.345  52.937  0.00  0.00    -0.198 OA
BRANCH   7  10
ATOM     10  N   UNL d   1      53.956  31.421  53.646  0.00  0.00    -0.157 NA
BRANCH  10  11
ATOM     11  C   UNL d   1      53.499  30.740  53.549  0.00  0.00     0.113 A 
ATOM     12  C   UNL d   1      53.350  30.252  54.188  0.00  0.00     0.119 A 
ATOM     13  N   UNL d   1      52.894  29.571  54.090  0.00  0.00    -0.241 NA
ATOM     14  C   UNL d   1      52.585  29.379  53.342  0.00  0.00     0.099 A 
ATOM     15  C   UNL d   1      52.740  29.877  52.701  0.00  0.00     0.022 A 
ATOM     16  C   UNL d   1      53.196  30.557  52.799  0.00  0.00     0.023 A 
ENDBRANCH  10  11
ENDBRANCH   7  10
ENDBRANCH   1   7
BRANCH   4  17
ATOM     17  O   UNL d   1      54.272  33.395  54.532  0.00  0.00    -0.304 OA
BRANCH  17  18
ATOM     18  C   UNL d   1      54.593  34.001  54.991  0.00  0.00     0.123 C 
ATOM     19  C   UNL d   1      55.346  33.916  55.321  0.00  0.00     0.029 C 
ENDBRANCH  17  18
ENDBRANCH   4  17
BRANCH   3  20
ATOM     20  C   UNL d   1      51.432  33.870  52.921  0.00  0.00     0.000 C 
ATOM     21  C   UNL d   1      50.720  33.626  53.259  0.00  0.00     0.000 C 
ATOM     22  C   UNL d   1      51.437  34.236  52.174  0.00  0.00     0.000 C 
ENDBRANCH   3  20
TORSDOF 6
ENDMDL
MODEL 3
REMARK VINA RESULT:      -8.9      1.459      3.654
REMARK  6 active torsions:
REMARK  status: ('A' for Active; 'I' for Inactive)
REMARK    1  A    between atoms: C_2  and  S_1 
REMARK    2  A    between atoms: N_3  and  S_1 
REMARK    3  A    between atoms: C_9  and  N_3 
REMARK    4  A    between atoms: C_13  and  C_7 
REMARK    5  A    between atoms: O_14  and  C_8 
REMARK    6  A    between atoms: C_20  and  O_14 
ROOT
ATOM      1  C   UNL d   1      53.156  32.745  53.638  0.00  0.00     0.128 A 
ATOM      2  C   UNL d   1      52.857  32.055  53.295  0.00  0.00     0.015 A 
ATOM      3  C   UNL d   1      53.218  31.328  53.444  0.00  0.00     0.001 A 
ATOM      4  C   UNL d   1      53.813  32.701  54.128  0.00  0.00     0.112 A 
ATOM      5  C   UNL d   1      53.879  31.292  53.938  0.00  0.00     0.002 A 
ATOM      6  C   UNL d   1      54.178  31.982  54.281  0.00  0.00     0.025 A 
ENDROOT
BRANCH   1   7
ATOM      7  S   UNL d   1      52.792  33.464  53.485  0.00  0.00     0.287 S 
ATOM      8  O   UNL d   1      52.309  33.372  54.137  0.00  0.00    -0.198 OA
ATOM      9  O   UNL d   1      53.277  33.561  52.825  0.00  0.00    -0.198 OA
BRANCH   7  10
ATOM     10  N   UNL d   1      52.430  34.188  53.324  0.00  0.00    -0.157 NA
BRANCH  10  11
ATOM     11  C   UNL d   1      51.725  34.209  52.896  0.00  0.00     0.113 A 
ATOM     12  C   UNL d   1      51.742  34.224  52.078  0.00  0.00     0.119 A 
ATOM     13  N   UNL d   1      51.036  34.244  51.651  0.00  0.00    -0.241 NA
ATOM     14  C   UNL d   1      50.306  34.249  52.050  0.00  0.00     0.099 A 
ATOM     15  C   UNL d   1      50.297  34.234  52.876  0.00  0.00     0.022 A 
ATOM     16  C   UNL d   1      51.003  34.214  53.304  0.00  0.00     0.023 A 
ENDBRANCH  10  11
ENDBRANCH   7  10
ENDBRANCH   1   7
BRANCH   4  17
ATOM     17  O   UNL d   1      54.113  33.391  54.471  0.00  0.00    -0.304 OA
BRANCH  17  18
ATOM     18  C   UNL d   1      54.742  33.349  55.003  0.00  0.00     0.123 C 
ATOM     19  C   UNL d   1      55.121  34.040  55.252  0.00  0.00     0.029 C 
ENDBRANCH  17  18
ENDBRANCH   4  17
BRANCH   3  20
ATOM     20  C   UNL d   1      52.919  30.638  53.100  0.00  0.00     0.000 C 
ATOM     21  C   UNL d   1      52.958  30.533  52.283  0.00  0.00     0.000 C 
ATOM     22  C   UNL d   1      52.579  30.051  53.582  0.00  0.00     0.000 C 
ENDBRANCH   3  20
TORSDOF 6
ENDMDL
MODEL 4
REMARK VINA RESULT:      -8.5      1.121      3.062
REMARK  6 active torsions:
REMARK  status: ('A' for Active; 'I' for Inactive)
REMARK    1  A    between atoms: C_2  and  S_1 
REMARK    2  A    between atoms: N_3  and  S_1 
REMARK    3  A    between atoms: C_9  and  N_3 
REMARK    4  A    between atoms: C_13  and  C_7 
REMARK    5  A    between atoms: O_14  and  C_8 
REMARK    6  A    between atoms: C_20  and  O_14 
ROOT
ATOM      1  C   UNL d   1      53.131  32.514  53.602  0.00  0.00     0.128 A 
ATOM      2  C   UNL d   1      53.431  33.176  53.994  0.00  0.00     0.015 A 
ATOM      3  C   UNL d   1      54.040  33.092  54.544  0.00  0.00     0.001 A 
ATOM      4  C   UNL d   1      53.443  31.772  53.765  0.00  0.00     0.112 A 
ATOM      5  C   UNL d   1      54.349  32.343  54.702  0.00  0.00     0.002 A 
ATOM      6  C   UNL d   1      54.049  31.680  54.311  0.00  0.00     0.025 A 
ENDROOT
BRANCH   1   7
ATOM      7  S   UNL d   1      52.525  32.605  53.056  0.00  0.00     0.287 S 
ATOM      8  O   UNL d   1      51.971  32.388  53.617  0.00  0.00    -0.198 OA
ATOM      9  O   UNL d   1      53.080  32.826  52.488  0.00  0.00    -0.198 OA
BRANCH   7  10
ATOM     10  N   UNL d   1      51.921  32.700  52.502  0.00  0.00    -0.157 NA
BRANCH  10  11
ATOM     11  C   UNL d   1      51.389  33.327  52.578  0.00  0.00     0.113 A 
ATOM     12  C   UNL d   1      50.753  33.266  53.089  0.00  0.00     0.119 A 
ATOM     13  N   UNL d   1      50.222  33.892  53.164  0.00  0.00    -0.241 NA
ATOM     14  C   UNL d   1      50.331  34.588  52.721  0.00  0.00     0.099 A 
ATOM     15  C   UNL d   1      50.976  34.642  52.206  0.00  0.00     0.022 A 
ATOM     16  C   UNL d   1      51.507  34.015  52.131  0.00  0.00     0.023 A 
ENDBRANCH  10  11
ENDBRANCH   7  10
ENDBRANCH   1   7
BRANCH   4  17
ATOM     17  O   UNL d   1      53.143  31.108  53.373  0.00  0.00    -0.304 OA
BRANCH  17  18
ATOM     18  C   UNL d   1      53.445  30.359  53.538  0.00  0.00     0.123 C 
ATOM     19  C   UNL d   1      53.068  29.685  53.241  0.00  0.00     0.029 C 
ENDBRANCH  17  18
ENDBRANCH   4  17
BRANCH   3  20
ATOM     20  C   UNL d   1      54.340  33.755  54.936  0.00  0.00     0.000 C 
ATOM     21  C   UNL d   1      53.827  34.341  55.209  0.00  0.00     0.000 C 
ATOM     22  C   UNL d   1      55.160  33.830  55.053  0.00  0.00     0.000 C 
ENDBRANCH   3  20
TORSDOF 6
ENDMDL
MODEL 5
REMARK VINA RESULT:      -7.9      1.390      3.540
REMARK  6 active torsions:
REMARK  status: ('A' for Active; 'I' for Inactive)
REMARK    1  A    between atoms: C_2  and  S_1 
REMARK    2  A    between atoms: N_3  and  S_1 
REMARK    3  A    between atoms: C_9  and  N_3 
REMARK    4  A    between atoms: C_13  and  C_7 
REMARK    5  A    between atoms: O_14  and  C_8 
REMARK    6  A    between atoms: C_20  and  O_14 
ROOT
ATOM      1  C   UNL d   1      52.993  32.449  53.409  0.00  0.00     0.128 A 
ATOM      2  C   UNL d   1      52.629  33.183  53.298  0.00  0.00     0.015 A 
ATOM      3  C   UNL d   1      51.906  33.231  52.902  0.00  0.00     0.001 A 
ATOM      4  C   UNL d   1      52.631  31.770  53.123  0.00  0.00     0.112 A 
ATOM      5  C   UNL d   1      51.548  32.544  52.617  0.00  0.00     0.002 A 
ATOM      6  C   UNL d   1      51.912  31.811  52.728  0.00  0.00     0.025 A 
ENDROOT
BRANCH   1   7
ATOM      7  S   UNL d   1      53.712  32.409  53.803  0.00  0.00     0.287 S 
ATOM      8  O   UNL d   1      53.330  32.238  54.505  0.00  0.00    -0.198 OA
ATOM      9  O   UNL d   1      54.101  32.582  53.097  0.00  0.00    -0.198 OA
BRANCH   7  10
ATOM     10  N   UNL d   1      54.438  32.370  54.193  0.00  0.00    -0.157 NA
BRANCH  10  11
ATOM     11  C   UNL d   1      54.692  33.009  54.651  0.00  0.00     0.113 A 
ATOM     12  C   UNL d   1      55.189  33.573  54.328  0.00  0.00     0.119 A 
ATOM     13  N   UNL d   1      55.443  34.210  54.785  0.00  0.00    -0.241 NA
ATOM     14  C   UNL d   1      55.195  34.282  55.576  0.00  0.00     0.099 A 
ATOM     15  C   UNL d   1      54.693  33.708  55.896  0.00  0.00     0.022 A 
ATOM     16  C   UNL d   1      54.439  33.071  55.438  0.00  0.00     0.023 A 
ENDBRANCH  10  11
ENDBRANCH   7  10
ENDBRANCH   1   7
BRANCH   4  17
ATOM     17  O   UNL d   1      52.995  31.036  53.233  0.00  0.00    -0.304 OA
BRANCH  17  18
ATOM     18  C   UNL d   1      52.643  30.352  52.937  0.00  0.00     0.123 C 
ATOM     19  C   UNL d   1      52.939  29.609  53.149  0.00  0.00     0.029 C 
ENDBRANCH  17  18
ENDBRANCH   4  17
BRANCH   3  20
ATOM     20  C   UNL d   1      51.542  33.965  52.792  0.00  0.00     0.000 C 
ATOM     21  C   UNL d   1      50.935  34.205  53.296  0.00  0.00     0.000 C 
ATOM     22  C   UNL d   1      51.790  34.460  52.171  0.00  0.00     0.000 C 
ENDBRANCH   3  20
TORSDOF 6
ENDMDL
MODEL 6
REMARK VINA RESULT:      -7.2      1.467      3.211
REMARK  6 active torsions:
REMARK  status: ('A' for Active; 'I' for Inactive)
REMARK    1  A    between atoms: C_2  and  S_1 
REMARK    2  A    between atoms: N_3  and  S_1 
REMARK    3  A    between atoms: C_9  and  N_3 
REMARK    4  A    between atoms: C_13  and  C_7 
REMARK    5  A    between atoms: O_14  and  C_8 
REMARK    6  A    between atoms: C_20  and  O_14 
ROOT
ATOM      1  C   UNL d   1      52.786  32.644  53.417  0.00  0.00     0.128 A 
ATOM      2  C   UNL d   1      53.165  31.912  53.464  0.00  0.00     0.015 A 
ATOM      3  C   UNL d   1      52.777  31.227  53.215  0.00  0.00     0.001 A 
ATOM      4  C   UNL d   1      52.022  32.686  53.121  0.00  0.00     0.112 A 
ATOM      5  C   UNL d   1      52.008  31.277  52.919  0.00  0.00     0.002 A 
ATOM      6  C   UNL d   1      51.629  32.010  52.871  0.00  0.00     0.025 A 
ENDROOT
BRANCH   1   7
ATOM      7  S   UNL d   1      53.179  33.320  53.667  0.00  0.00     0.287 S 
ATOM      8  O   UNL d   1      52.791  33.294  54.385  0.00  0.00    -0.198 OA
ATOM      9  O   UNL d   1      53.572  33.351  52.942  0.00  0.00    -0.198 OA
BRANCH   7  10
ATOM     10  N   UNL d   1      53.577  34.001  53.911  0.00  0.00    -0.157 NA
BRANCH  10  11
ATOM     11  C   UNL d   1      54.198  33.940  54.451  0.00  0.00     0.113 A 
ATOM     12  C   UNL d   1      54.051  34.003  55.254  0.00  0.00     0.119 A 
ATOM     13  N   UNL d   1      54.672  33.942  55.793  0.00  0.00    -0.241 NA
ATOM     14  C   UNL d   1      55.449  33.818  55.525  0.00  0.00     0.099 A 
ATOM     15  C   UNL d   1      55.590  33.757  54.712  0.00  0.00     0.022 A 
ATOM     16  C   UNL d   1      54.969  33.817  54.172  0.00  0.00     0.023 A 
ENDBRANCH  10  11
ENDBRANCH   7  10
ENDBRANCH   1   7
BRANCH   4  17
ATOM     17  O   UNL d   1      51.642  33.419  53.073  0.00  0.00    -0.304 OA
BRANCH  17  18
ATOM     18  C   UNL d   1      50.853  33.461  52.838  0.00  0.00     0.123 C 
ATOM     19  C   UNL d   1      50.485  34.197  52.749  0.00  0.00     0.029 C 
ENDBRANCH  17  18
ENDBRANCH   4  17
BRANCH   3  20
ATOM     20  C   UNL d   1      53.156  30.494  53.263  0.00  0.00     0.000 C 
ATOM     21  C   UNL d   1      53.194  30.095  53.983  0.00  0.00     0.000 C 
ATOM     22  C   UNL d   1      53.499  30.162  52.582  0.00  0.00     0.000 C 
ENDBRANCH   3  20
TORSDOF 6
ENDMDL
