MODEL 1
REMARK VINA RESULT:       6.5      0.000      0.000
REMARK  7 active torsions:
REMARK  status: ('A' for Active; 'I' for Inactive)
REMARK    1  A    between atoms: S_2  and  C_1 
REMARK    2  A    between atoms: N_14  and  S_2 
REMARK    3  A    between atoms: C_9  and  C_18 
REMARK       I    between atoms: N_17  and  C_9 
REMARK    4  A    between atoms: C_13  and  C_23 
REMARK    5  A    between atoms: C_24  and  N_14 
REMARK    6  A    between atoms: C_23  and  N_17 
REMARK    7  A    between atoms: C_18  and  C_24 
ROOT
ATOM      1  S   UNL d   1      46.399 -18.239  44.127  0.00  0.00     0.287 S 
ATOM      2  O   UNL d   1      46.167 -18.709  44.765  0.00  0.00    -0.198 OA
ATOM      3  O   UNL d   1      46.630 -17.769  43.489  0.00  0.00    -0.198 OA
ENDROOT
BRANCH   1   4
ATOM      4  C   UNL d   1      46.401 -18.901  43.640  0.00  0.00     0.127 A 
ATOM      5  C   UNL d   1      46.486 -18.815  42.825  0.00  0.00     0.142 A 
ATOM      6  C   UNL d   1      46.488 -19.480  42.336  0.00  0.00     0.131 A 
ATOM      7  N   UNL d   1      46.578 -18.153  42.349  0.00  0.00    -0.101 NA
ATOM      8  N   UNL d   1      46.581 -19.226  41.559  0.00  0.00    -0.102 NA
ATOM      9  C   UNL d   1      46.405 -20.231  42.662  0.00  0.00     0.023 A 
ATOM     10  O   UNL d   1      46.637 -18.402  41.566  0.00  0.00    -0.106 OA
ATOM     11  C   UNL d   1      46.318 -20.324  43.483  0.00  0.00     0.002 A 
ATOM     12  C   UNL d   1      46.316 -19.660  43.972  0.00  0.00     0.015 A 
ENDBRANCH   1   4
BRANCH   1  13
ATOM     13  N   UNL d   1      46.396 -17.571  44.618  0.00  0.00    -0.157 NA
BRANCH  13  14
ATOM     14  C   UNL d   1      45.884 -16.944  44.463  0.00  0.00     0.117 C 
BRANCH  14  15
ATOM     15  C   UNL d   1      45.885 -16.278  44.949  0.00  0.00     0.084 C 
BRANCH  15  16
ATOM     16  C   UNL d   1      45.371 -15.649  44.791  0.00  0.00     0.281 C 
ATOM     17  N   UNL d   1      45.626 -14.866  44.906  0.00  0.00    -0.206 NA
ATOM     18  O   UNL d   1      44.598 -15.799  44.518  0.00  0.00    -0.265 OA
BRANCH  17  19
ATOM     19  C   UNL d   1      45.101 -14.234  44.745  0.00  0.00     0.109 C 
BRANCH  19  20
ATOM     20  C   UNL d   1      45.391 -13.494  44.512  0.00  0.00     0.049 A 
ATOM     21  S   UNL d   1      45.861 -12.978  44.953  0.00  0.00    -0.085 SA
ATOM     22  C   UNL d   1      46.021 -12.310  44.512  0.00  0.00     0.035 A 
ATOM     23  C   UNL d   1      45.648 -12.401  43.779  0.00  0.00     0.007 A 
ATOM     24  C   UNL d   1      45.259 -13.127  43.772  0.00  0.00     0.009 A 
ENDBRANCH  19  20
ENDBRANCH  17  19
ENDBRANCH  15  16
ENDBRANCH  14  15
ENDBRANCH  13  14
ENDBRANCH   1  13
TORSDOF 7
ENDMDL
MODEL 2
REMARK VINA RESULT:       8.6      1.432      5.501
REMARK  7 active torsions:
REMARK  status: ('A' for Active; 'I' for Inactive)
REMARK    1  A    between atoms: S_2  and  C_1 
REMARK    2  A    between atoms: N_14  and  S_2 
REMARK    3  A    between atoms: C_9  and  C_18 
REMARK       I    between atoms: N_17  and  C_9 
REMARK    4  A    between atoms: C_13  and  C_23 
REMARK    5  A    between atoms: C_24  and  N_14 
REMARK    6  A    between atoms: C_23  and  N_17 
REMARK    7  A    between atoms: C_18  and  C_24 
ROOT
ATOM      1  S   UNL d   1      45.638 -14.810  44.640  0.00  0.00     0.287 S 
ATOM      2  O   UNL d   1      44.873 -15.119  44.651  0.00  0.00    -0.198 OA
ATOM      3  O   UNL d   1      46.403 -14.500  44.629  0.00  0.00    -0.198 OA
ENDROOT
BRANCH   1   4
ATOM      4  C   UNL d   1      45.349 -14.107  44.327  0.00  0.00     0.127 A 
ATOM      5  C   UNL d   1      45.744 -13.398  44.469  0.00  0.00     0.142 A 
ATOM      6  C   UNL d   1      45.454 -12.692  44.155  0.00  0.00     0.131 A 
ATOM      7  N   UNL d   1      46.426 -13.223  44.892  0.00  0.00    -0.101 NA
ATOM      8  N   UNL d   1      45.957 -12.083  44.386  0.00  0.00    -0.102 NA
ATOM      9  C   UNL d   1      44.768 -12.694  43.700  0.00  0.00     0.023 A 
ATOM     10  O   UNL d   1      46.561 -12.412  44.843  0.00  0.00    -0.106 OA
ATOM     11  C   UNL d   1      44.365 -13.406  43.554  0.00  0.00     0.002 A 
ATOM     12  C   UNL d   1      44.655 -14.112  43.867  0.00  0.00     0.015 A 
ENDBRANCH   1   4
BRANCH   1  13
ATOM     13  N   UNL d   1      45.929 -15.519  44.955  0.00  0.00    -0.157 NA
BRANCH  13  14
ATOM     14  C   UNL d   1      46.164 -16.130  44.453  0.00  0.00     0.117 C 
BRANCH  14  15
ATOM     15  C   UNL d   1      45.774 -16.856  44.474  0.00  0.00     0.084 C 
BRANCH  15  16
ATOM     16  C   UNL d   1      46.192 -17.556  44.329  0.00  0.00     0.281 C 
ATOM     17  N   UNL d   1      46.221 -17.870  43.560  0.00  0.00    -0.206 NA
ATOM     18  O   UNL d   1      46.585 -17.945  44.953  0.00  0.00    -0.265 OA
BRANCH  17  19
ATOM     19  C   UNL d   1      46.646 -18.578  43.421  0.00  0.00     0.109 C 
BRANCH  19  20
ATOM     20  C   UNL d   1      46.575 -18.977  42.698  0.00  0.00     0.049 A 
ATOM     21  S   UNL d   1      46.555 -18.643  41.942  0.00  0.00    -0.085 SA
ATOM     22  C   UNL d   1      46.479 -19.236  41.386  0.00  0.00     0.035 A 
ATOM     23  C   UNL d   1      46.451 -19.957  41.791  0.00  0.00     0.007 A 
ATOM     24  C   UNL d   1      46.509 -19.804  42.599  0.00  0.00     0.009 A 
ENDBRANCH  19  20
ENDBRANCH  17  19
ENDBRANCH  15  16
ENDBRANCH  14  15
ENDBRANCH  13  14
ENDBRANCH   1  13
TORSDOF 7
ENDMDL
