MODEL 1
REMARK VINA RESULT:      78.8      0.000      0.000
REMARK  5 active torsions:
REMARK  status: ('A' for Active; 'I' for Inactive)
REMARK    1  A    between atoms: S_5  and  C_3 
REMARK    2  A    between atoms: C_13  and  S_5 
REMARK    3  A    between atoms: C_23  and  N_7 
REMARK    4  A    between atoms: C_30  and  C_23 
REMARK    5  A    between atoms: O_29  and  C_30 
ROOT
ATOM      1  C   UNL d   1      13.938  13.781  -2.915  0.00  0.00     0.155 A 
ATOM      2  C   UNL d   1      14.020  14.484  -3.322  0.00  0.00     0.092 A 
ATOM      3  C   UNL d   1      14.554  15.092  -2.162  0.00  0.00     0.124 A 
ATOM      4  N   UNL d   1      13.632  13.122  -3.286  0.00  0.00    -0.210 NA
ATOM      5  N   UNL d   1      13.482  13.861  -4.481  0.00  0.00    -0.258 N 
ATOM      6  N   UNL d   1      14.164  13.728  -2.130  0.00  0.00    -0.271 N 
ATOM      7  C   UNL d   1      13.403  13.161  -4.068  0.00  0.00     0.152 A 
ATOM      8  C   UNL d   1      14.472  14.390  -1.757  0.00  0.00     0.181 A 
ATOM      9  C   UNL d   1      13.792  14.528  -4.105  0.00  0.00     0.269 A 
ATOM     10  C   UNL d   1      14.327  15.143  -2.951  0.00  0.00     0.022 A 
ATOM     11  C   UNL d   1      13.097  12.503  -4.437  0.00  0.00     0.035 A 
ATOM     12  C   UNL d   1      13.254  13.904  -5.264  0.00  0.00     0.084 A 
ATOM     13  N   UNL d   1      14.703  14.336  -0.952  0.00  0.00    -0.128 N 
ATOM     14  O   UNL d   1      13.873  15.246  -4.529  0.00  0.00    -0.266 OA
ATOM     15  C   UNL d   1      12.947  13.241  -5.632  0.00  0.00     0.019 A 
ATOM     16  C   UNL d   1      12.868  12.541  -5.219  0.00  0.00     0.005 A 
ATOM     17  C   UNL d   1      13.016  11.784  -4.013  0.00  0.00     0.003 C 
ENDROOT
BRANCH   3  18
ATOM     18  S   UNL d   1      14.867  15.760  -1.778  0.00  0.00     0.213 S 
ATOM     19  O   UNL d   1      15.577  15.694  -2.213  0.00  0.00    -0.217 OA
ATOM     20  O   UNL d   1      14.165  15.832  -1.342  0.00  0.00    -0.217 OA
BRANCH  18  21
ATOM     21  C   UNL d   1      15.171  16.431  -1.386  0.00  0.00     0.088 A 
ATOM     22  C   UNL d   1      15.916  16.402  -1.027  0.00  0.00     0.014 A 
ATOM     23  C   UNL d   1      16.216  17.072  -0.638  0.00  0.00     0.030 A 
ATOM     24  C   UNL d   1      15.766  17.772  -0.609  0.00  0.00     0.140 A 
ATOM     25  C   UNL d   1      15.010  17.795  -0.976  0.00  0.00     0.030 A 
ATOM     26  F   UNL d   1      16.064  18.450  -0.217  0.00  0.00    -0.204 F 
ATOM     27  C   UNL d   1      14.719  17.126  -1.361  0.00  0.00     0.014 A 
ENDBRANCH  18  21
ENDBRANCH   3  18
BRANCH   6  28
ATOM     28  C   UNL d   1      14.081  13.014  -1.718  0.00  0.00     0.109 C 
BRANCH  28  29
ATOM     29  C   UNL d   1      13.912  13.022  -0.904  0.00  0.00     0.135 C 
BRANCH  29  30
ATOM     30  O   UNL d   1      13.760  12.302  -0.501  0.00  0.00    -0.325 OA
ATOM     31  C   UNL d   1      14.394  11.827  -0.246  0.00  0.00     0.182 C 
ENDBRANCH  29  30
ENDBRANCH  28  29
ENDBRANCH   6  28
TORSDOF 5
ENDMDL
MODEL 2
REMARK VINA RESULT:      79.9      2.020      3.767
REMARK  5 active torsions:
REMARK  status: ('A' for Active; 'I' for Inactive)
REMARK    1  A    between atoms: S_5  and  C_3 
REMARK    2  A    between atoms: C_13  and  S_5 
REMARK    3  A    between atoms: C_23  and  N_7 
REMARK    4  A    between atoms: C_30  and  C_23 
REMARK    5  A    between atoms: O_29  and  C_30 
ROOT
ATOM      1  C   UNL d   1      14.047  13.681  -2.691  0.00  0.00     0.155 A 
ATOM      2  C   UNL d   1      14.450  14.364  -2.501  0.00  0.00     0.092 A 
ATOM      3  C   UNL d   1      14.081  14.928  -3.744  0.00  0.00     0.124 A 
ATOM      4  N   UNL d   1      14.026  13.053  -2.170  0.00  0.00    -0.210 NA
ATOM      5  N   UNL d   1      14.813  13.785  -1.254  0.00  0.00    -0.258 N 
ATOM      6  N   UNL d   1      13.658  13.615  -3.409  0.00  0.00    -0.271 N 
ATOM      7  C   UNL d   1      14.408  13.105  -1.451  0.00  0.00     0.152 A 
ATOM      8  C   UNL d   1      13.679  14.245  -3.933  0.00  0.00     0.181 A 
ATOM      9  C   UNL d   1      14.835  14.420  -1.782  0.00  0.00     0.269 A 
ATOM     10  C   UNL d   1      14.471  14.991  -3.022  0.00  0.00     0.022 A 
ATOM     11  C   UNL d   1      14.387  12.478  -0.931  0.00  0.00     0.035 A 
ATOM     12  C   UNL d   1      15.199  13.841  -0.535  0.00  0.00     0.084 A 
ATOM     13  N   UNL d   1      13.281  14.179  -4.669  0.00  0.00    -0.128 N 
ATOM     14  O   UNL d   1      15.251  15.119  -1.579  0.00  0.00    -0.266 OA
ATOM     15  C   UNL d   1      15.175  13.210  -0.015  0.00  0.00     0.019 A 
ATOM     16  C   UNL d   1      14.770  12.530  -0.212  0.00  0.00     0.005 A 
ATOM     17  C   UNL d   1      13.971  11.780  -1.134  0.00  0.00     0.003 C 
ENDROOT
BRANCH   3  18
ATOM     18  S   UNL d   1      14.098  15.563  -4.280  0.00  0.00     0.213 S 
ATOM     19  O   UNL d   1      14.655  15.163  -4.757  0.00  0.00    -0.217 OA
ATOM     20  O   UNL d   1      13.546  15.966  -3.811  0.00  0.00    -0.217 OA
BRANCH  18  21
ATOM     21  C   UNL d   1      14.107  16.207  -4.811  0.00  0.00     0.088 A 
ATOM     22  C   UNL d   1      13.660  16.178  -5.507  0.00  0.00     0.014 A 
ATOM     23  C   UNL d   1      13.671  16.821  -6.034  0.00  0.00     0.030 A 
ATOM     24  C   UNL d   1      14.132  17.492  -5.860  0.00  0.00     0.140 A 
ATOM     25  C   UNL d   1      14.584  17.515  -5.153  0.00  0.00     0.030 A 
ATOM     26  F   UNL d   1      14.147  18.143  -6.389  0.00  0.00    -0.204 F 
ATOM     27  C   UNL d   1      14.568  16.873  -4.634  0.00  0.00     0.014 A 
ENDBRANCH  18  21
ENDBRANCH   3  18
BRANCH   6  28
ATOM     28  C   UNL d   1      13.249  12.921  -3.601  0.00  0.00     0.109 C 
BRANCH  28  29
ATOM     29  C   UNL d   1      13.049  12.763  -4.393  0.00  0.00     0.135 C 
BRANCH  29  30
ATOM     30  O   UNL d   1      12.854  11.982  -4.627  0.00  0.00    -0.325 OA
ATOM     31  C   UNL d   1      12.852  11.779  -5.434  0.00  0.00     0.182 C 
ENDBRANCH  29  30
ENDBRANCH  28  29
ENDBRANCH   6  28
TORSDOF 5
ENDMDL
