MODEL 1
REMARK VINA RESULT:      43.1      0.000      0.000
REMARK  3 active torsions:
REMARK  status: ('A' for Active; 'I' for Inactive)
REMARK    1  A    between atoms: C_6  and  C_1 
REMARK    2  A    between atoms: O_10  and  C_6 
REMARK    3  A    between atoms: C_19  and  O_10 
ROOT
ATOM      1  C   UNL d   1      14.381  14.492  -2.473  0.00  0.00     0.081 A 
ATOM      2  C   UNL d   1      13.850  13.255  -3.055  0.00  0.00     0.056 A 
ATOM      3  C   UNL d   1      13.637  13.662  -3.724  0.00  0.00     0.080 A 
ATOM      4  C   UNL d   1      14.167  14.898  -3.142  0.00  0.00     0.086 A 
ATOM      5  C   UNL d   1      14.218  13.643  -2.425  0.00  0.00     0.013 A 
ATOM      6  N   UNL d   1      13.778  14.481  -3.805  0.00  0.00    -0.246 NA
ATOM      7  C   UNL d   1      13.705  12.446  -2.988  0.00  0.00     0.193 A 
ATOM      8  C   UNL d   1      13.264  13.284  -4.368  0.00  0.00    -0.003 A 
ATOM      9  C   UNL d   1      13.121  12.460  -4.288  0.00  0.00     0.042 A 
ATOM     10  C   UNL d   1      13.335  12.054  -3.620  0.00  0.00     0.019 A 
ATOM     11  O   UNL d   1      13.919  12.039  -2.319  0.00  0.00    -0.287 OA
ATOM     12  C   UNL d   1      14.565  12.985  -1.341  0.00  0.00     0.020 A 
ATOM     13  N   UNL d   1      15.156  13.019  -0.049  0.00  0.00    -0.242 NA
ATOM     14  C   UNL d   1      14.309  15.717  -3.223  0.00  0.00     0.021 C 
ATOM     15  C   UNL d   1      14.939  13.432  -0.728  0.00  0.00     0.099 A 
ATOM     16  C   UNL d   1      12.769  12.301  -4.991  0.00  0.00     0.009 C 
ATOM     17  C   UNL d   1      12.833  11.791  -4.603  0.00  0.00     0.009 C 
ATOM     18  C   UNL d   1      14.989  12.179  -0.014  0.00  0.00     0.099 A 
ATOM     19  C   UNL d   1      14.406  12.192  -1.311  0.00  0.00     0.003 A 
ATOM     20  C   UNL d   1      14.624  11.779  -0.632  0.00  0.00     0.021 A 
ENDROOT
BRANCH   1  21
ATOM     21  C   UNL d   1      14.749  14.880  -1.844  0.00  0.00     0.301 C 
ATOM     22  O   UNL d   1      15.364  14.531  -1.445  0.00  0.00    -0.259 OA
BRANCH  21  23
ATOM     23  O   UNL d   1      14.479  15.630  -1.630  0.00  0.00    -0.273 OA
BRANCH  23  24
ATOM     24  C   UNL d   1      14.945  16.113  -1.280  0.00  0.00     0.103 C 
ATOM     25  C   UNL d   1      15.270  16.682  -1.691  0.00  0.00     0.027 C 
ATOM     26  C   UNL d   1      15.085  16.031  -0.538  0.00  0.00     0.027 C 
ENDBRANCH  23  24
ENDBRANCH  21  23
ENDBRANCH   1  21
TORSDOF 3
ENDMDL
MODEL 2
REMARK VINA RESULT:      45.1      1.107      3.627
REMARK  3 active torsions:
REMARK  status: ('A' for Active; 'I' for Inactive)
REMARK    1  A    between atoms: C_6  and  C_1 
REMARK    2  A    between atoms: O_10  and  C_6 
REMARK    3  A    between atoms: C_19  and  O_10 
ROOT
ATOM      1  C   UNL d   1      14.612  13.339  -1.575  0.00  0.00     0.081 A 
ATOM      2  C   UNL d   1      14.462  14.547  -2.392  0.00  0.00     0.056 A 
ATOM      3  C   UNL d   1      14.857  14.977  -1.829  0.00  0.00     0.080 A 
ATOM      4  C   UNL d   1      15.007  13.768  -1.012  0.00  0.00     0.086 A 
ATOM      5  C   UNL d   1      14.329  13.738  -2.290  0.00  0.00     0.013 A 
ATOM      6  N   UNL d   1      15.144  14.625  -1.128  0.00  0.00    -0.246 NA
ATOM      7  C   UNL d   1      14.184  14.908  -3.080  0.00  0.00     0.193 A 
ATOM      8  C   UNL d   1      14.999  15.794  -1.918  0.00  0.00    -0.003 A 
ATOM      9  C   UNL d   1      14.711  16.150  -2.622  0.00  0.00     0.042 A 
ATOM     10  C   UNL d   1      14.316  15.721  -3.185  0.00  0.00     0.019 A 
ATOM     11  O   UNL d   1      13.789  14.478  -3.644  0.00  0.00    -0.287 OA
ATOM     12  C   UNL d   1      13.689  13.042  -3.203  0.00  0.00     0.020 A 
ATOM     13  N   UNL d   1      13.180  11.781  -3.617  0.00  0.00    -0.242 NA
ATOM     14  C   UNL d   1      15.294  13.416  -0.311  0.00  0.00     0.021 C 
ATOM     15  C   UNL d   1      13.581  12.217  -3.045  0.00  0.00     0.099 A 
ATOM     16  C   UNL d   1      14.944  16.909  -2.512  0.00  0.00     0.009 C 
ATOM     17  C   UNL d   1      14.630  16.805  -3.064  0.00  0.00     0.009 C 
ATOM     18  C   UNL d   1      12.905  12.189  -4.320  0.00  0.00     0.099 A 
ATOM     19  C   UNL d   1      13.431  13.429  -3.864  0.00  0.00     0.003 A 
ATOM     20  C   UNL d   1      13.029  12.992  -4.436  0.00  0.00     0.021 A 
ENDROOT
BRANCH   1  21
ATOM     21  C   UNL d   1      14.480  12.530  -1.473  0.00  0.00     0.301 C 
ATOM     22  O   UNL d   1      15.027  11.985  -1.724  0.00  0.00    -0.259 OA
BRANCH  21  23
ATOM     23  O   UNL d   1      13.778  12.288  -1.110  0.00  0.00    -0.273 OA
BRANCH  23  24
ATOM     24  C   UNL d   1      13.800  11.966  -0.426  0.00  0.00     0.103 C 
ATOM     25  C   UNL d   1      13.135  11.832  -0.053  0.00  0.00     0.027 C 
ATOM     26  C   UNL d   1      14.470  11.780  -0.118  0.00  0.00     0.027 C 
ENDBRANCH  23  24
ENDBRANCH  21  23
ENDBRANCH   1  21
TORSDOF 3
ENDMDL
