MODEL 1
REMARK VINA RESULT:      -7.1      0.000      0.000
REMARK  8 active torsions:
REMARK  status: ('A' for Active; 'I' for Inactive)
REMARK    1  A    between atoms: S_10  and  C_2 
REMARK    2  A    between atoms: C_7  and  C_4 
REMARK    3  A    between atoms: C_17  and  S_10 
REMARK    4  A    between atoms: C_14  and  C_17 
REMARK    5  A    between atoms: O_18  and  C_14 
REMARK    6  A    between atoms: O_19  and  C_15 
REMARK    7  A    between atoms: C_22  and  O_18 
REMARK    8  A    between atoms: C_23  and  O_19 
ROOT
ATOM      1  C   UNL d   1      52.691  33.447  53.502  0.00  0.00     0.093 A 
ATOM      2  C   UNL d   1      52.103  33.287  52.933  0.00  0.00     0.124 A 
ATOM      3  N   UNL d   1      52.024  32.524  52.628  0.00  0.00    -0.200 NA
ATOM      4  C   UNL d   1      53.191  32.842  53.757  0.00  0.00     0.028 A 
ATOM      5  C   UNL d   1      53.111  32.083  53.451  0.00  0.00     0.127 A 
ATOM      6  C   UNL d   1      52.523  31.923  52.883  0.00  0.00     0.289 A 
ATOM      7  C   UNL d   1      52.773  34.202  53.807  0.00  0.00     0.103 C 
ATOM      8  C   UNL d   1      53.611  31.479  53.707  0.00  0.00     0.106 C 
ATOM      9  N   UNL d   1      52.850  34.952  54.107  0.00  0.00    -0.191 NA
ATOM     10  N   UNL d   1      54.102  30.884  53.957  0.00  0.00    -0.191 NA
ATOM     11  O   UNL d   1      52.477  31.079  52.582  0.00  0.00    -0.264 OA
ENDROOT
BRANCH   2  12
ATOM     12  S   UNL d   1      51.607  33.960  52.703  0.00  0.00    -0.061 SA
BRANCH  12  13
ATOM     13  C   UNL d   1      51.060  34.024  52.028  0.00  0.00     0.105 C 
BRANCH  13  14
ATOM     14  C   UNL d   1      50.285  34.402  52.143  0.00  0.00     0.307 C 
ATOM     15  O   UNL d   1      50.133  34.614  52.602  0.00  0.00    -0.258 OA
BRANCH  14  16
ATOM     16  O   UNL d   1      49.767  34.402  51.424  0.00  0.00    -0.271 OA
BRANCH  16  17
ATOM     17  C   UNL d   1      48.939  34.740  51.544  0.00  0.00     0.126 C 
ATOM     18  C   UNL d   1      48.487  34.675  50.725  0.00  0.00     0.029 C 
ENDBRANCH  16  17
ENDBRANCH  14  16
ENDBRANCH  13  14
ENDBRANCH  12  13
ENDBRANCH   2  12
BRANCH   4  19
ATOM     19  C   UNL d   1      53.771  33.000  54.317  0.00  0.00     0.024 A 
ATOM     20  C   UNL d   1      54.533  33.192  54.077  0.00  0.00     0.100 A 
ATOM     21  C   UNL d   1      55.116  33.350  54.640  0.00  0.00     0.025 A 
ATOM     22  C   UNL d   1      54.935  33.317  55.443  0.00  0.00     0.002 A 
ATOM     23  C   UNL d   1      54.168  33.124  55.684  0.00  0.00     0.000 A 
ATOM     24  C   UNL d   1      53.585  32.965  55.121  0.00  0.00     0.002 A 
BRANCH  20  25
ATOM     25  O   UNL d   1      54.765  33.241  53.421  0.00  0.00    -0.305 OA
BRANCH  25  26
ATOM     26  C   UNL d   1      55.547  33.420  53.362  0.00  0.00     0.123 C 
ATOM     27  C   UNL d   1      55.915  33.408  52.509  0.00  0.00     0.029 C 
ENDBRANCH  25  26
ENDBRANCH  20  25
ENDBRANCH   4  19
TORSDOF 8
ENDMDL
MODEL 2
REMARK VINA RESULT:      -5.5      1.140      1.982
REMARK  8 active torsions:
REMARK  status: ('A' for Active; 'I' for Inactive)
REMARK    1  A    between atoms: S_10  and  C_2 
REMARK    2  A    between atoms: C_7  and  C_4 
REMARK    3  A    between atoms: C_17  and  S_10 
REMARK    4  A    between atoms: C_14  and  C_17 
REMARK    5  A    between atoms: O_18  and  C_14 
REMARK    6  A    between atoms: O_19  and  C_15 
REMARK    7  A    between atoms: C_22  and  O_18 
REMARK    8  A    between atoms: C_23  and  O_19 
ROOT
ATOM      1  C   UNL d   1      52.378  33.588  53.333  0.00  0.00     0.093 A 
ATOM      2  C   UNL d   1      51.943  34.258  53.096  0.00  0.00     0.124 A 
ATOM      3  N   UNL d   1      52.081  34.987  53.459  0.00  0.00    -0.200 NA
ATOM      4  C   UNL d   1      52.945  33.656  53.929  0.00  0.00     0.028 A 
ATOM      5  C   UNL d   1      53.080  34.382  54.290  0.00  0.00     0.127 A 
ATOM      6  C   UNL d   1      52.646  35.052  54.053  0.00  0.00     0.289 A 
ATOM      7  C   UNL d   1      52.244  32.864  52.975  0.00  0.00     0.103 C 
ATOM      8  C   UNL d   1      53.646  34.449  54.885  0.00  0.00     0.106 C 
ATOM      9  N   UNL d   1      52.108  32.149  52.618  0.00  0.00    -0.191 NA
ATOM     10  N   UNL d   1      54.203  34.516  55.472  0.00  0.00    -0.191 NA
ATOM     11  O   UNL d   1      52.832  35.820  54.477  0.00  0.00    -0.264 OA
ENDROOT
BRANCH   2  12
ATOM     12  S   UNL d   1      51.362  34.128  52.465  0.00  0.00    -0.061 SA
BRANCH  12  13
ATOM     13  C   UNL d   1      50.577  34.494  52.367  0.00  0.00     0.105 C 
BRANCH  13  14
ATOM     14  C   UNL d   1      50.173  34.435  51.600  0.00  0.00     0.307 C 
ATOM     15  O   UNL d   1      50.430  34.362  51.144  0.00  0.00    -0.258 OA
BRANCH  14  16
ATOM     16  O   UNL d   1      49.291  34.508  51.644  0.00  0.00    -0.271 OA
BRANCH  16  17
ATOM     17  C   UNL d   1      48.863  34.512  50.849  0.00  0.00     0.126 C 
ATOM     18  C   UNL d   1      48.025  34.910  50.983  0.00  0.00     0.029 C 
ENDBRANCH  16  17
ENDBRANCH  14  16
ENDBRANCH  13  14
ENDBRANCH  12  13
ENDBRANCH   2  12
BRANCH   4  19
ATOM     19  C   UNL d   1      53.373  32.996  54.163  0.00  0.00     0.024 A 
ATOM     20  C   UNL d   1      54.102  32.835  53.817  0.00  0.00     0.100 A 
ATOM     21  C   UNL d   1      54.533  32.171  54.052  0.00  0.00     0.025 A 
ATOM     22  C   UNL d   1      54.235  31.668  54.632  0.00  0.00     0.002 A 
ATOM     23  C   UNL d   1      53.502  31.829  54.979  0.00  0.00     0.000 A 
ATOM     24  C   UNL d   1      53.071  32.494  54.744  0.00  0.00     0.002 A 
BRANCH  20  25
ATOM     25  O   UNL d   1      54.421  33.210  53.323  0.00  0.00    -0.305 OA
BRANCH  25  26
ATOM     26  C   UNL d   1      55.131  32.909  53.092  0.00  0.00     0.123 C 
ATOM     27  C   UNL d   1      55.680  33.472  52.596  0.00  0.00     0.029 C 
ENDBRANCH  25  26
ENDBRANCH  20  25
ENDBRANCH   4  19
TORSDOF 8
ENDMDL
MODEL 3
REMARK VINA RESULT:      -5.2      1.831      4.450
REMARK  8 active torsions:
REMARK  status: ('A' for Active; 'I' for Inactive)
REMARK    1  A    between atoms: S_10  and  C_2 
REMARK    2  A    between atoms: C_7  and  C_4 
REMARK    3  A    between atoms: C_17  and  S_10 
REMARK    4  A    between atoms: C_14  and  C_17 
REMARK    5  A    between atoms: O_18  and  C_14 
REMARK    6  A    between atoms: O_19  and  C_15 
REMARK    7  A    between atoms: C_22  and  O_18 
REMARK    8  A    between atoms: C_23  and  O_19 
ROOT
ATOM      1  C   UNL d   1      53.192  32.385  53.533  0.00  0.00     0.093 A 
ATOM      2  C   UNL d   1      53.481  31.754  53.994  0.00  0.00     0.124 A 
ATOM      3  N   UNL d   1      53.834  31.906  54.724  0.00  0.00    -0.200 NA
ATOM      4  C   UNL d   1      53.262  33.160  53.809  0.00  0.00     0.028 A 
ATOM      5  C   UNL d   1      53.614  33.309  54.537  0.00  0.00     0.127 A 
ATOM      6  C   UNL d   1      53.902  32.678  54.997  0.00  0.00     0.289 A 
ATOM      7  C   UNL d   1      52.841  32.238  52.808  0.00  0.00     0.103 C 
ATOM      8  C   UNL d   1      53.683  34.084  54.812  0.00  0.00     0.106 C 
ATOM      9  N   UNL d   1      52.494  32.088  52.091  0.00  0.00    -0.191 NA
ATOM     10  N   UNL d   1      53.751  34.845  55.084  0.00  0.00    -0.191 NA
ATOM     11  O   UNL d   1      54.277  32.895  55.783  0.00  0.00    -0.264 OA
ENDROOT
BRANCH   2  12
ATOM     12  S   UNL d   1      53.381  30.962  53.654  0.00  0.00    -0.061 SA
BRANCH  12  13
ATOM     13  C   UNL d   1      53.705  30.205  53.939  0.00  0.00     0.105 C 
BRANCH  13  14
ATOM     14  C   UNL d   1      53.231  29.481  53.855  0.00  0.00     0.307 C 
ATOM     15  O   UNL d   1      53.106  29.271  53.386  0.00  0.00    -0.258 OA
BRANCH  14  16
ATOM     16  O   UNL d   1      52.973  29.121  54.622  0.00  0.00    -0.271 OA
BRANCH  16  17
ATOM     17  C   UNL d   1      53.465  28.418  54.904  0.00  0.00     0.126 C 
ATOM     18  C   UNL d   1      53.309  28.315  55.823  0.00  0.00     0.029 C 
ENDBRANCH  16  17
ENDBRANCH  14  16
ENDBRANCH  13  14
ENDBRANCH  12  13
ENDBRANCH   2  12
BRANCH   4  19
ATOM     19  C   UNL d   1      52.977  33.782  53.355  0.00  0.00     0.024 A 
ATOM     20  C   UNL d   1      52.183  33.990  53.394  0.00  0.00     0.100 A 
ATOM     21  C   UNL d   1      51.897  34.616  52.937  0.00  0.00     0.025 A 
ATOM     22  C   UNL d   1      52.406  35.034  52.442  0.00  0.00     0.002 A 
ATOM     23  C   UNL d   1      53.205  34.824  52.404  0.00  0.00     0.000 A 
ATOM     24  C   UNL d   1      53.491  34.198  52.861  0.00  0.00     0.002 A 
BRANCH  20  25
ATOM     25  O   UNL d   1      51.691  33.688  53.785  0.00  0.00    -0.305 OA
BRANCH  25  26
ATOM     26  C   UNL d   1      50.964  34.028  53.717  0.00  0.00     0.123 C 
ATOM     27  C   UNL d   1      50.237  33.511  53.975  0.00  0.00     0.029 C 
ENDBRANCH  25  26
ENDBRANCH  20  25
ENDBRANCH   4  19
TORSDOF 8
ENDMDL
MODEL 4
REMARK VINA RESULT:      -5.1      1.886      4.065
REMARK  8 active torsions:
REMARK  status: ('A' for Active; 'I' for Inactive)
REMARK    1  A    between atoms: S_10  and  C_2 
REMARK    2  A    between atoms: C_7  and  C_4 
REMARK    3  A    between atoms: C_17  and  S_10 
REMARK    4  A    between atoms: C_14  and  C_17 
REMARK    5  A    between atoms: O_18  and  C_14 
REMARK    6  A    between atoms: O_19  and  C_15 
REMARK    7  A    between atoms: C_22  and  O_18 
REMARK    8  A    between atoms: C_23  and  O_19 
ROOT
ATOM      1  C   UNL d   1      52.822  32.667  53.189  0.00  0.00     0.093 A 
ATOM      2  C   UNL d   1      52.456  31.918  53.185  0.00  0.00     0.124 A 
ATOM      3  N   UNL d   1      51.632  31.864  53.198  0.00  0.00    -0.200 NA
ATOM      4  C   UNL d   1      52.360  33.350  53.206  0.00  0.00     0.028 A 
ATOM      5  C   UNL d   1      51.540  33.294  53.219  0.00  0.00     0.127 A 
ATOM      6  C   UNL d   1      51.174  32.546  53.215  0.00  0.00     0.289 A 
ATOM      7  C   UNL d   1      53.639  32.725  53.175  0.00  0.00     0.103 C 
ATOM      8  C   UNL d   1      51.078  33.977  53.236  0.00  0.00     0.106 C 
ATOM      9  N   UNL d   1      54.448  32.778  53.162  0.00  0.00    -0.191 NA
ATOM     10  N   UNL d   1      50.623  34.649  53.253  0.00  0.00    -0.191 NA
ATOM     11  O   UNL d   1      50.277  32.539  53.231  0.00  0.00    -0.264 OA
ENDROOT
BRANCH   2  12
ATOM     12  S   UNL d   1      52.991  31.236  53.166  0.00  0.00    -0.061 SA
BRANCH  12  13
ATOM     13  C   UNL d   1      52.789  30.389  53.147  0.00  0.00     0.105 C 
BRANCH  13  14
ATOM     14  C   UNL d   1      53.341  29.811  53.489  0.00  0.00     0.307 C 
ATOM     15  O   UNL d   1      53.814  29.705  53.278  0.00  0.00    -0.258 OA
BRANCH  14  16
ATOM     16  O   UNL d   1      53.047  29.414  54.224  0.00  0.00    -0.271 OA
BRANCH  16  17
ATOM     17  C   UNL d   1      53.561  28.738  54.530  0.00  0.00     0.126 C 
ATOM     18  C   UNL d   1      53.285  28.548  55.406  0.00  0.00     0.029 C 
ENDBRANCH  16  17
ENDBRANCH  14  16
ENDBRANCH  13  14
ENDBRANCH  12  13
ENDBRANCH   2  12
BRANCH   4  19
ATOM     19  C   UNL d   1      52.721  34.088  53.210  0.00  0.00     0.024 A 
ATOM     20  C   UNL d   1      52.957  34.426  53.921  0.00  0.00     0.100 A 
ATOM     21  C   UNL d   1      53.320  35.168  53.924  0.00  0.00     0.025 A 
ATOM     22  C   UNL d   1      53.446  35.571  53.217  0.00  0.00     0.002 A 
ATOM     23  C   UNL d   1      53.208  35.230  52.502  0.00  0.00     0.000 A 
ATOM     24  C   UNL d   1      52.845  34.488  52.498  0.00  0.00     0.002 A 
BRANCH  20  25
ATOM     25  O   UNL d   1      52.887  34.151  54.558  0.00  0.00    -0.305 OA
BRANCH  25  26
ATOM     26  C   UNL d   1      53.155  34.625  55.151  0.00  0.00     0.123 C 
ATOM     27  C   UNL d   1      53.402  34.204  55.942  0.00  0.00     0.029 C 
ENDBRANCH  25  26
ENDBRANCH  20  25
ENDBRANCH   4  19
TORSDOF 8
ENDMDL
MODEL 5
REMARK VINA RESULT:      -5.0      1.325      2.451
REMARK  8 active torsions:
REMARK  status: ('A' for Active; 'I' for Inactive)
REMARK    1  A    between atoms: S_10  and  C_2 
REMARK    2  A    between atoms: C_7  and  C_4 
REMARK    3  A    between atoms: C_17  and  S_10 
REMARK    4  A    between atoms: C_14  and  C_17 
REMARK    5  A    between atoms: O_18  and  C_14 
REMARK    6  A    between atoms: O_19  and  C_15 
REMARK    7  A    between atoms: C_22  and  O_18 
REMARK    8  A    between atoms: C_23  and  O_19 
ROOT
ATOM      1  C   UNL d   1      52.626  33.674  53.459  0.00  0.00     0.093 A 
ATOM      2  C   UNL d   1      52.028  34.198  53.708  0.00  0.00     0.124 A 
ATOM      3  N   UNL d   1      52.150  34.676  54.369  0.00  0.00    -0.200 NA
ATOM      4  C   UNL d   1      53.338  33.636  53.874  0.00  0.00     0.028 A 
ATOM      5  C   UNL d   1      53.458  34.113  54.533  0.00  0.00     0.127 A 
ATOM      6  C   UNL d   1      52.860  34.637  54.782  0.00  0.00     0.289 A 
ATOM      7  C   UNL d   1      52.508  33.198  52.803  0.00  0.00     0.103 C 
ATOM      8  C   UNL d   1      54.170  34.074  54.948  0.00  0.00     0.106 C 
ATOM      9  N   UNL d   1      52.387  32.728  52.153  0.00  0.00    -0.191 NA
ATOM     10  N   UNL d   1      54.869  34.038  55.357  0.00  0.00    -0.191 NA
ATOM     11  O   UNL d   1      53.041  35.135  55.506  0.00  0.00    -0.264 OA
ENDROOT
BRANCH   2  12
ATOM     12  S   UNL d   1      51.301  34.195  53.233  0.00  0.00    -0.061 SA
BRANCH  12  13
ATOM     13  C   UNL d   1      50.493  34.411  53.478  0.00  0.00     0.105 C 
BRANCH  13  14
ATOM     14  C   UNL d   1      49.922  34.671  52.876  0.00  0.00     0.307 C 
ATOM     15  O   UNL d   1      49.902  34.464  52.390  0.00  0.00    -0.258 OA
BRANCH  14  16
ATOM     16  O   UNL d   1      49.374  35.314  53.145  0.00  0.00    -0.271 OA
BRANCH  16  17
ATOM     17  C   UNL d   1      48.602  35.382  52.681  0.00  0.00     0.126 C 
ATOM     18  C   UNL d   1      48.091  36.056  53.085  0.00  0.00     0.029 C 
ENDBRANCH  16  17
ENDBRANCH  14  16
ENDBRANCH  13  14
ENDBRANCH  12  13
ENDBRANCH   2  12
BRANCH   4  19
ATOM     19  C   UNL d   1      53.927  33.120  53.629  0.00  0.00     0.024 A 
ATOM     20  C   UNL d   1      53.925  32.340  53.888  0.00  0.00     0.100 A 
ATOM     21  C   UNL d   1      54.518  31.820  53.641  0.00  0.00     0.025 A 
ATOM     22  C   UNL d   1      55.113  32.082  53.135  0.00  0.00     0.002 A 
ATOM     23  C   UNL d   1      55.114  32.867  52.874  0.00  0.00     0.000 A 
ATOM     24  C   UNL d   1      54.521  33.386  53.121  0.00  0.00     0.002 A 
BRANCH  20  25
ATOM     25  O   UNL d   1      53.460  32.043  54.315  0.00  0.00    -0.305 OA
BRANCH  25  26
ATOM     26  C   UNL d   1      53.571  31.252  54.421  0.00  0.00     0.123 C 
ATOM     27  C   UNL d   1      53.072  30.848  55.093  0.00  0.00     0.029 C 
ENDBRANCH  25  26
ENDBRANCH  20  25
ENDBRANCH   4  19
TORSDOF 8
ENDMDL
