MODEL 1
REMARK VINA RESULT:       1.2      0.000      0.000
REMARK  6 active torsions:
REMARK  status: ('A' for Active; 'I' for Inactive)
REMARK    1  A    between atoms: N_5  and  S_1 
REMARK    2  A    between atoms: C_6  and  S_1 
REMARK    3  A    between atoms: C_2  and  C_14 
REMARK    4  A    between atoms: C_8  and  N_5 
REMARK    5  A    between atoms: C_7  and  C_8 
REMARK       I    between atoms: N_11  and  C_7 
REMARK    6  A    between atoms: C_20  and  N_11 
ROOT
ATOM      1  C   UNL d   1      56.178   0.033  32.561  0.00  0.00     0.298 C 
ATOM      2  N   UNL d   1      56.393   0.324  31.824  0.00  0.00    -0.207 NA
ATOM      3  O   UNL d   1      56.514  -0.664  32.845  0.00  0.00    -0.264 OA
ENDROOT
BRANCH   1   4
ATOM      4  C   UNL d   1      55.628   0.444  33.010  0.00  0.00     0.151 C 
ATOM      5  C   UNL d   1      54.883   0.625  32.690  0.00  0.00     0.027 C 
BRANCH   4   6
ATOM      6  N   UNL d   1      55.802   0.681  33.772  0.00  0.00    -0.153 NA
BRANCH   6   7
ATOM      7  S   UNL d   1      55.221   0.681  34.358  0.00  0.00     0.285 S 
ATOM      8  O   UNL d   1      54.635   0.682  33.777  0.00  0.00    -0.198 OA
ATOM      9  O   UNL d   1      55.806   0.680  34.940  0.00  0.00    -0.198 OA
BRANCH   7  10
ATOM     10  C   UNL d   1      54.642   0.681  34.941  0.00  0.00     0.105 A 
ATOM     11  C   UNL d   1      54.864   0.682  35.730  0.00  0.00     0.012 A 
ATOM     12  C   UNL d   1      54.279   0.682  36.323  0.00  0.00     0.001 A 
ATOM     13  C   UNL d   1      55.675   0.682  35.935  0.00  0.00     0.001 C 
ATOM     14  C   UNL d   1      53.486   0.682  36.119  0.00  0.00     0.000 A 
ATOM     15  C   UNL d   1      53.264   0.682  35.323  0.00  0.00     0.001 A 
ATOM     16  C   UNL d   1      53.849   0.681  34.736  0.00  0.00     0.013 A 
ATOM     17  C   UNL d   1      52.457   0.682  35.116  0.00  0.00     0.000 C 
ENDBRANCH   7  10
ENDBRANCH   6   7
ENDBRANCH   4   6
ENDBRANCH   1   4
BRANCH   2  18
ATOM     18  C   UNL d   1      56.946  -0.086  31.369  0.00  0.00     0.085 A 
ATOM     19  C   UNL d   1      57.589   0.319  31.056  0.00  0.00     0.019 A 
ATOM     20  C   UNL d   1      58.156  -0.082  30.594  0.00  0.00     0.004 A 
ATOM     21  C   UNL d   1      58.073  -0.887  30.450  0.00  0.00     0.024 A 
ATOM     22  C   UNL d   1      57.427  -1.295  30.763  0.00  0.00     0.004 A 
ATOM     23  C   UNL d   1      56.863  -0.903  31.221  0.00  0.00     0.019 A 
BRANCH  21  24
ATOM     24  C   UNL d   1      58.644  -1.274  29.988  0.00  0.00     0.111 A 
ATOM     25  N   UNL d   1      58.532  -2.026  29.680  0.00  0.00    -0.239 NA
ATOM     26  C   UNL d   1      59.208  -2.237  29.253  0.00  0.00     0.088 A 
ATOM     27  C   UNL d   1      59.408  -2.915  28.831  0.00  0.00     0.020 A 
ATOM     28  C   UNL d   1      59.740  -1.608  29.301  0.00  0.00     0.049 A 
ATOM     29  C   UNL d   1      60.139  -2.964  28.456  0.00  0.00     0.002 A 
ATOM     30  C   UNL d   1      60.670  -2.335  28.503  0.00  0.00     0.001 A 
ATOM     31  C   UNL d   1      60.471  -1.656  28.926  0.00  0.00     0.008 A 
ATOM     32  S   UNL d   1      59.389  -1.012  29.756  0.00  0.00    -0.066 SA
ENDBRANCH  21  24
ENDBRANCH   2  18
TORSDOF 6
ENDMDL
