MODEL 1
REMARK VINA RESULT:      74.0      0.000      0.000
REMARK  5 active torsions:
REMARK  status: ('A' for Active; 'I' for Inactive)
REMARK    1  A    between atoms: C_9  and  N_1 
REMARK    2  A    between atoms: S_8  and  C_2 
REMARK    3  A    between atoms: C_6  and  C_10 
REMARK       I    between atoms: N_7  and  C_6 
REMARK    4  A    between atoms: C_10  and  S_8 
REMARK    5  A    between atoms: C_13  and  C_9 
ROOT
ATOM      1  N   UNL d   1     -54.854-101.571 -41.074  0.00  0.00    -0.303 N 
ATOM      2  C   UNL d   1     -54.876-101.280 -39.772  0.00  0.00     0.049 A 
ATOM      3  C   UNL d   1     -54.894-101.898 -40.334  0.00  0.00     0.087 A 
ATOM      4  C   UNL d   1     -54.824-100.574 -40.198  0.00  0.00     0.024 A 
ATOM      5  C   UNL d   1     -54.810-100.753 -41.003  0.00  0.00     0.065 A 
ATOM      6  C   UNL d   1     -54.787 -99.792 -39.948  0.00  0.00     0.002 A 
ATOM      7  C   UNL d   1     -54.761-100.151 -41.558  0.00  0.00     0.018 A 
ATOM      8  C   UNL d   1     -54.737 -99.185 -40.506  0.00  0.00     0.000 A 
ATOM      9  C   UNL d   1     -54.724 -99.365 -41.311  0.00  0.00     0.002 A 
ENDROOT
BRANCH   2  10
ATOM     10  S   UNL d   1     -54.903-101.355 -38.953  0.00  0.00    -0.080 SA
BRANCH  10  11
ATOM     11  C   UNL d   1     -54.805-102.099 -38.597  0.00  0.00     0.097 C 
BRANCH  11  12
ATOM     12  C   UNL d   1     -55.425-102.466 -38.203  0.00  0.00     0.272 C 
ATOM     13  N   UNL d   1     -55.454-102.486 -37.378  0.00  0.00    -0.267 N 
ATOM     14  C   UNL d   1     -54.845-102.129 -36.945  0.00  0.00     0.110 A 
ATOM     15  C   UNL d   1     -56.081-102.856 -36.993  0.00  0.00     0.110 A 
ATOM     16  C   UNL d   1     -54.863-102.143 -36.127  0.00  0.00     0.142 A 
ATOM     17  O   UNL d   1     -55.500-102.519 -35.729  0.00  0.00    -0.300 OA
ATOM     18  C   UNL d   1     -56.104-102.873 -36.163  0.00  0.00     0.142 A 
ATOM     19  O   UNL d   1     -56.023-102.816 -38.639  0.00  0.00    -0.266 OA
ENDBRANCH  11  12
ENDBRANCH  10  11
ENDBRANCH   2  10
BRANCH   1  20
ATOM     20  C   UNL d   1     -54.857-101.999 -41.796  0.00  0.00     0.080 C 
BRANCH  20  21
ATOM     21  C   UNL d   1     -55.077-101.631 -42.496  0.00  0.00     0.018 A 
ATOM     22  C   UNL d   1     -54.816-100.867 -42.671  0.00  0.00     0.002 A 
ATOM     23  C   UNL d   1     -55.039-100.501 -43.374  0.00  0.00     0.000 A 
ATOM     24  C   UNL d   1     -55.523-100.890 -43.907  0.00  0.00     0.000 A 
ATOM     25  C   UNL d   1     -55.793-101.664 -43.738  0.00  0.00     0.000 A 
ATOM     26  C   UNL d   1     -55.565-102.027 -43.029  0.00  0.00     0.002 A 
ENDBRANCH  20  21
ENDBRANCH   1  20
TORSDOF 5
ENDMDL
