MODEL 1
REMARK VINA RESULT:      -3.4      0.000      0.000
REMARK  4 active torsions:
REMARK  status: ('A' for Active; 'I' for Inactive)
REMARK    1  A    between atoms: C_2  and  C_1 
REMARK    2  A    between atoms: C_15  and  C_8 
REMARK    3  A    between atoms: C_9  and  C_15 
REMARK    4  A    between atoms: C_18  and  C_10 
ROOT
ATOM      1  C   UNL d   1      31.471  16.421 -23.781  0.00  0.00     0.094 A 
ATOM      2  N   UNL d   1      31.891  17.027 -24.151  0.00  0.00    -0.238 NA
ATOM      3  C   UNL d   1      32.641  17.063 -23.809  0.00  0.00     0.113 A 
ATOM      4  S   UNL d   1      32.689  16.484 -23.230  0.00  0.00    -0.066 SA
ATOM      5  C   UNL d   1      31.967  16.085 -23.211  0.00  0.00     0.056 A 
ENDROOT
BRANCH   3   6
ATOM      6  C   UNL d   1      33.241  17.594 -24.017  0.00  0.00     0.051 C 
BRANCH   6   7
ATOM      7  C   UNL d   1      33.178  18.387 -23.794  0.00  0.00     0.113 A 
ATOM      8  N   UNL d   1      33.216  18.684 -23.026  0.00  0.00    -0.238 NA
ATOM      9  C   UNL d   1      33.127  19.503 -23.063  0.00  0.00     0.088 A 
ATOM     10  C   UNL d   1      33.035  19.712 -23.855  0.00  0.00     0.056 A 
ATOM     11  S   UNL d   1      33.067  19.025 -24.306  0.00  0.00    -0.066 SA
BRANCH   9  12
ATOM     12  C   UNL d   1      33.131  20.019 -22.416  0.00  0.00     0.018 A 
ATOM     13  C   UNL d   1      33.165  20.825 -22.534  0.00  0.00     0.002 A 
ATOM     14  C   UNL d   1      33.169  21.336 -21.887  0.00  0.00     0.007 A 
ATOM     15  C   UNL d   1      33.138  21.032 -21.120  0.00  0.00     0.035 A 
ATOM     16  C   UNL d   1      33.104  20.226 -21.002  0.00  0.00     0.007 A 
ATOM     17 BR   UNL d   1      33.142  21.544 -20.473  0.00  0.00    -0.049 Br
ATOM     18  C   UNL d   1      33.100  19.710 -21.650  0.00  0.00     0.002 A 
ENDBRANCH   9  12
ENDBRANCH   6   7
ENDBRANCH   3   6
BRANCH   1  19
ATOM     19  C   UNL d   1      30.697  16.193 -23.950  0.00  0.00     0.082 A 
ATOM     20  C   UNL d   1      30.542  15.708 -24.600  0.00  0.00     0.302 A 
ATOM     21  O   UNL d   1      29.768  15.479 -24.769  0.00  0.00    -0.273 OA
ATOM     22  O   UNL d   1      31.162  15.453 -25.080  0.00  0.00    -0.259 OA
ATOM     23  C   UNL d   1      29.148  15.734 -24.288  0.00  0.00     0.103 A 
ATOM     24  C   UNL d   1      29.303  16.219 -23.638  0.00  0.00     0.023 A 
ATOM     25  C   UNL d   1      28.374  15.505 -24.457  0.00  0.00     0.025 A 
ATOM     26  C   UNL d   1      30.077  16.448 -23.469  0.00  0.00     0.009 A 
ATOM     27  C   UNL d   1      28.683  16.474 -23.158  0.00  0.00     0.002 A 
ATOM     28  C   UNL d   1      27.913  16.245 -23.327  0.00  0.00     0.000 A 
ATOM     29  C   UNL d   1      27.759  15.760 -23.977  0.00  0.00     0.002 A 
ENDBRANCH   1  19
TORSDOF 4
ENDMDL
MODEL 2
REMARK VINA RESULT:      -3.2      2.641      5.787
REMARK  4 active torsions:
REMARK  status: ('A' for Active; 'I' for Inactive)
REMARK    1  A    between atoms: C_2  and  C_1 
REMARK    2  A    between atoms: C_15  and  C_8 
REMARK    3  A    between atoms: C_9  and  C_15 
REMARK    4  A    between atoms: C_18  and  C_10 
ROOT
ATOM      1  C   UNL d   1      33.221  19.767 -22.266  0.00  0.00     0.094 A 
ATOM      2  N   UNL d   1      33.214  19.602 -23.074  0.00  0.00    -0.238 NA
ATOM      3  C   UNL d   1      33.226  18.782 -23.167  0.00  0.00     0.113 A 
ATOM      4  S   UNL d   1      33.241  18.438 -22.423  0.00  0.00    -0.066 SA
ATOM      5  C   UNL d   1      33.237  19.044 -21.863  0.00  0.00     0.056 A 
ENDROOT
BRANCH   3   6
ATOM      6  C   UNL d   1      33.225  18.379 -23.890  0.00  0.00     0.051 C 
BRANCH   6   7
ATOM      7  C   UNL d   1      32.506  18.154 -24.229  0.00  0.00     0.113 A 
ATOM      8  N   UNL d   1      31.930  17.678 -23.883  0.00  0.00    -0.238 NA
ATOM      9  C   UNL d   1      31.308  17.598 -24.419  0.00  0.00     0.088 A 
ATOM     10  C   UNL d   1      31.500  18.027 -25.097  0.00  0.00     0.056 A 
ATOM     11  S   UNL d   1      32.239  18.370 -24.980  0.00  0.00    -0.066 SA
BRANCH   9  12
ATOM     12  C   UNL d   1      30.614  17.164 -24.293  0.00  0.00     0.018 A 
ATOM     13  C   UNL d   1      29.892  17.469 -24.516  0.00  0.00     0.002 A 
ATOM     14  C   UNL d   1      29.203  17.034 -24.389  0.00  0.00     0.007 A 
ATOM     15  C   UNL d   1      29.245  16.289 -24.036  0.00  0.00     0.035 A 
ATOM     16  C   UNL d   1      29.967  15.984 -23.812  0.00  0.00     0.007 A 
ATOM     17 BR   UNL d   1      28.556  15.854 -23.909  0.00  0.00    -0.049 Br
ATOM     18  C   UNL d   1      30.660  16.418 -23.938  0.00  0.00     0.002 A 
ENDBRANCH   9  12
ENDBRANCH   6   7
ENDBRANCH   3   6
BRANCH   1  19
ATOM     19  C   UNL d   1      33.212  20.516 -21.922  0.00  0.00     0.082 A 
ATOM     20  C   UNL d   1      33.216  20.593 -21.099  0.00  0.00     0.302 A 
ATOM     21  O   UNL d   1      33.207  21.342 -20.755  0.00  0.00    -0.273 OA
ATOM     22  O   UNL d   1      33.228  19.920 -20.623  0.00  0.00    -0.259 OA
ATOM     23  C   UNL d   1      33.195  22.015 -21.232  0.00  0.00     0.103 A 
ATOM     24  C   UNL d   1      33.191  21.939 -22.054  0.00  0.00     0.023 A 
ATOM     25  C   UNL d   1      33.186  22.765 -20.888  0.00  0.00     0.025 A 
ATOM     26  C   UNL d   1      33.200  21.189 -22.398  0.00  0.00     0.009 A 
ATOM     27  C   UNL d   1      33.179  22.611 -22.531  0.00  0.00     0.002 A 
ATOM     28  C   UNL d   1      33.170  23.356 -22.186  0.00  0.00     0.000 A 
ATOM     29  C   UNL d   1      33.174  23.433 -21.364  0.00  0.00     0.002 A 
ENDBRANCH   1  19
TORSDOF 4
ENDMDL
