MODEL 1
REMARK VINA RESULT:      -2.5      0.000      0.000
REMARK  5 active torsions:
REMARK  status: ('A' for Active; 'I' for Inactive)
REMARK    1  A    between atoms: C_8  and  N_1 
REMARK       I    between atoms: N_2  and  C_4 
REMARK    2  A    between atoms: C_3  and  N_2 
REMARK    3  A    between atoms: N_6  and  C_3 
REMARK    4  A    between atoms: C_4  and  C_12 
REMARK    5  A    between atoms: C_7  and  N_6 
ROOT
ATOM      1  N   UNL d   1      32.572  18.081 -23.373  0.00  0.00    -0.168 NA
ATOM      2  C   UNL d   1      32.937  18.814 -23.479  0.00  0.00     0.282 C 
ATOM      3  O   UNL d   1      33.236  19.023 -24.213  0.00  0.00    -0.265 OA
ENDROOT
BRANCH   2   4
ATOM      4  C   UNL d   1      33.000  19.337 -22.841  0.00  0.00     0.058 A 
ATOM      5  C   UNL d   1      32.879  20.149 -22.969  0.00  0.00     0.006 A 
ATOM      6  C   UNL d   1      32.941  20.670 -22.342  0.00  0.00     0.024 A 
ATOM      7  C   UNL d   1      33.122  20.389 -21.583  0.00  0.00     0.127 A 
ATOM      8  C   UNL d   1      33.241  19.580 -21.464  0.00  0.00     0.024 A 
ATOM      9  C   UNL d   1      33.177  19.058 -22.101  0.00  0.00     0.006 A 
BRANCH   7  10
ATOM     10  N   UNL d   1      33.184  20.914 -20.955  0.00  0.00    -0.114 N 
ATOM     11  O   UNL d   1      33.215  20.633 -20.178  0.00  0.00    -0.532 OA
ATOM     12  O   UNL d   1      33.214  21.720 -21.101  0.00  0.00    -0.532 OA
ENDBRANCH   7  10
ENDBRANCH   2   4
BRANCH   1  13
ATOM     13  C   UNL d   1      32.505  17.556 -24.002  0.00  0.00     0.275 C 
ATOM     14  S   UNL d   1      33.152  17.430 -24.498  0.00  0.00    -0.023 SA
BRANCH  13  15
ATOM     15  N   UNL d   1      31.800  17.156 -24.140  0.00  0.00    -0.369 NA
BRANCH  15  16
ATOM     16  C   UNL d   1      31.105  16.767 -24.274  0.00  0.00     0.180 A 
ATOM     17  C   UNL d   1      30.829  16.118 -24.062  0.00  0.00     0.255 A 
ATOM     18  S   UNL d   1      30.149  15.915 -24.287  0.00  0.00    -0.043 SA
ATOM     19  O   UNL d   1      31.218  15.672 -23.631  0.00  0.00    -0.277 OA
ATOM     20  C   UNL d   1      29.761  16.361 -24.718  0.00  0.00     0.041 A 
ATOM     21  C   UNL d   1      30.037  17.009 -24.930  0.00  0.00     0.043 A 
ENDBRANCH  15  16
ENDBRANCH  13  15
ENDBRANCH   1  13
TORSDOF 5
ENDMDL
MODEL 2
REMARK VINA RESULT:      -2.3      3.770      5.686
REMARK  5 active torsions:
REMARK  status: ('A' for Active; 'I' for Inactive)
REMARK    1  A    between atoms: C_8  and  N_1 
REMARK       I    between atoms: N_2  and  C_4 
REMARK    2  A    between atoms: C_3  and  N_2 
REMARK    3  A    between atoms: N_6  and  C_3 
REMARK    4  A    between atoms: C_4  and  C_12 
REMARK    5  A    between atoms: C_7  and  N_6 
ROOT
ATOM      1  N   UNL d   1      32.502  22.354 -19.787  0.00  0.00    -0.168 NA
ATOM      2  C   UNL d   1      32.847  23.002 -19.411  0.00  0.00     0.282 C 
ATOM      3  O   UNL d   1      33.110  23.642 -19.852  0.00  0.00    -0.265 OA
ENDROOT
BRANCH   2   4
ATOM      4  C   UNL d   1      32.927  23.005 -18.588  0.00  0.00     0.058 A 
ATOM      5  C   UNL d   1      33.086  22.292 -18.193  0.00  0.00     0.006 A 
ATOM      6  C   UNL d   1      33.165  22.290 -17.379  0.00  0.00     0.024 A 
ATOM      7  C   UNL d   1      33.087  22.996 -16.952  0.00  0.00     0.127 A 
ATOM      8  C   UNL d   1      32.929  23.701 -17.351  0.00  0.00     0.024 A 
ATOM      9  C   UNL d   1      32.850  23.698 -18.174  0.00  0.00     0.006 A 
BRANCH   7  10
ATOM     10  N   UNL d   1      33.168  22.992 -16.134  0.00  0.00    -0.114 N 
ATOM     11  O   UNL d   1      33.208  23.702 -15.716  0.00  0.00    -0.532 OA
ATOM     12  O   UNL d   1      33.208  22.277 -15.734  0.00  0.00    -0.532 OA
ENDBRANCH   7  10
ENDBRANCH   2   4
BRANCH   1  13
ATOM     13  C   UNL d   1      32.419  22.344 -20.605  0.00  0.00     0.275 C 
ATOM     14  S   UNL d   1      32.104  23.001 -20.991  0.00  0.00    -0.023 SA
BRANCH  13  15
ATOM     15  N   UNL d   1      32.649  21.685 -21.041  0.00  0.00    -0.369 NA
BRANCH  15  16
ATOM     16  C   UNL d   1      32.870  21.037 -21.470  0.00  0.00     0.180 A 
ATOM     17  C   UNL d   1      33.050  20.922 -22.175  0.00  0.00     0.255 A 
ATOM     18  S   UNL d   1      33.233  20.238 -22.402  0.00  0.00    -0.043 SA
ATOM     19  O   UNL d   1      33.050  21.477 -22.652  0.00  0.00    -0.277 OA
ATOM     20  C   UNL d   1      33.233  19.684 -21.924  0.00  0.00     0.041 A 
ATOM     21  C   UNL d   1      33.053  19.798 -21.220  0.00  0.00     0.043 A 
ENDBRANCH  15  16
ENDBRANCH  13  15
ENDBRANCH   1  13
TORSDOF 5
ENDMDL
MODEL 3
REMARK VINA RESULT:      -2.3      0.992      1.201
REMARK  5 active torsions:
REMARK  status: ('A' for Active; 'I' for Inactive)
REMARK    1  A    between atoms: C_8  and  N_1 
REMARK       I    between atoms: N_2  and  C_4 
REMARK    2  A    between atoms: C_3  and  N_2 
REMARK    3  A    between atoms: N_6  and  C_3 
REMARK    4  A    between atoms: C_4  and  C_12 
REMARK    5  A    between atoms: C_7  and  N_6 
ROOT
ATOM      1  N   UNL d   1      32.833  18.983 -23.102  0.00  0.00    -0.168 NA
ATOM      2  C   UNL d   1      33.055  19.775 -23.166  0.00  0.00     0.282 C 
ATOM      3  O   UNL d   1      33.241  20.093 -23.898  0.00  0.00    -0.265 OA
ENDROOT
BRANCH   2   4
ATOM      4  C   UNL d   1      33.090  20.247 -22.488  0.00  0.00     0.058 A 
ATOM      5  C   UNL d   1      33.166  21.070 -22.569  0.00  0.00     0.006 A 
ATOM      6  C   UNL d   1      33.200  21.541 -21.902  0.00  0.00     0.024 A 
ATOM      7  C   UNL d   1      33.160  21.198 -21.148  0.00  0.00     0.127 A 
ATOM      8  C   UNL d   1      33.085  20.378 -21.074  0.00  0.00     0.024 A 
ATOM      9  C   UNL d   1      33.050  19.907 -21.752  0.00  0.00     0.006 A 
BRANCH   7  10
ATOM     10  N   UNL d   1      33.195  21.673 -20.479  0.00  0.00    -0.114 N 
ATOM     11  O   UNL d   1      33.229  21.332 -19.727  0.00  0.00    -0.532 OA
ATOM     12  O   UNL d   1      33.197  22.489 -20.560  0.00  0.00    -0.532 OA
ENDBRANCH   7  10
ENDBRANCH   2   4
BRANCH   1  13
ATOM     13  C   UNL d   1      32.796  18.507 -23.772  0.00  0.00     0.275 C 
ATOM     14  S   UNL d   1      33.132  18.770 -24.477  0.00  0.00    -0.023 SA
BRANCH  13  15
ATOM     15  N   UNL d   1      32.427  17.772 -23.744  0.00  0.00    -0.369 NA
BRANCH  15  16
ATOM     16  C   UNL d   1      32.061  17.053 -23.714  0.00  0.00     0.180 A 
ATOM     17  C   UNL d   1      32.291  16.362 -23.601  0.00  0.00     0.255 A 
ATOM     18  S   UNL d   1      31.799  15.804 -23.607  0.00  0.00    -0.043 SA
ATOM     19  O   UNL d   1      32.999  16.222 -23.482  0.00  0.00    -0.277 OA
ATOM     20  C   UNL d   1      31.090  15.945 -23.726  0.00  0.00     0.041 A 
ATOM     21  C   UNL d   1      30.861  16.635 -23.839  0.00  0.00     0.043 A 
ENDBRANCH  15  16
ENDBRANCH  13  15
ENDBRANCH   1  13
TORSDOF 5
ENDMDL
MODEL 4
REMARK VINA RESULT:      -1.9      2.152      4.950
REMARK  5 active torsions:
REMARK  status: ('A' for Active; 'I' for Inactive)
REMARK    1  A    between atoms: C_8  and  N_1 
REMARK       I    between atoms: N_2  and  C_4 
REMARK    2  A    between atoms: C_3  and  N_2 
REMARK    3  A    between atoms: N_6  and  C_3 
REMARK    4  A    between atoms: C_4  and  C_12 
REMARK    5  A    between atoms: C_7  and  N_6 
ROOT
ATOM      1  N   UNL d   1      32.889  19.904 -22.515  0.00  0.00    -0.168 NA
ATOM      2  C   UNL d   1      32.963  19.524 -23.244  0.00  0.00     0.282 C 
ATOM      3  O   UNL d   1      33.138  19.957 -23.918  0.00  0.00    -0.265 OA
ENDROOT
BRANCH   2   4
ATOM      4  C   UNL d   1      32.860  18.705 -23.292  0.00  0.00     0.058 A 
ATOM      5  C   UNL d   1      32.405  18.388 -23.910  0.00  0.00     0.006 A 
ATOM      6  C   UNL d   1      32.300  17.579 -23.961  0.00  0.00     0.024 A 
ATOM      7  C   UNL d   1      32.648  17.078 -23.399  0.00  0.00     0.127 A 
ATOM      8  C   UNL d   1      33.099  17.400 -22.787  0.00  0.00     0.024 A 
ATOM      9  C   UNL d   1      33.202  18.218 -22.740  0.00  0.00     0.006 A 
BRANCH   7  10
ATOM     10  N   UNL d   1      32.541  16.265 -23.453  0.00  0.00    -0.114 N 
ATOM     11  O   UNL d   1      32.982  15.822 -23.993  0.00  0.00    -0.532 OA
ATOM     12  O   UNL d   1      31.995  15.894 -22.966  0.00  0.00    -0.532 OA
ENDBRANCH   7  10
ENDBRANCH   2   4
BRANCH   1  13
ATOM     13  C   UNL d   1      32.990  20.719 -22.460  0.00  0.00     0.275 C 
ATOM     14  S   UNL d   1      33.241  21.144 -23.120  0.00  0.00    -0.023 SA
BRANCH  13  15
ATOM     15  N   UNL d   1      32.843  21.111 -21.752  0.00  0.00    -0.369 NA
BRANCH  15  16
ATOM     16  C   UNL d   1      32.694  21.496 -21.058  0.00  0.00     0.180 A 
ATOM     17  C   UNL d   1      32.188  21.984 -20.837  0.00  0.00     0.255 A 
ATOM     18  S   UNL d   1      32.203  22.240 -20.139  0.00  0.00    -0.043 SA
ATOM     19  O   UNL d   1      31.671  22.217 -21.300  0.00  0.00    -0.277 OA
ATOM     20  C   UNL d   1      32.720  22.006 -19.677  0.00  0.00     0.041 A 
ATOM     21  C   UNL d   1      33.225  21.519 -19.897  0.00  0.00     0.043 A 
ENDBRANCH  15  16
ENDBRANCH  13  15
ENDBRANCH   1  13
TORSDOF 5
ENDMDL
MODEL 5
REMARK VINA RESULT:      -1.7      2.019      3.063
REMARK  5 active torsions:
REMARK  status: ('A' for Active; 'I' for Inactive)
REMARK    1  A    between atoms: C_8  and  N_1 
REMARK       I    between atoms: N_2  and  C_4 
REMARK    2  A    between atoms: C_3  and  N_2 
REMARK    3  A    between atoms: N_6  and  C_3 
REMARK    4  A    between atoms: C_4  and  C_12 
REMARK    5  A    between atoms: C_7  and  N_6 
ROOT
ATOM      1  N   UNL d   1      32.960  20.746 -22.369  0.00  0.00    -0.168 NA
ATOM      2  C   UNL d   1      32.933  21.570 -22.338  0.00  0.00     0.282 C 
ATOM      3  O   UNL d   1      32.990  22.011 -23.027  0.00  0.00    -0.265 OA
ENDROOT
BRANCH   2   4
ATOM      4  C   UNL d   1      32.849  21.951 -21.608  0.00  0.00     0.058 A 
ATOM      5  C   UNL d   1      32.415  21.580 -21.005  0.00  0.00     0.006 A 
ATOM      6  C   UNL d   1      32.329  21.953 -20.281  0.00  0.00     0.024 A 
ATOM      7  C   UNL d   1      32.674  22.696 -20.153  0.00  0.00     0.127 A 
ATOM      8  C   UNL d   1      33.105  23.058 -20.758  0.00  0.00     0.024 A 
ATOM      9  C   UNL d   1      33.188  22.677 -21.486  0.00  0.00     0.006 A 
BRANCH   7  10
ATOM     10  N   UNL d   1      32.587  23.068 -19.426  0.00  0.00    -0.114 N 
ATOM     11  O   UNL d   1      33.074  22.862 -18.791  0.00  0.00    -0.532 OA
ATOM     12  O   UNL d   1      32.013  23.646 -19.332  0.00  0.00    -0.532 OA
ENDBRANCH   7  10
ENDBRANCH   2   4
BRANCH   1  13
ATOM     13  C   UNL d   1      33.044  20.361 -23.091  0.00  0.00     0.275 C 
ATOM     14  S   UNL d   1      33.238  20.795 -23.764  0.00  0.00    -0.023 SA
BRANCH  13  15
ATOM     15  N   UNL d   1      32.935  19.547 -23.146  0.00  0.00    -0.369 NA
BRANCH  15  16
ATOM     16  C   UNL d   1      32.827  18.749 -23.195  0.00  0.00     0.180 A 
ATOM     17  C   UNL d   1      32.445  18.306 -23.643  0.00  0.00     0.255 A 
ATOM     18  S   UNL d   1      32.462  17.570 -23.537  0.00  0.00    -0.043 SA
ATOM     19  O   UNL d   1      32.048  18.587 -24.190  0.00  0.00    -0.277 OA
ATOM     20  C   UNL d   1      32.859  17.290 -22.989  0.00  0.00     0.041 A 
ATOM     21  C   UNL d   1      33.241  17.732 -22.542  0.00  0.00     0.043 A 
ENDBRANCH  15  16
ENDBRANCH  13  15
ENDBRANCH   1  13
TORSDOF 5
ENDMDL
MODEL 6
REMARK VINA RESULT:      -0.6      4.208      6.243
REMARK  5 active torsions:
REMARK  status: ('A' for Active; 'I' for Inactive)
REMARK    1  A    between atoms: C_8  and  N_1 
REMARK       I    between atoms: N_2  and  C_4 
REMARK    2  A    between atoms: C_3  and  N_2 
REMARK    3  A    between atoms: N_6  and  C_3 
REMARK    4  A    between atoms: C_4  and  C_12 
REMARK    5  A    between atoms: C_7  and  N_6 
ROOT
ATOM      1  N   UNL d   1      33.204  21.898 -20.704  0.00  0.00    -0.168 NA
ATOM      2  C   UNL d   1      32.746  21.585 -21.315  0.00  0.00     0.282 C 
ATOM      3  O   UNL d   1      32.193  21.001 -21.158  0.00  0.00    -0.265 OA
ENDROOT
BRANCH   2   4
ATOM      4  C   UNL d   1      32.848  21.863 -22.088  0.00  0.00     0.058 A 
ATOM      5  C   UNL d   1      32.649  22.650 -22.265  0.00  0.00     0.006 A 
ATOM      6  C   UNL d   1      32.747  22.929 -23.028  0.00  0.00     0.024 A 
ATOM      7  C   UNL d   1      33.044  22.429 -23.619  0.00  0.00     0.127 A 
ATOM      8  C   UNL d   1      33.240  21.648 -23.435  0.00  0.00     0.024 A 
ATOM      9  C   UNL d   1      33.138  21.371 -22.663  0.00  0.00     0.006 A 
BRANCH   7  10
ATOM     10  N   UNL d   1      33.142  22.712 -24.384  0.00  0.00    -0.114 N 
ATOM     11  O   UNL d   1      33.189  22.187 -25.019  0.00  0.00    -0.532 OA
ATOM     12  O   UNL d   1      33.193  23.520 -24.514  0.00  0.00    -0.532 OA
ENDBRANCH   7  10
ENDBRANCH   2   4
BRANCH   1  13
ATOM     13  C   UNL d   1      33.109  21.626 -19.934  0.00  0.00     0.275 C 
ATOM     14  S   UNL d   1      33.112  20.816 -19.784  0.00  0.00    -0.023 SA
BRANCH  13  15
ATOM     15  N   UNL d   1      33.010  22.157 -19.312  0.00  0.00    -0.369 NA
BRANCH  15  16
ATOM     16  C   UNL d   1      32.912  22.680 -18.706  0.00  0.00     0.180 A 
ATOM     17  C   UNL d   1      32.590  23.339 -18.640  0.00  0.00     0.255 A 
ATOM     18  S   UNL d   1      32.595  23.689 -17.984  0.00  0.00    -0.043 SA
ATOM     19  O   UNL d   1      32.266  23.652 -19.217  0.00  0.00    -0.277 OA
ATOM     20  C   UNL d   1      32.920  23.375 -17.407  0.00  0.00     0.041 A 
ATOM     21  C   UNL d   1      33.241  22.717 -17.472  0.00  0.00     0.043 A 
ENDBRANCH  15  16
ENDBRANCH  13  15
ENDBRANCH   1  13
TORSDOF 5
ENDMDL
MODEL 7
REMARK VINA RESULT:      -0.5      4.124      6.813
REMARK  5 active torsions:
REMARK  status: ('A' for Active; 'I' for Inactive)
REMARK    1  A    between atoms: C_8  and  N_1 
REMARK       I    between atoms: N_2  and  C_4 
REMARK    2  A    between atoms: C_3  and  N_2 
REMARK    3  A    between atoms: N_6  and  C_3 
REMARK    4  A    between atoms: C_4  and  C_12 
REMARK    5  A    between atoms: C_7  and  N_6 
ROOT
ATOM      1  N   UNL d   1      33.194  22.292 -19.402  0.00  0.00    -0.168 NA
ATOM      2  C   UNL d   1      32.739  22.292 -20.090  0.00  0.00     0.282 C 
ATOM      3  O   UNL d   1      32.272  22.940 -20.275  0.00  0.00    -0.265 OA
ENDROOT
BRANCH   2   4
ATOM      4  C   UNL d   1      32.754  21.635 -20.592  0.00  0.00     0.058 A 
ATOM      5  C   UNL d   1      33.187  20.962 -20.368  0.00  0.00     0.006 A 
ATOM      6  C   UNL d   1      33.206  20.310 -20.861  0.00  0.00     0.024 A 
ATOM      7  C   UNL d   1      32.795  20.322 -21.581  0.00  0.00     0.127 A 
ATOM      8  C   UNL d   1      32.367  20.994 -21.798  0.00  0.00     0.024 A 
ATOM      9  C   UNL d   1      32.351  21.650 -21.296  0.00  0.00     0.006 A 
BRANCH   7  10
ATOM     10  N   UNL d   1      32.815  19.666 -22.075  0.00  0.00    -0.114 N 
ATOM     11  O   UNL d   1      32.505  19.711 -22.840  0.00  0.00    -0.532 OA
ATOM     12  O   UNL d   1      33.145  18.965 -21.806  0.00  0.00    -0.532 OA
ENDBRANCH   7  10
ENDBRANCH   2   4
BRANCH   1  13
ATOM     13  C   UNL d   1      33.183  22.942 -18.897  0.00  0.00     0.275 C 
ATOM     14  S   UNL d   1      33.170  23.702 -19.213  0.00  0.00    -0.023 SA
BRANCH  13  15
ATOM     15  N   UNL d   1      33.186  22.837 -18.081  0.00  0.00    -0.369 NA
BRANCH  15  16
ATOM     16  C   UNL d   1      33.184  22.737 -17.280  0.00  0.00     0.180 A 
ATOM     17  C   UNL d   1      33.208  22.152 -16.833  0.00  0.00     0.255 A 
ATOM     18  S   UNL d   1      33.198  22.250 -16.096  0.00  0.00    -0.043 SA
ATOM     19  O   UNL d   1      33.240  21.476 -17.110  0.00  0.00    -0.277 OA
ATOM     20  C   UNL d   1      33.165  22.928 -15.819  0.00  0.00     0.041 A 
ATOM     21  C   UNL d   1      33.142  23.512 -16.265  0.00  0.00     0.043 A 
ENDBRANCH  15  16
ENDBRANCH  13  15
ENDBRANCH   1  13
TORSDOF 5
ENDMDL
MODEL 8
REMARK VINA RESULT:      -0.1      3.156      5.825
REMARK  5 active torsions:
REMARK  status: ('A' for Active; 'I' for Inactive)
REMARK    1  A    between atoms: C_8  and  N_1 
REMARK       I    between atoms: N_2  and  C_4 
REMARK    2  A    between atoms: C_3  and  N_2 
REMARK    3  A    between atoms: N_6  and  C_3 
REMARK    4  A    between atoms: C_4  and  C_12 
REMARK    5  A    between atoms: C_7  and  N_6 
ROOT
ATOM      1  N   UNL d   1      32.774  21.836 -21.489  0.00  0.00    -0.168 NA
ATOM      2  C   UNL d   1      32.903  21.558 -22.255  0.00  0.00     0.282 C 
ATOM      3  O   UNL d   1      33.033  22.086 -22.869  0.00  0.00    -0.265 OA
ENDROOT
BRANCH   2   4
ATOM      4  C   UNL d   1      32.900  20.744 -22.402  0.00  0.00     0.058 A 
ATOM      5  C   UNL d   1      32.547  20.459 -23.098  0.00  0.00     0.006 A 
ATOM      6  C   UNL d   1      32.542  19.654 -23.248  0.00  0.00     0.024 A 
ATOM      7  C   UNL d   1      32.886  19.129 -22.708  0.00  0.00     0.127 A 
ATOM      8  C   UNL d   1      33.235  19.420 -22.018  0.00  0.00     0.024 A 
ATOM      9  C   UNL d   1      33.238  20.233 -21.871  0.00  0.00     0.006 A 
BRANCH   7  10
ATOM     10  N   UNL d   1      32.880  18.321 -22.860  0.00  0.00    -0.114 N 
ATOM     11  O   UNL d   1      32.619  18.037 -23.591  0.00  0.00    -0.532 OA
ATOM     12  O   UNL d   1      33.133  17.797 -22.282  0.00  0.00    -0.532 OA
ENDBRANCH   7  10
ENDBRANCH   2   4
BRANCH   1  13
ATOM     13  C   UNL d   1      32.776  22.644 -21.336  0.00  0.00     0.275 C 
ATOM     14  S   UNL d   1      32.912  23.176 -21.951  0.00  0.00    -0.023 SA
BRANCH  13  15
ATOM     15  N   UNL d   1      32.644  22.925 -20.574  0.00  0.00    -0.369 NA
BRANCH  15  16
ATOM     16  C   UNL d   1      32.517  23.203 -19.826  0.00  0.00     0.180 A 
ATOM     17  C   UNL d   1      31.939  23.493 -19.475  0.00  0.00     0.255 A 
ATOM     18  S   UNL d   1      32.005  23.701 -18.764  0.00  0.00    -0.043 SA
ATOM     19  O   UNL d   1      31.299  23.578 -19.821  0.00  0.00    -0.277 OA
ATOM     20  C   UNL d   1      32.645  23.616 -18.418  0.00  0.00     0.041 A 
ATOM     21  C   UNL d   1      33.223  23.327 -18.769  0.00  0.00     0.043 A 
ENDBRANCH  15  16
ENDBRANCH  13  15
ENDBRANCH   1  13
TORSDOF 5
ENDMDL
