MODEL 1
REMARK VINA RESULT:      46.8      0.000      0.000
REMARK  4 active torsions:
REMARK  status: ('A' for Active; 'I' for Inactive)
REMARK       I    between atoms: C_6  and  N_7 
REMARK    1  A    between atoms: C_9  and  C_6 
REMARK    2  A    between atoms: N_7  and  C_15 
REMARK    3  A    between atoms: C_15  and  C_14 
REMARK    4  A    between atoms: O_22  and  C_18 
ROOT
ATOM      1  C   UNL d   1      14.724  13.754  -1.092  0.00  0.00     0.102 C 
ENDROOT
BRANCH   1   2
ATOM      2  N   UNL d   1      14.325  13.515  -1.764  0.00  0.00    -0.206 NA
ATOM      3  C   UNL d   1      14.405  12.752  -2.054  0.00  0.00     0.279 C 
ATOM      4  O   UNL d   1      14.896  12.217  -1.663  0.00  0.00    -0.265 OA
BRANCH   3   5
ATOM      5  C   UNL d   1      14.002  12.510  -2.733  0.00  0.00     0.058 A 
ATOM      6  C   UNL d   1      14.395  12.466  -3.457  0.00  0.00     0.007 A 
ATOM      7  C   UNL d   1      13.979  12.222  -4.127  0.00  0.00     0.024 A 
ATOM      8  C   UNL d   1      13.193  12.024  -4.087  0.00  0.00     0.094 A 
ATOM      9  C   UNL d   1      12.793  12.068  -3.349  0.00  0.00     0.024 A 
ATOM     10  C   UNL d   1      13.195  12.311  -2.671  0.00  0.00     0.007 A 
BRANCH   8  11
ATOM     11  O   UNL d   1      12.774  11.780  -4.749  0.00  0.00    -0.328 OA
ATOM     12  C   UNL d   1      13.156  11.785  -5.490  0.00  0.00     0.181 C 
ENDBRANCH   8  11
ENDBRANCH   3   5
ENDBRANCH   1   2
BRANCH   1  13
ATOM     13  C   UNL d   1      14.924  14.545  -0.984  0.00  0.00     0.019 A 
ATOM     14  C   UNL d   1      15.297  14.788  -0.280  0.00  0.00     0.003 A 
ATOM     15  C   UNL d   1      15.498  15.582  -0.172  0.00  0.00     0.018 A 
ATOM     16  C   UNL d   1      15.328  16.132  -0.760  0.00  0.00     0.064 A 
ATOM     17  N   UNL d   1      15.458  16.943  -0.809  0.00  0.00    -0.304 N 
ATOM     18  C   UNL d   1      14.958  15.900  -1.459  0.00  0.00     0.018 A 
ATOM     19  C   UNL d   1      15.172  17.209  -1.532  0.00  0.00     0.064 A 
ATOM     20  C   UNL d   1      15.817  17.408  -0.228  0.00  0.00     0.099 C 
ATOM     21  C   UNL d   1      14.863  16.560  -1.932  0.00  0.00     0.019 A 
ATOM     22  C   UNL d   1      15.189  17.986  -1.809  0.00  0.00     0.019 C 
ATOM     23  C   UNL d   1      14.754  15.099  -1.573  0.00  0.00     0.003 A 
ENDBRANCH   1  13
TORSDOF 4
ENDMDL
MODEL 2
REMARK VINA RESULT:      48.1      3.030      4.257
REMARK  4 active torsions:
REMARK  status: ('A' for Active; 'I' for Inactive)
REMARK       I    between atoms: C_6  and  N_7 
REMARK    1  A    between atoms: C_9  and  C_6 
REMARK    2  A    between atoms: N_7  and  C_15 
REMARK    3  A    between atoms: C_15  and  C_14 
REMARK    4  A    between atoms: O_22  and  C_18 
ROOT
ATOM      1  C   UNL d   1      13.185  12.587  -3.802  0.00  0.00     0.102 C 
ENDROOT
BRANCH   1   2
ATOM      2  N   UNL d   1      13.258  13.345  -4.097  0.00  0.00    -0.206 NA
ATOM      3  C   UNL d   1      13.359  13.480  -4.899  0.00  0.00     0.279 C 
ATOM      4  O   UNL d   1      13.387  12.839  -5.418  0.00  0.00    -0.265 OA
BRANCH   3   5
ATOM      5  C   UNL d   1      13.433  14.246  -5.197  0.00  0.00     0.058 A 
ATOM      6  C   UNL d   1      14.061  14.440  -5.696  0.00  0.00     0.007 A 
ATOM      7  C   UNL d   1      14.122  15.210  -5.987  0.00  0.00     0.024 A 
ATOM      8  C   UNL d   1      13.577  15.779  -5.792  0.00  0.00     0.094 A 
ATOM      9  C   UNL d   1      12.937  15.581  -5.284  0.00  0.00     0.024 A 
ATOM     10  C   UNL d   1      12.863  14.815  -4.985  0.00  0.00     0.007 A 
BRANCH   8  11
ATOM     11  O   UNL d   1      13.631  16.546  -6.077  0.00  0.00    -0.328 OA
ATOM     12  C   UNL d   1      14.303  17.000  -5.882  0.00  0.00     0.181 C 
ENDBRANCH   8  11
ENDBRANCH   3   5
ENDBRANCH   1   2
BRANCH   1  13
ATOM     13  C   UNL d   1      13.381  12.421  -3.020  0.00  0.00     0.019 A 
ATOM     14  C   UNL d   1      12.781  12.298  -2.456  0.00  0.00     0.003 A 
ATOM     15  C   UNL d   1      12.979  12.131  -1.671  0.00  0.00     0.018 A 
ATOM     16  C   UNL d   1      13.770  12.086  -1.449  0.00  0.00     0.064 A 
ATOM     17  N   UNL d   1      14.130  11.933  -0.724  0.00  0.00    -0.304 N 
ATOM     18  C   UNL d   1      14.371  12.206  -2.000  0.00  0.00     0.018 A 
ATOM     19  C   UNL d   1      14.945  11.957  -0.829  0.00  0.00     0.064 A 
ATOM     20  C   UNL d   1      13.736  11.780  -0.015  0.00  0.00     0.099 C 
ATOM     21  C   UNL d   1      15.090  12.127  -1.621  0.00  0.00     0.019 A 
ATOM     22  C   UNL d   1      15.516  11.835  -0.247  0.00  0.00     0.019 C 
ATOM     23  C   UNL d   1      14.175  12.375  -2.794  0.00  0.00     0.003 A 
ENDBRANCH   1  13
TORSDOF 4
ENDMDL
