MODEL 1
REMARK VINA RESULT:      -9.6      0.000      0.000
REMARK  0 active torsions:
REMARK  status: ('A' for Active; 'I' for Inactive)
ROOT
ATOM      1  C   UNL d   1      52.888  34.417  53.997  0.00  0.00     0.094 A 
ATOM      2  C   UNL d   1      52.333  34.222  53.419  0.00  0.00     0.143 A 
ATOM      3  S   UNL d   1      52.301  33.453  53.121  0.00  0.00    -0.055 SA
ATOM      4  C   UNL d   1      53.410  33.845  54.278  0.00  0.00     0.013 A 
ATOM      5  C   UNL d   1      52.824  32.880  53.403  0.00  0.00     0.086 A 
ATOM      6  C   UNL d   1      53.379  33.075  53.981  0.00  0.00     0.017 A 
ATOM      7  C   UNL d   1      52.920  35.187  54.294  0.00  0.00     0.103 C 
ATOM      8  N   UNL d   1      52.953  35.950  54.590  0.00  0.00    -0.191 NA
ATOM      9  S   UNL d   1      52.793  32.105  53.105  0.00  0.00    -0.071 SA
ATOM     10  N   UNL d   1      51.812  34.790  53.137  0.00  0.00    -0.140 N 
ATOM     11  C   UNL d   1      53.964  34.040  54.856  0.00  0.00     0.001 A 
ATOM     12  C   UNL d   1      53.901  32.502  54.262  0.00  0.00     0.001 A 
ATOM     13  C   UNL d   1      54.487  33.467  55.137  0.00  0.00     0.000 A 
ATOM     14  C   UNL d   1      54.455  32.697  54.840  0.00  0.00     0.000 A 
ENDROOT
TORSDOF 0
ENDMDL
MODEL 2
REMARK VINA RESULT:      -9.4      1.237      2.107
REMARK  0 active torsions:
REMARK  status: ('A' for Active; 'I' for Inactive)
ROOT
ATOM      1  C   UNL d   1      52.769  33.052  53.328  0.00  0.00     0.094 A 
ATOM      2  C   UNL d   1      52.292  33.672  53.067  0.00  0.00     0.143 A 
ATOM      3  S   UNL d   1      52.360  34.419  53.412  0.00  0.00    -0.055 SA
ATOM      4  C   UNL d   1      53.313  33.178  53.934  0.00  0.00     0.013 A 
ATOM      5  C   UNL d   1      52.905  34.544  54.018  0.00  0.00     0.086 A 
ATOM      6  C   UNL d   1      53.382  33.924  54.279  0.00  0.00     0.017 A 
ATOM      7  C   UNL d   1      52.700  32.306  52.983  0.00  0.00     0.103 C 
ATOM      8  N   UNL d   1      52.633  31.564  52.641  0.00  0.00    -0.191 NA
ATOM      9  S   UNL d   1      52.976  35.294  54.367  0.00  0.00    -0.071 SA
ATOM     10  N   UNL d   1      51.748  33.550  52.465  0.00  0.00    -0.140 N 
ATOM     11  C   UNL d   1      53.790  32.558  54.194  0.00  0.00     0.001 A 
ATOM     12  C   UNL d   1      53.928  34.050  54.886  0.00  0.00     0.001 A 
ATOM     13  C   UNL d   1      54.336  32.684  54.801  0.00  0.00     0.000 A 
ATOM     14  C   UNL d   1      54.404  33.431  55.146  0.00  0.00     0.000 A 
ENDROOT
TORSDOF 0
ENDMDL
MODEL 3
REMARK VINA RESULT:      -8.9      1.185      2.172
REMARK  0 active torsions:
REMARK  status: ('A' for Active; 'I' for Inactive)
ROOT
ATOM      1  C   UNL d   1      53.285  33.658  54.370  0.00  0.00     0.094 A 
ATOM      2  C   UNL d   1      53.715  32.970  54.517  0.00  0.00     0.143 A 
ATOM      3  S   UNL d   1      53.596  32.300  54.050  0.00  0.00    -0.055 SA
ATOM      4  C   UNL d   1      52.736  33.677  53.755  0.00  0.00     0.013 A 
ATOM      5  C   UNL d   1      53.046  32.320  53.434  0.00  0.00     0.086 A 
ATOM      6  C   UNL d   1      52.616  33.008  53.287  0.00  0.00     0.017 A 
ATOM      7  C   UNL d   1      53.405  34.327  54.838  0.00  0.00     0.103 C 
ATOM      8  N   UNL d   1      53.522  34.992  55.301  0.00  0.00    -0.191 NA
ATOM      9  S   UNL d   1      52.924  31.647  52.963  0.00  0.00    -0.071 SA
ATOM     10  N   UNL d   1      54.262  32.948  55.128  0.00  0.00    -0.140 N 
ATOM     11  C   UNL d   1      52.306  34.364  53.608  0.00  0.00     0.001 A 
ATOM     12  C   UNL d   1      52.066  33.026  52.672  0.00  0.00     0.001 A 
ATOM     13  C   UNL d   1      51.756  34.384  52.992  0.00  0.00     0.000 A 
ATOM     14  C   UNL d   1      51.636  33.714  52.525  0.00  0.00     0.000 A 
ENDROOT
TORSDOF 0
ENDMDL
MODEL 4
REMARK VINA RESULT:      -8.9      1.831      3.022
REMARK  0 active torsions:
REMARK  status: ('A' for Active; 'I' for Inactive)
ROOT
ATOM      1  C   UNL d   1      53.003  32.545  53.447  0.00  0.00     0.094 A 
ATOM      2  C   UNL d   1      53.579  32.537  54.038  0.00  0.00     0.143 A 
ATOM      3  S   UNL d   1      53.728  33.218  54.478  0.00  0.00    -0.055 SA
ATOM      4  C   UNL d   1      52.577  33.234  53.297  0.00  0.00     0.013 A 
ATOM      5  C   UNL d   1      53.301  33.908  54.328  0.00  0.00     0.086 A 
ATOM      6  C   UNL d   1      52.725  33.916  53.737  0.00  0.00     0.017 A 
ATOM      7  C   UNL d   1      52.855  31.863  53.007  0.00  0.00     0.103 C 
ATOM      8  N   UNL d   1      52.706  31.186  52.569  0.00  0.00    -0.191 NA
ATOM      9  S   UNL d   1      53.449  34.595  54.769  0.00  0.00    -0.071 SA
ATOM     10  N   UNL d   1      54.005  31.853  54.190  0.00  0.00    -0.140 N 
ATOM     11  C   UNL d   1      52.002  33.242  52.707  0.00  0.00     0.001 A 
ATOM     12  C   UNL d   1      52.298  34.606  53.587  0.00  0.00     0.001 A 
ATOM     13  C   UNL d   1      51.574  33.932  52.556  0.00  0.00     0.000 A 
ATOM     14  C   UNL d   1      51.723  34.614  52.997  0.00  0.00     0.000 A 
ENDROOT
TORSDOF 0
ENDMDL
