MODEL 1
REMARK VINA RESULT:      80.5      0.000      0.000
REMARK  6 active torsions:
REMARK  status: ('A' for Active; 'I' for Inactive)
REMARK       I    between atoms: C_2  and  N_1 
REMARK    1  A    between atoms: O_20  and  C_2 
REMARK       I    between atoms: C_5  and  N_3 
REMARK    2  A    between atoms: C_15  and  C_5 
REMARK    3  A    between atoms: C_7  and  S_13 
REMARK    4  A    between atoms: C_18  and  C_8 
REMARK    5  A    between atoms: S_13  and  C_15 
REMARK    6  A    between atoms: C_26  and  O_20 
ROOT
ATOM      1  C   UNL d   1     -55.058-101.180 -40.716  0.00  0.00     0.098 C 
ENDROOT
BRANCH   1   2
ATOM      2  S   UNL d   1     -55.691-101.164 -41.238  0.00  0.00    -0.061 SA
BRANCH   2   3
ATOM      3  C   UNL d   1     -55.570-101.280 -42.045  0.00  0.00     0.133 A 
ATOM      4  N   UNL d   1     -54.841-101.121 -42.384  0.00  0.00    -0.141 NA
ATOM      5  N   UNL d   1     -54.720-101.237 -43.192  0.00  0.00    -0.148 NA
ATOM      6  C   UNL d   1     -55.337-101.518 -43.669  0.00  0.00     0.103 A 
ATOM      7  C   UNL d   1     -56.074-101.679 -43.329  0.00  0.00     0.023 A 
ATOM      8  C   UNL d   1     -56.192-101.562 -42.523  0.00  0.00     0.029 A 
BRANCH   6   9
ATOM      9  C   UNL d   1     -55.216-101.634 -44.476  0.00  0.00     0.022 A 
ATOM     10  C   UNL d   1     -55.196-102.409 -44.774  0.00  0.00     0.022 A 
ATOM     11  C   UNL d   1     -55.074-102.516 -45.584  0.00  0.00     0.099 A 
ATOM     12  N   UNL d   1     -54.975-101.873 -46.080  0.00  0.00    -0.242 NA
ATOM     13  C   UNL d   1     -54.997-101.102 -45.768  0.00  0.00     0.099 A 
ATOM     14  C   UNL d   1     -55.118-100.991 -44.966  0.00  0.00     0.022 A 
ENDBRANCH   6   9
ENDBRANCH   2   3
ENDBRANCH   1   2
BRANCH   1  15
ATOM     15  C   UNL d   1     -54.886-101.877 -40.304  0.00  0.00     0.272 C 
ATOM     16  N   UNL d   1     -54.890-101.877 -39.482  0.00  0.00    -0.269 N 
ATOM     17  C   UNL d   1     -54.720-102.566 -39.075  0.00  0.00     0.102 A 
ATOM     18  C   UNL d   1     -55.066-101.178 -39.072  0.00  0.00     0.102 A 
ATOM     19  C   UNL d   1     -54.723-102.571 -38.249  0.00  0.00     0.104 A 
ATOM     20  N   UNL d   1     -54.898-101.875 -37.838  0.00  0.00    -0.249 N 
ATOM     21  C   UNL d   1     -54.898-101.888 -37.018  0.00  0.00     0.378 C 
ATOM     22  C   UNL d   1     -55.067-101.187 -38.254  0.00  0.00     0.104 A 
ATOM     23  O   UNL d   1     -55.074-101.191 -36.607  0.00  0.00    -0.237 OA
ATOM     24  O   UNL d   1     -54.714-102.563 -40.708  0.00  0.00    -0.266 OA
BRANCH  21  25
ATOM     25  O   UNL d   1     -54.728-102.580 -36.609  0.00  0.00    -0.257 OA
BRANCH  25  26
ATOM     26  C   UNL d   1     -54.815-102.612 -35.798  0.00  0.00     0.128 C 
ATOM     27  C   UNL d   1     -55.200-102.014 -35.400  0.00  0.00     0.029 C 
ENDBRANCH  25  26
ENDBRANCH  21  25
ENDBRANCH   1  15
TORSDOF 6
ENDMDL
