MODEL 1
REMARK VINA RESULT:      29.8      0.000      0.000
REMARK  1 active torsions:
REMARK  status: ('A' for Active; 'I' for Inactive)
REMARK    1  A    between atoms: C_9  and  C_3 
ROOT
ATOM      1  C   UNL d   1     -58.439 -98.759 -44.365  0.00  0.00     0.035 A 
ATOM      2  N   UNL d   1     -57.879 -98.760 -42.981  0.00  0.00    -0.239 NA
ATOM      3  C   UNL d   1     -57.836 -98.760 -43.823  0.00  0.00     0.083 A 
ATOM      4  N   UNL d   1     -59.678 -98.759 -43.488  0.00  0.00    -0.207 NA
ATOM      5  C   UNL d   1     -59.267 -98.759 -44.218  0.00  0.00     0.086 A 
ATOM      6  C   UNL d   1     -59.359 -98.759 -42.728  0.00  0.00     0.298 A 
ATOM      7  C   UNL d   1     -58.161 -98.759 -45.115  0.00  0.00     0.003 A 
ATOM      8  C   UNL d   1     -58.546 -98.760 -42.508  0.00  0.00     0.161 A 
ATOM      9  C   UNL d   1     -59.796 -98.758 -44.848  0.00  0.00     0.019 A 
ATOM     10  O   UNL d   1     -59.918 -98.759 -42.098  0.00  0.00    -0.263 OA
ATOM     11  C   UNL d   1     -58.696 -98.758 -45.759  0.00  0.00     0.000 A 
ATOM     12  C   UNL d   1     -59.518 -98.758 -45.616  0.00  0.00     0.002 A 
ATOM     13  C   UNL d   1     -58.371 -98.758 -46.552  0.00  0.00     0.000 C 
ENDROOT
BRANCH   3  14
ATOM     14  C   UNL d   1     -57.085 -98.760 -44.136  0.00  0.00     0.018 A 
ATOM     15  C   UNL d   1     -56.965 -98.764 -44.944  0.00  0.00     0.002 A 
ATOM     16  C   UNL d   1     -56.180 -98.764 -45.262  0.00  0.00     0.000 A 
ATOM     17  C   UNL d   1     -55.543 -98.760 -44.738  0.00  0.00     0.000 A 
ATOM     18  C   UNL d   1     -55.671 -98.757 -43.928  0.00  0.00     0.000 A 
ATOM     19  C   UNL d   1     -56.450 -98.757 -43.626  0.00  0.00     0.002 A 
ENDBRANCH   3  14
TORSDOF 1
ENDMDL
MODEL 2
REMARK VINA RESULT:      32.3      1.520      2.401
REMARK  1 active torsions:
REMARK  status: ('A' for Active; 'I' for Inactive)
REMARK    1  A    between atoms: C_9  and  C_3 
ROOT
ATOM      1  C   UNL d   1     -58.548 -98.772 -44.793  0.00  0.00     0.035 A 
ATOM      2  N   UNL d   1     -57.941 -98.783 -46.158  0.00  0.00    -0.239 NA
ATOM      3  C   UNL d   1     -57.927 -98.780 -45.315  0.00  0.00     0.083 A 
ATOM      4  N   UNL d   1     -59.756 -98.763 -45.712  0.00  0.00    -0.207 NA
ATOM      5  C   UNL d   1     -59.371 -98.764 -44.969  0.00  0.00     0.086 A 
ATOM      6  C   UNL d   1     -59.412 -98.769 -46.461  0.00  0.00     0.298 A 
ATOM      7  C   UNL d   1     -58.296 -98.772 -44.035  0.00  0.00     0.003 A 
ATOM      8  C   UNL d   1     -58.591 -98.778 -46.653  0.00  0.00     0.161 A 
ATOM      9  C   UNL d   1     -59.920 -98.757 -44.357  0.00  0.00     0.019 A 
ATOM     10  O   UNL d   1     -59.949 -98.765 -47.110  0.00  0.00    -0.263 OA
ATOM     11  C   UNL d   1     -58.852 -98.764 -43.409  0.00  0.00     0.000 A 
ATOM     12  C   UNL d   1     -59.668 -98.756 -43.580  0.00  0.00     0.002 A 
ATOM     13  C   UNL d   1     -58.555 -98.765 -42.606  0.00  0.00     0.000 C 
ENDROOT
BRANCH   3  14
ATOM     14  C   UNL d   1     -57.187 -98.786 -44.976  0.00  0.00     0.018 A 
ATOM     15  C   UNL d   1     -57.094 -98.808 -44.165  0.00  0.00     0.002 A 
ATOM     16  C   UNL d   1     -56.321 -98.814 -43.820  0.00  0.00     0.000 A 
ATOM     17  C   UNL d   1     -55.667 -98.798 -44.322  0.00  0.00     0.000 A 
ATOM     18  C   UNL d   1     -55.767 -98.777 -45.136  0.00  0.00     0.000 A 
ATOM     19  C   UNL d   1     -56.535 -98.771 -45.465  0.00  0.00     0.002 A 
ENDBRANCH   3  14
TORSDOF 1
ENDMDL
