MODEL 1
REMARK VINA RESULT:      -1.9      0.000      0.000
REMARK  6 active torsions:
REMARK  status: ('A' for Active; 'I' for Inactive)
REMARK    1  A    between atoms: C_7  and  C_1 
REMARK    2  A    between atoms: C_6  and  C_2 
REMARK       I    between atoms: N_9  and  C_6 
REMARK    3  A    between atoms: O_16  and  C_7 
REMARK       I    between atoms: C_8  and  N_10 
REMARK    4  A    between atoms: C_14  and  C_8 
REMARK    5  A    between atoms: N_10  and  N_9 
REMARK    6  A    between atoms: C_20  and  O_16 
ROOT
ATOM      1  C   UNL d   1     -42.159-122.789 -50.348  0.00  0.00     0.083 A 
ATOM      2  C   UNL d   1     -41.632-122.138 -51.379  0.00  0.00     0.141 A 
ATOM      3  C   UNL d   1     -42.273-122.154 -50.861  0.00  0.00     0.029 A 
ATOM      4  N   UNL d   1     -41.131-122.752 -51.191  0.00  0.00    -0.240 NA
ATOM      5  C   UNL d   1     -41.448-123.165 -50.549  0.00  0.00     0.087 A 
ATOM      6  C   UNL d   1     -42.914-121.633 -50.851  0.00  0.00     0.002 C 
ATOM      7  C   UNL d   1     -41.123-123.817 -50.186  0.00  0.00     0.021 C 
ENDROOT
BRANCH   2   8
ATOM      8  C   UNL d   1     -41.523-121.585 -51.990  0.00  0.00     0.314 C 
ATOM      9  N   UNL d   1     -41.492-121.836 -52.771  0.00  0.00    -0.101 NA
ATOM     10  O   UNL d   1     -41.445-120.784 -51.810  0.00  0.00    -0.262 OA
BRANCH   9  11
ATOM     11  N   UNL d   1     -41.384-121.289 -53.380  0.00  0.00    -0.102 NA
ATOM     12  C   UNL d   1     -41.496-121.509 -54.165  0.00  0.00     0.297 C 
ATOM     13  O   UNL d   1     -41.384-120.953 -54.767  0.00  0.00    -0.264 OA
BRANCH  12  14
ATOM     14  C   UNL d   1     -41.717-122.280 -54.341  0.00  0.00     0.059 A 
ATOM     15  C   UNL d   1     -42.520-122.452 -54.447  0.00  0.00     0.005 A 
ATOM     16  C   UNL d   1     -42.750-123.231 -54.626  0.00  0.00     0.000 A 
ATOM     17  C   UNL d   1     -42.173-123.817 -54.694  0.00  0.00     0.000 A 
ATOM     18  C   UNL d   1     -41.379-123.641 -54.587  0.00  0.00     0.000 A 
ATOM     19  C   UNL d   1     -41.150-122.866 -54.410  0.00  0.00     0.005 A 
ENDBRANCH  12  14
ENDBRANCH   9  11
ENDBRANCH   2   8
BRANCH   1  20
ATOM     20  C   UNL d   1     -42.666-123.016 -49.734  0.00  0.00     0.302 C 
ATOM     21  O   UNL d   1     -43.232-123.602 -49.863  0.00  0.00    -0.259 OA
BRANCH  20  22
ATOM     22  O   UNL d   1     -42.606-122.656 -48.990  0.00  0.00    -0.271 OA
BRANCH  22  23
ATOM     23  C   UNL d   1     -42.878-123.045 -48.330  0.00  0.00     0.126 C 
ATOM     24  C   UNL d   1     -42.682-122.772 -47.575  0.00  0.00     0.029 C 
ENDBRANCH  22  23
ENDBRANCH  20  22
ENDBRANCH   1  20
TORSDOF 6
ENDMDL
MODEL 2
REMARK VINA RESULT:       0.3      1.362      1.868
REMARK  6 active torsions:
REMARK  status: ('A' for Active; 'I' for Inactive)
REMARK    1  A    between atoms: C_7  and  C_1 
REMARK    2  A    between atoms: C_6  and  C_2 
REMARK       I    between atoms: N_9  and  C_6 
REMARK    3  A    between atoms: O_16  and  C_7 
REMARK       I    between atoms: C_8  and  N_10 
REMARK    4  A    between atoms: C_14  and  C_8 
REMARK    5  A    between atoms: N_10  and  N_9 
REMARK    6  A    between atoms: C_20  and  O_16 
ROOT
ATOM      1  C   UNL d   1     -42.101-122.032 -50.960  0.00  0.00     0.083 A 
ATOM      2  C   UNL d   1     -41.540-122.521 -52.061  0.00  0.00     0.141 A 
ATOM      3  C   UNL d   1     -42.057-122.697 -51.444  0.00  0.00     0.029 A 
ATOM      4  N   UNL d   1     -41.268-121.759 -51.962  0.00  0.00    -0.240 NA
ATOM      5  C   UNL d   1     -41.611-121.444 -51.278  0.00  0.00     0.087 A 
ATOM      6  C   UNL d   1     -42.461-123.409 -51.326  0.00  0.00     0.002 C 
ATOM      7  C   UNL d   1     -41.489-120.697 -50.977  0.00  0.00     0.021 C 
ENDROOT
BRANCH   2   8
ATOM      8  C   UNL d   1     -41.335-123.038 -52.678  0.00  0.00     0.314 C 
ATOM      9  N   UNL d   1     -41.343-122.774 -53.455  0.00  0.00    -0.101 NA
ATOM     10  O   UNL d   1     -41.123-123.816 -52.509  0.00  0.00    -0.262 OA
BRANCH   9  11
ATOM     11  N   UNL d   1     -41.140-123.285 -54.071  0.00  0.00    -0.102 NA
ATOM     12  C   UNL d   1     -41.380-123.127 -54.843  0.00  0.00     0.297 C 
ATOM     13  O   UNL d   1     -41.170-123.646 -55.451  0.00  0.00    -0.264 OA
BRANCH  12  14
ATOM     14  C   UNL d   1     -41.825-122.455 -54.999  0.00  0.00     0.059 A 
ATOM     15  C   UNL d   1     -41.438-121.764 -55.237  0.00  0.00     0.005 A 
ATOM     16  C   UNL d   1     -41.884-121.080 -55.396  0.00  0.00     0.000 A 
ATOM     17  C   UNL d   1     -42.705-121.105 -55.313  0.00  0.00     0.000 A 
ATOM     18  C   UNL d   1     -43.083-121.793 -55.076  0.00  0.00     0.000 A 
ATOM     19  C   UNL d   1     -42.640-122.473 -54.918  0.00  0.00     0.005 A 
ENDBRANCH  12  14
ENDBRANCH   9  11
ENDBRANCH   2   8
BRANCH   1  20
ATOM     20  C   UNL d   1     -42.556-121.959 -50.272  0.00  0.00     0.302 C 
ATOM     21  O   UNL d   1     -43.350-121.741 -50.326  0.00  0.00    -0.259 OA
BRANCH  20  22
ATOM     22  O   UNL d   1     -42.216-122.104 -49.531  0.00  0.00    -0.271 OA
BRANCH  22  23
ATOM     23  C   UNL d   1     -42.668-122.422 -48.935  0.00  0.00     0.126 C 
ATOM     24  C   UNL d   1     -42.334-122.573 -48.194  0.00  0.00     0.029 C 
ENDBRANCH  22  23
ENDBRANCH  20  22
ENDBRANCH   1  20
TORSDOF 6
ENDMDL
