MODEL 1
REMARK VINA RESULT:      -9.7      0.000      0.000
REMARK  3 active torsions:
REMARK  status: ('A' for Active; 'I' for Inactive)
REMARK    1  A    between atoms: C_7  and  C_1 
REMARK    2  A    between atoms: C_12  and  C_6 
REMARK       I    between atoms: N_10  and  C_7 
REMARK    3  A    between atoms: C_13  and  N_10 
ROOT
ATOM      1  C   UNL d   1     -46.767  12.357  23.187  0.00  0.00     0.108 A 
ATOM      2  C   UNL d   1     -47.913  12.989  23.034  0.00  0.00     0.046 A 
ATOM      3  C   UNL d   1     -47.578  12.251  23.157  0.00  0.00     0.116 A 
ATOM      4  C   UNL d   1     -47.294  13.533  22.990  0.00  0.00     0.112 A 
ATOM      5  S   UNL d   1     -46.589  13.121  23.088  0.00  0.00    -0.061 SA
ATOM      6  C   UNL d   1     -48.691  13.246  22.954  0.00  0.00     0.028 A 
ATOM      7  N   UNL d   1     -47.449  14.337  22.868  0.00  0.00    -0.239 NA
ATOM      8  C   UNL d   1     -48.856  14.046  22.831  0.00  0.00     0.020 A 
ATOM      9  C   UNL d   1     -48.238  14.590  22.788  0.00  0.00     0.082 A 
ATOM     10  N   UNL d   1     -47.982  11.529  23.237  0.00  0.00    -0.147 N 
ATOM     11  C   UNL d   1     -49.634  14.302  22.752  0.00  0.00     0.002 A 
ATOM     12  C   UNL d   1     -48.393  15.394  22.665  0.00  0.00     0.019 A 
ATOM     13  C   UNL d   1     -49.803  15.107  22.629  0.00  0.00     0.000 A 
ATOM     14  C   UNL d   1     -49.184  15.651  22.585  0.00  0.00     0.002 A 
ENDROOT
BRANCH   1  15
ATOM     15  C   UNL d   1     -46.196  11.772  23.301  0.00  0.00     0.287 C 
ATOM     16  N   UNL d   1     -45.426  11.876  23.045  0.00  0.00    -0.208 NA
ATOM     17  O   UNL d   1     -46.413  11.067  23.685  0.00  0.00    -0.265 OA
BRANCH  16  18
ATOM     18  C   UNL d   1     -44.868  11.287  23.165  0.00  0.00     0.085 A 
ATOM     19  C   UNL d   1     -44.096  11.380  22.879  0.00  0.00     0.018 A 
ATOM     20  C   UNL d   1     -43.837  12.022  22.479  0.00  0.00     0.002 C 
ATOM     21  C   UNL d   1     -43.541  10.771  23.010  0.00  0.00     0.002 A 
ATOM     22  C   UNL d   1     -43.754  10.077  23.422  0.00  0.00     0.000 A 
ATOM     23  C   UNL d   1     -44.528  10.005  23.698  0.00  0.00     0.002 A 
ATOM     24  C   UNL d   1     -45.084  10.602  23.573  0.00  0.00     0.019 A 
ENDBRANCH  16  18
ENDBRANCH   1  15
BRANCH   6  25
ATOM     25  C   UNL d   1     -49.306  12.705  22.997  0.00  0.00     0.100 A 
ATOM     26  O   UNL d   1     -49.651  12.264  22.396  0.00  0.00    -0.305 OA
ATOM     27  C   UNL d   1     -50.248  11.804  22.735  0.00  0.00     0.123 A 
ATOM     28  C   UNL d   1     -50.271  11.956  23.518  0.00  0.00     0.029 A 
ATOM     29  C   UNL d   1     -49.699  12.507  23.698  0.00  0.00     0.027 A 
ENDBRANCH   6  25
TORSDOF 3
ENDMDL
MODEL 2
REMARK VINA RESULT:      -8.8      0.926      2.215
REMARK  3 active torsions:
REMARK  status: ('A' for Active; 'I' for Inactive)
REMARK    1  A    between atoms: C_7  and  C_1 
REMARK    2  A    between atoms: C_12  and  C_6 
REMARK       I    between atoms: N_10  and  C_7 
REMARK    3  A    between atoms: C_13  and  N_10 
ROOT
ATOM      1  C   UNL d   1     -46.953  12.261  23.217  0.00  0.00     0.108 A 
ATOM      2  C   UNL d   1     -48.169  12.764  23.147  0.00  0.00     0.046 A 
ATOM      3  C   UNL d   1     -47.377  12.932  23.017  0.00  0.00     0.116 A 
ATOM      4  C   UNL d   1     -48.211  11.988  23.425  0.00  0.00     0.112 A 
ATOM      5  S   UNL d   1     -47.445  11.692  23.463  0.00  0.00    -0.061 SA
ATOM      6  C   UNL d   1     -48.857  13.203  23.052  0.00  0.00     0.028 A 
ATOM      7  N   UNL d   1     -48.942  11.648  23.611  0.00  0.00    -0.239 NA
ATOM      8  C   UNL d   1     -49.593  12.873  23.234  0.00  0.00     0.020 A 
ATOM      9  C   UNL d   1     -49.635  12.097  23.513  0.00  0.00     0.082 A 
ATOM     10  N   UNL d   1     -47.059  13.646  22.735  0.00  0.00    -0.147 N 
ATOM     11  C   UNL d   1     -50.282  13.312  23.139  0.00  0.00     0.002 A 
ATOM     12  C   UNL d   1     -50.366  11.757  23.698  0.00  0.00     0.019 A 
ATOM     13  C   UNL d   1     -51.022  12.982  23.321  0.00  0.00     0.000 A 
ATOM     14  C   UNL d   1     -51.064  12.207  23.600  0.00  0.00     0.002 A 
ENDROOT
BRANCH   1  15
ATOM     15  C   UNL d   1     -46.134  12.164  23.179  0.00  0.00     0.287 C 
ATOM     16  N   UNL d   1     -45.800  11.426  23.060  0.00  0.00    -0.208 NA
ATOM     17  O   UNL d   1     -45.645  12.831  23.265  0.00  0.00    -0.265 OA
BRANCH  16  18
ATOM     18  C   UNL d   1     -44.985  11.343  23.024  0.00  0.00     0.085 A 
ATOM     19  C   UNL d   1     -44.621  10.670  23.341  0.00  0.00     0.018 A 
ATOM     20  C   UNL d   1     -45.012  10.068  23.694  0.00  0.00     0.002 C 
ATOM     21  C   UNL d   1     -43.790  10.601  23.296  0.00  0.00     0.002 A 
ATOM     22  C   UNL d   1     -43.329  11.198  22.939  0.00  0.00     0.000 A 
ATOM     23  C   UNL d   1     -43.712  11.860  22.630  0.00  0.00     0.002 A 
ATOM     24  C   UNL d   1     -44.533  11.937  22.669  0.00  0.00     0.019 A 
ENDBRANCH  16  18
ENDBRANCH   1  15
BRANCH   6  25
ATOM     25  C   UNL d   1     -48.815  13.974  22.775  0.00  0.00     0.100 A 
ATOM     26  O   UNL d   1     -48.683  14.669  23.193  0.00  0.00    -0.305 OA
ATOM     27  C   UNL d   1     -48.694  15.293  22.652  0.00  0.00     0.123 A 
ATOM     28  C   UNL d   1     -48.828  14.994  21.924  0.00  0.00     0.029 A 
ATOM     29  C   UNL d   1     -48.906  14.185  21.980  0.00  0.00     0.027 A 
ENDBRANCH   6  25
TORSDOF 3
ENDMDL
MODEL 3
REMARK VINA RESULT:      -7.6      7.766     10.090
REMARK  3 active torsions:
REMARK  status: ('A' for Active; 'I' for Inactive)
REMARK    1  A    between atoms: C_7  and  C_1 
REMARK    2  A    between atoms: C_12  and  C_6 
REMARK       I    between atoms: N_10  and  C_7 
REMARK    3  A    between atoms: C_13  and  N_10 
ROOT
ATOM      1  C   UNL d   1     -38.431  14.773  18.884  0.00  0.00     0.108 A 
ATOM      2  C   UNL d   1     -38.943  14.577  20.082  0.00  0.00     0.046 A 
ATOM      3  C   UNL d   1     -39.058  14.970  19.372  0.00  0.00     0.116 A 
ATOM      4  C   UNL d   1     -38.244  14.145  20.011  0.00  0.00     0.112 A 
ATOM      5  S   UNL d   1     -37.940  14.279  19.259  0.00  0.00    -0.061 SA
ATOM      6  C   UNL d   1     -39.373  14.549  20.782  0.00  0.00     0.028 A 
ATOM      7  N   UNL d   1     -37.970  13.682  20.640  0.00  0.00    -0.239 NA
ATOM      8  C   UNL d   1     -39.109  14.090  21.417  0.00  0.00     0.020 A 
ATOM      9  C   UNL d   1     -38.409  13.658  21.346  0.00  0.00     0.082 A 
ATOM     10  N   UNL d   1     -39.689  15.475  19.179  0.00  0.00    -0.147 N 
ATOM     11  C   UNL d   1     -39.539  14.063  22.118  0.00  0.00     0.002 A 
ATOM     12  C   UNL d   1     -38.136  13.196  21.976  0.00  0.00     0.019 A 
ATOM     13  C   UNL d   1     -39.275  13.602  22.757  0.00  0.00     0.000 A 
ATOM     14  C   UNL d   1     -38.576  13.170  22.687  0.00  0.00     0.002 A 
ENDROOT
BRANCH   1  15
ATOM     15  C   UNL d   1     -38.305  15.034  18.111  0.00  0.00     0.287 C 
ATOM     16  N   UNL d   1     -38.412  14.535  17.472  0.00  0.00    -0.208 NA
ATOM     17  O   UNL d   1     -38.064  15.820  17.986  0.00  0.00    -0.265 OA
BRANCH  16  18
ATOM     18  C   UNL d   1     -38.283  14.807  16.708  0.00  0.00     0.085 A 
ATOM     19  C   UNL d   1     -38.112  14.272  16.100  0.00  0.00     0.018 A 
ATOM     20  C   UNL d   1     -38.060  13.480  16.195  0.00  0.00     0.002 C 
ATOM     21  C   UNL d   1     -37.983  14.566  15.329  0.00  0.00     0.002 A 
ATOM     22  C   UNL d   1     -38.025  15.384  15.169  0.00  0.00     0.000 A 
ATOM     23  C   UNL d   1     -38.196  15.899  15.791  0.00  0.00     0.002 A 
ATOM     24  C   UNL d   1     -38.325  15.617  16.556  0.00  0.00     0.019 A 
ENDBRANCH  16  18
ENDBRANCH   1  15
BRANCH   6  25
ATOM     25  C   UNL d   1     -40.068  14.979  20.853  0.00  0.00     0.100 A 
ATOM     26  O   UNL d   1     -40.175  15.754  21.103  0.00  0.00    -0.305 OA
ATOM     27  C   UNL d   1     -40.984  15.918  21.071  0.00  0.00     0.123 A 
ATOM     28  C   UNL d   1     -41.364  15.266  20.811  0.00  0.00     0.029 A 
ATOM     29  C   UNL d   1     -40.817  14.679  20.672  0.00  0.00     0.027 A 
ENDBRANCH   6  25
TORSDOF 3
ENDMDL
MODEL 4
REMARK VINA RESULT:      -6.8      1.315      5.179
REMARK  3 active torsions:
REMARK  status: ('A' for Active; 'I' for Inactive)
REMARK    1  A    between atoms: C_7  and  C_1 
REMARK    2  A    between atoms: C_12  and  C_6 
REMARK       I    between atoms: N_10  and  C_7 
REMARK    3  A    between atoms: C_13  and  N_10 
ROOT
ATOM      1  C   UNL d   1     -47.795  12.825  23.003  0.00  0.00     0.108 A 
ATOM      2  C   UNL d   1     -46.550  12.396  22.939  0.00  0.00     0.046 A 
ATOM      3  C   UNL d   1     -47.041  13.026  22.755  0.00  0.00     0.116 A 
ATOM      4  C   UNL d   1     -47.019  11.819  23.298  0.00  0.00     0.112 A 
ATOM      5  S   UNL d   1     -47.790  12.104  23.329  0.00  0.00    -0.061 SA
ATOM      6  C   UNL d   1     -45.746  12.263  22.833  0.00  0.00     0.028 A 
ATOM      7  N   UNL d   1     -46.685  11.106  23.553  0.00  0.00    -0.239 NA
ATOM      8  C   UNL d   1     -45.403  11.554  23.083  0.00  0.00     0.020 A 
ATOM      9  C   UNL d   1     -45.871  10.977  23.442  0.00  0.00     0.082 A 
ATOM     10  N   UNL d   1     -46.820  13.738  22.387  0.00  0.00    -0.147 N 
ATOM     11  C   UNL d   1     -44.598  11.420  22.977  0.00  0.00     0.002 A 
ATOM     12  C   UNL d   1     -45.537  10.264  23.697  0.00  0.00     0.019 A 
ATOM     13  C   UNL d   1     -44.251  10.708  23.228  0.00  0.00     0.000 A 
ATOM     14  C   UNL d   1     -44.719  10.132  23.587  0.00  0.00     0.002 A 
ENDROOT
BRANCH   1  15
ATOM     15  C   UNL d   1     -48.477  13.285  22.936  0.00  0.00     0.287 C 
ATOM     16  N   UNL d   1     -48.975  13.213  22.291  0.00  0.00    -0.208 NA
ATOM     17  O   UNL d   1     -48.656  13.828  23.539  0.00  0.00    -0.265 OA
BRANCH  16  18
ATOM     18  C   UNL d   1     -49.650  13.676  22.236  0.00  0.00     0.085 A 
ATOM     19  C   UNL d   1     -50.294  13.421  21.782  0.00  0.00     0.018 A 
ATOM     20  C   UNL d   1     -50.315  12.733  21.374  0.00  0.00     0.002 C 
ATOM     21  C   UNL d   1     -50.973  13.905  21.738  0.00  0.00     0.002 A 
ATOM     22  C   UNL d   1     -51.008  14.633  22.142  0.00  0.00     0.000 A 
ATOM     23  C   UNL d   1     -50.355  14.868  22.589  0.00  0.00     0.002 A 
ATOM     24  C   UNL d   1     -49.679  14.397  22.639  0.00  0.00     0.019 A 
ENDBRANCH  16  18
ENDBRANCH   1  15
BRANCH   6  25
ATOM     25  C   UNL d   1     -45.280  12.836  22.476  0.00  0.00     0.100 A 
ATOM     26  O   UNL d   1     -45.090  13.589  22.744  0.00  0.00    -0.305 OA
ATOM     27  C   UNL d   1     -44.605  13.941  22.175  0.00  0.00     0.123 A 
ATOM     28  C   UNL d   1     -44.499  13.423  21.577  0.00  0.00     0.029 A 
ATOM     29  C   UNL d   1     -44.907  12.738  21.745  0.00  0.00     0.027 A 
ENDBRANCH   6  25
TORSDOF 3
ENDMDL
