MODEL 1
REMARK VINA RESULT:       9.6      0.000      0.000
REMARK  2 active torsions:
REMARK  status: ('A' for Active; 'I' for Inactive)
REMARK    1  A    between atoms: C_2  and  N_1 
REMARK    2  A    between atoms: C_5  and  C_7 
ROOT
ATOM      1  C   UNL d   1     -51.166  25.271  33.344  0.00  0.00     0.070 A 
ATOM      2  C   UNL d   1     -51.955  25.025  33.392  0.00  0.00     0.024 A 
ATOM      3  C   UNL d   1     -52.136  24.227  33.404  0.00  0.00     0.066 A 
ATOM      4  C   UNL d   1     -50.557  24.720  33.310  0.00  0.00     0.018 A 
ATOM      5  C   UNL d   1     -51.524  23.668  33.370  0.00  0.00     0.006 A 
ATOM      6  C   UNL d   1     -50.734  23.914  33.322  0.00  0.00     0.002 A 
ENDROOT
BRANCH   1   7
ATOM      7  N   UNL d   1     -50.980  26.074  33.331  0.00  0.00    -0.242 N 
ATOM      8  C   UNL d   1     -50.226  26.416  33.316  0.00  0.00     0.267 A 
ATOM      9  C   UNL d   1     -50.307  27.232  33.307  0.00  0.00     0.066 A 
ATOM     10  O   UNL d   1     -49.480  26.037  33.310  0.00  0.00    -0.267 OA
ATOM     11  C   UNL d   1     -51.115  27.412  33.316  0.00  0.00     0.066 A 
ATOM     12  C   UNL d   1     -51.528  26.698  33.331  0.00  0.00     0.267 A 
ATOM     13  O   UNL d   1     -52.357  26.658  33.344  0.00  0.00    -0.267 OA
ENDBRANCH   1   7
BRANCH   3  14
ATOM     14  C   UNL d   1     -52.914  23.970  33.451  0.00  0.00     0.211 C 
ATOM     15  O   UNL d   1     -53.088  23.191  33.637  0.00  0.00    -0.644 OA
ATOM     16  O   UNL d   1     -53.527  24.511  33.308  0.00  0.00    -0.644 OA
ENDBRANCH   3  14
TORSDOF 2
ENDMDL
