MODEL 1
REMARK VINA RESULT:      52.1      0.000      0.000
REMARK  10 active torsions:
REMARK  status: ('A' for Active; 'I' for Inactive)
REMARK    1  A    between atoms: N_2  and  S_1 
REMARK    2  A    between atoms: C_12  and  S_1 
REMARK    3  A    between atoms: C_4  and  N_2 
REMARK    4  A    between atoms: O_22  and  C_6 
REMARK    5  A    between atoms: C_7  and  N_15 
REMARK    6  A    between atoms: N_8  and  C_7 
REMARK       I    between atoms: C_10  and  N_8 
REMARK    7  A    between atoms: O_23  and  C_9 
REMARK    8  A    between atoms: C_20  and  C_10 
REMARK    9  A    between atoms: N_15  and  C_21 
REMARK   10  A    between atoms: C_26  and  C_20 
ROOT
ATOM      1  C   UNL d   1      14.215  15.401  -3.813  0.00  0.00     0.105 A 
ATOM      2  C   UNL d   1      14.361  15.337  -4.607  0.00  0.00     0.015 A 
ATOM      3  C   UNL d   1      14.530  16.023  -3.390  0.00  0.00     0.015 A 
ATOM      4  C   UNL d   1      15.142  16.524  -4.563  0.00  0.00     0.084 A 
ATOM      5  C   UNL d   1      14.819  15.883  -5.006  0.00  0.00     0.020 A 
ATOM      6  C   UNL d   1      14.989  16.577  -3.768  0.00  0.00     0.020 A 
ENDROOT
BRANCH   1   7
ATOM      7  S   UNL d   1      13.738  14.829  -3.408  0.00  0.00     0.287 S 
ATOM      8  O   UNL d   1      14.251  14.887  -2.749  0.00  0.00    -0.198 OA
ATOM      9  O   UNL d   1      13.237  14.777  -4.066  0.00  0.00    -0.198 OA
BRANCH   7  10
ATOM     10  N   UNL d   1      13.278  14.265  -2.996  0.00  0.00    -0.139 NA
BRANCH  10  11
ATOM     11  C   UNL d   1      13.468  13.450  -3.027  0.00  0.00     0.182 A 
ATOM     12  N   UNL d   1      13.338  13.039  -3.694  0.00  0.00    -0.185 NA
ATOM     13  C   UNL d   1      13.517  12.230  -3.753  0.00  0.00     0.274 A 
ATOM     14  N   UNL d   1      13.834  11.850  -3.107  0.00  0.00    -0.181 NA
ATOM     15  C   UNL d   1      13.977  12.241  -2.416  0.00  0.00     0.185 A 
ATOM     16  C   UNL d   1      13.783  13.093  -2.370  0.00  0.00     0.084 A 
BRANCH  13  17
ATOM     17  O   UNL d   1      13.381  11.797  -4.453  0.00  0.00    -0.297 OA
ATOM     18  C   UNL d   1      12.805  12.034  -5.000  0.00  0.00     0.185 C 
ENDBRANCH  13  17
BRANCH  15  19
ATOM     19  O   UNL d   1      14.302  11.826  -1.773  0.00  0.00    -0.312 OA
ATOM     20  C   UNL d   1      14.450  12.231  -1.067  0.00  0.00     0.183 C 
ENDBRANCH  15  19
ENDBRANCH  10  11
ENDBRANCH   7  10
ENDBRANCH   1   7
BRANCH   4  21
ATOM     21  N   UNL d   1      15.616  17.105  -4.934  0.00  0.00    -0.217 NA
BRANCH  21  22
ATOM     22  C   UNL d   1      15.253  17.636  -5.449  0.00  0.00     0.223 C 
ATOM     23  S   UNL d   1      14.642  17.395  -5.955  0.00  0.00    -0.037 SA
BRANCH  22  24
ATOM     24  N   UNL d   1      15.505  18.422  -5.461  0.00  0.00    -0.179 NA
ATOM     25  C   UNL d   1      14.953  19.042  -5.490  0.00  0.00     0.281 C 
ATOM     26  O   UNL d   1      14.143  18.869  -5.507  0.00  0.00    -0.265 OA
BRANCH  25  27
ATOM     27  C   UNL d   1      15.207  19.827  -5.502  0.00  0.00     0.063 C 
BRANCH  27  28
ATOM     28  C   UNL d   1      14.696  20.437  -5.725  0.00  0.00     0.005 C 
ATOM     29  C   UNL d   1      14.890  20.972  -6.351  0.00  0.00     0.000 C 
ATOM     30  C   UNL d   1      13.982  20.525  -5.328  0.00  0.00     0.000 C 
ENDBRANCH  27  28
ENDBRANCH  25  27
ENDBRANCH  22  24
ENDBRANCH  21  22
ENDBRANCH   4  21
TORSDOF 10
ENDMDL
