MODEL 1
REMARK VINA RESULT:      -2.8      0.000      0.000
REMARK  6 active torsions:
REMARK  status: ('A' for Active; 'I' for Inactive)
REMARK    1  A    between atoms: N_2  and  S_1 
REMARK    2  A    between atoms: C_3  and  S_1 
REMARK    3  A    between atoms: C_7  and  N_2 
REMARK    4  A    between atoms: C_10  and  C_7 
REMARK    5  A    between atoms: O_14  and  C_11 
REMARK    6  A    between atoms: C_17  and  O_14 
ROOT
ATOM      1  S   UNL d   1      33.155  19.449 -22.550  0.00  0.00     0.285 S 
ATOM      2  O   UNL d   1      33.159  19.107 -21.800  0.00  0.00    -0.198 OA
ATOM      3  O   UNL d   1      33.151  19.792 -23.301  0.00  0.00    -0.198 OA
ENDROOT
BRANCH   1   4
ATOM      4  N   UNL d   1      33.184  18.699 -22.892  0.00  0.00    -0.155 NA
BRANCH   4   5
ATOM      5  C   UNL d   1      32.585  18.453 -23.401  0.00  0.00     0.131 C 
BRANCH   5   6
ATOM      6  C   UNL d   1      32.562  17.673 -23.668  0.00  0.00     0.101 A 
ATOM      7  N   UNL d   1      33.241  17.324 -23.978  0.00  0.00    -0.242 NA
ATOM      8  C   UNL d   1      33.219  16.544 -24.245  0.00  0.00     0.099 A 
ATOM      9  C   UNL d   1      32.518  16.112 -24.201  0.00  0.00     0.021 A 
ATOM     10  C   UNL d   1      31.833  16.462 -23.889  0.00  0.00     0.003 A 
ATOM     11  C   UNL d   1      31.855  17.242 -23.622  0.00  0.00     0.021 A 
ENDBRANCH   5   6
ENDBRANCH   4   5
ENDBRANCH   1   4
BRANCH   1  12
ATOM     12  C   UNL d   1      33.126  20.199 -22.208  0.00  0.00     0.105 A 
ATOM     13  C   UNL d   1      33.241  20.869 -22.672  0.00  0.00     0.015 A 
ATOM     14  C   UNL d   1      33.211  21.619 -22.330  0.00  0.00     0.025 A 
ATOM     15  C   UNL d   1      33.067  21.700 -21.524  0.00  0.00     0.100 A 
ATOM     16  C   UNL d   1      32.951  21.029 -21.059  0.00  0.00     0.025 A 
ATOM     17  C   UNL d   1      32.981  20.271 -21.405  0.00  0.00     0.015 A 
BRANCH  15  18
ATOM     18  O   UNL d   1      33.037  22.450 -21.181  0.00  0.00    -0.305 OA
BRANCH  18  19
ATOM     19  C   UNL d   1      32.429  22.642 -20.663  0.00  0.00     0.123 C 
ATOM     20  C   UNL d   1      32.383  23.401 -20.343  0.00  0.00     0.029 C 
ENDBRANCH  18  19
ENDBRANCH  15  18
ENDBRANCH   1  12
TORSDOF 6
ENDMDL
MODEL 2
REMARK VINA RESULT:      -2.5      1.558      2.405
REMARK  6 active torsions:
REMARK  status: ('A' for Active; 'I' for Inactive)
REMARK    1  A    between atoms: N_2  and  S_1 
REMARK    2  A    between atoms: C_3  and  S_1 
REMARK    3  A    between atoms: C_7  and  N_2 
REMARK    4  A    between atoms: C_10  and  C_7 
REMARK    5  A    between atoms: O_14  and  C_11 
REMARK    6  A    between atoms: C_17  and  O_14 
ROOT
ATOM      1  S   UNL d   1      32.875  21.334 -21.465  0.00  0.00     0.285 S 
ATOM      2  O   UNL d   1      33.142  20.762 -20.933  0.00  0.00    -0.198 OA
ATOM      3  O   UNL d   1      32.608  21.906 -21.996  0.00  0.00    -0.198 OA
ENDROOT
BRANCH   1   4
ATOM      4  N   UNL d   1      32.965  20.799 -22.086  0.00  0.00    -0.155 NA
BRANCH   4   5
ATOM      5  C   UNL d   1      32.916  19.989 -21.943  0.00  0.00     0.131 C 
BRANCH   5   6
ATOM      6  C   UNL d   1      32.989  19.454 -22.567  0.00  0.00     0.101 A 
ATOM      7  N   UNL d   1      32.891  19.711 -23.344  0.00  0.00    -0.242 NA
ATOM      8  C   UNL d   1      32.965  19.176 -23.967  0.00  0.00     0.099 A 
ATOM      9  C   UNL d   1      33.137  18.385 -23.815  0.00  0.00     0.021 A 
ATOM     10  C   UNL d   1      33.236  18.124 -23.033  0.00  0.00     0.003 A 
ATOM     11  C   UNL d   1      33.163  18.658 -22.410  0.00  0.00     0.021 A 
ENDBRANCH   5   6
ENDBRANCH   4   5
ENDBRANCH   1   4
BRANCH   1  12
ATOM     12  C   UNL d   1      32.786  21.869 -20.843  0.00  0.00     0.105 A 
ATOM     13  C   UNL d   1      33.239  21.789 -20.161  0.00  0.00     0.015 A 
ATOM     14  C   UNL d   1      33.149  22.324 -19.540  0.00  0.00     0.025 A 
ATOM     15  C   UNL d   1      32.607  22.940 -19.600  0.00  0.00     0.100 A 
ATOM     16  C   UNL d   1      32.153  23.020 -20.283  0.00  0.00     0.025 A 
ATOM     17  C   UNL d   1      32.243  22.480 -20.911  0.00  0.00     0.015 A 
BRANCH  15  18
ATOM     18  O   UNL d   1      32.517  23.475 -18.979  0.00  0.00    -0.305 OA
BRANCH  18  19
ATOM     19  C   UNL d   1      32.952  23.380 -18.287  0.00  0.00     0.123 C 
ATOM     20  C   UNL d   1      32.675  23.699 -17.578  0.00  0.00     0.029 C 
ENDBRANCH  18  19
ENDBRANCH  15  18
ENDBRANCH   1  12
TORSDOF 6
ENDMDL
MODEL 3
REMARK VINA RESULT:      -1.8      3.457      4.444
REMARK  6 active torsions:
REMARK  status: ('A' for Active; 'I' for Inactive)
REMARK    1  A    between atoms: N_2  and  S_1 
REMARK    2  A    between atoms: C_3  and  S_1 
REMARK    3  A    between atoms: C_7  and  N_2 
REMARK    4  A    between atoms: C_10  and  C_7 
REMARK    5  A    between atoms: O_14  and  C_11 
REMARK    6  A    between atoms: C_17  and  O_14 
ROOT
ATOM      1  S   UNL d   1      32.486  22.844 -20.833  0.00  0.00     0.285 S 
ATOM      2  O   UNL d   1      32.463  22.037 -20.663  0.00  0.00    -0.198 OA
ATOM      3  O   UNL d   1      32.510  23.650 -21.004  0.00  0.00    -0.198 OA
ENDROOT
BRANCH   1   4
ATOM      4  N   UNL d   1      32.452  22.674 -21.640  0.00  0.00    -0.155 NA
BRANCH   4   5
ATOM      5  C   UNL d   1      33.143  22.666 -22.090  0.00  0.00     0.131 C 
BRANCH   5   6
ATOM      6  C   UNL d   1      33.106  22.516 -22.900  0.00  0.00     0.101 A 
ATOM      7  N   UNL d   1      32.937  23.128 -23.425  0.00  0.00    -0.242 NA
ATOM      8  C   UNL d   1      32.901  22.978 -24.235  0.00  0.00     0.099 A 
ATOM      9  C   UNL d   1      33.034  22.217 -24.521  0.00  0.00     0.021 A 
ATOM     10  C   UNL d   1      33.205  21.599 -23.994  0.00  0.00     0.003 A 
ATOM     11  C   UNL d   1      33.241  21.748 -23.184  0.00  0.00     0.021 A 
ENDBRANCH   5   6
ENDBRANCH   4   5
ENDBRANCH   1   4
BRANCH   1  12
ATOM     12  C   UNL d   1      32.520  23.013 -20.027  0.00  0.00     0.105 A 
ATOM     13  C   UNL d   1      31.937  23.477 -19.678  0.00  0.00     0.015 A 
ATOM     14  C   UNL d   1      31.971  23.647 -18.872  0.00  0.00     0.025 A 
ATOM     15  C   UNL d   1      32.588  23.353 -18.413  0.00  0.00     0.100 A 
ATOM     16  C   UNL d   1      33.172  22.888 -18.763  0.00  0.00     0.025 A 
ATOM     17  C   UNL d   1      33.138  22.717 -19.577  0.00  0.00     0.015 A 
BRANCH  15  18
ATOM     18  O   UNL d   1      32.622  23.522 -17.607  0.00  0.00    -0.305 OA
BRANCH  18  19
ATOM     19  C   UNL d   1      33.239  23.228 -17.149  0.00  0.00     0.123 C 
ATOM     20  C   UNL d   1      33.216  23.301 -16.328  0.00  0.00     0.029 C 
ENDBRANCH  18  19
ENDBRANCH  15  18
ENDBRANCH   1  12
TORSDOF 6
ENDMDL
MODEL 4
REMARK VINA RESULT:      -0.2      4.384      6.405
REMARK  6 active torsions:
REMARK  status: ('A' for Active; 'I' for Inactive)
REMARK    1  A    between atoms: N_2  and  S_1 
REMARK    2  A    between atoms: C_3  and  S_1 
REMARK    3  A    between atoms: C_7  and  N_2 
REMARK    4  A    between atoms: C_10  and  C_7 
REMARK    5  A    between atoms: O_14  and  C_11 
REMARK    6  A    between atoms: C_17  and  O_14 
ROOT
ATOM      1  S   UNL d   1      32.600  23.104 -19.136  0.00  0.00     0.285 S 
ATOM      2  O   UNL d   1      32.016  22.523 -19.085  0.00  0.00    -0.198 OA
ATOM      3  O   UNL d   1      33.184  23.684 -19.187  0.00  0.00    -0.198 OA
ENDROOT
BRANCH   1   4
ATOM      4  N   UNL d   1      32.577  23.198 -18.317  0.00  0.00    -0.155 NA
BRANCH   4   5
ATOM      5  C   UNL d   1      33.193  22.909 -17.851  0.00  0.00     0.131 C 
BRANCH   5   6
ATOM      6  C   UNL d   1      33.138  22.939 -17.028  0.00  0.00     0.101 A 
ATOM      7  N   UNL d   1      33.052  22.244 -16.595  0.00  0.00    -0.242 NA
ATOM      8  C   UNL d   1      32.997  22.274 -15.773  0.00  0.00     0.099 A 
ATOM      9  C   UNL d   1      33.028  22.999 -15.383  0.00  0.00     0.021 A 
ATOM     10  C   UNL d   1      33.114  23.701 -15.817  0.00  0.00     0.003 A 
ATOM     11  C   UNL d   1      33.169  23.671 -16.640  0.00  0.00     0.021 A 
ENDBRANCH   5   6
ENDBRANCH   4   5
ENDBRANCH   1   4
BRANCH   1  12
ATOM     12  C   UNL d   1      32.622  23.010 -19.955  0.00  0.00     0.105 A 
ATOM     13  C   UNL d   1      32.468  23.651 -20.448  0.00  0.00     0.015 A 
ATOM     14  C   UNL d   1      32.491  23.557 -21.267  0.00  0.00     0.025 A 
ATOM     15  C   UNL d   1      32.668  22.822 -21.594  0.00  0.00     0.100 A 
ATOM     16  C   UNL d   1      32.822  22.181 -21.100  0.00  0.00     0.025 A 
ATOM     17  C   UNL d   1      32.799  22.276 -20.273  0.00  0.00     0.015 A 
BRANCH  15  18
ATOM     18  O   UNL d   1      32.690  22.728 -22.413  0.00  0.00    -0.305 OA
BRANCH  18  19
ATOM     19  C   UNL d   1      32.963  23.340 -22.891  0.00  0.00     0.123 C 
ATOM     20  C   UNL d   1      32.573  23.520 -23.595  0.00  0.00     0.029 C 
ENDBRANCH  18  19
ENDBRANCH  15  18
ENDBRANCH   1  12
TORSDOF 6
ENDMDL
MODEL 5
REMARK VINA RESULT:      -0.1      2.535      4.093
REMARK  6 active torsions:
REMARK  status: ('A' for Active; 'I' for Inactive)
REMARK    1  A    between atoms: N_2  and  S_1 
REMARK    2  A    between atoms: C_3  and  S_1 
REMARK    3  A    between atoms: C_7  and  N_2 
REMARK    4  A    between atoms: C_10  and  C_7 
REMARK    5  A    between atoms: O_14  and  C_11 
REMARK    6  A    between atoms: C_17  and  O_14 
ROOT
ATOM      1  S   UNL d   1      33.064  22.198 -19.947  0.00  0.00     0.285 S 
ATOM      2  O   UNL d   1      33.020  22.948 -20.289  0.00  0.00    -0.198 OA
ATOM      3  O   UNL d   1      33.108  21.449 -19.606  0.00  0.00    -0.198 OA
ENDROOT
BRANCH   1   4
ATOM      4  N   UNL d   1      33.024  21.855 -20.697  0.00  0.00    -0.155 NA
BRANCH   4   5
ATOM      5  C   UNL d   1      33.168  21.049 -20.790  0.00  0.00     0.131 C 
BRANCH   5   6
ATOM      6  C   UNL d   1      33.067  20.693 -21.527  0.00  0.00     0.101 A 
ATOM      7  N   UNL d   1      32.891  19.890 -21.577  0.00  0.00    -0.242 NA
ATOM      8  C   UNL d   1      32.790  19.535 -22.314  0.00  0.00     0.099 A 
ATOM      9  C   UNL d   1      32.865  19.982 -23.002  0.00  0.00     0.021 A 
ATOM     10  C   UNL d   1      33.043  20.792 -22.955  0.00  0.00     0.003 A 
ATOM     11  C   UNL d   1      33.144  21.147 -22.217  0.00  0.00     0.021 A 
ENDBRANCH   5   6
ENDBRANCH   4   5
ENDBRANCH   1   4
BRANCH   1  12
ATOM     12  C   UNL d   1      33.104  22.542 -19.198  0.00  0.00     0.105 A 
ATOM     13  C   UNL d   1      33.201  22.068 -18.533  0.00  0.00     0.015 A 
ATOM     14  C   UNL d   1      33.241  22.412 -17.784  0.00  0.00     0.025 A 
ATOM     15  C   UNL d   1      33.184  23.228 -17.700  0.00  0.00     0.100 A 
ATOM     16  C   UNL d   1      33.086  23.702 -18.367  0.00  0.00     0.025 A 
ATOM     17  C   UNL d   1      33.046  23.356 -19.123  0.00  0.00     0.015 A 
BRANCH  15  18
ATOM     18  O   UNL d   1      33.223  23.572 -16.951  0.00  0.00    -0.305 OA
BRANCH  18  19
ATOM     19  C   UNL d   1      32.856  23.208 -16.311  0.00  0.00     0.123 C 
ATOM     20  C   UNL d   1      33.214  23.221 -15.568  0.00  0.00     0.029 C 
ENDBRANCH  18  19
ENDBRANCH  15  18
ENDBRANCH   1  12
TORSDOF 6
ENDMDL
MODEL 6
REMARK VINA RESULT:      -0.1      3.117      5.576
REMARK  6 active torsions:
REMARK  status: ('A' for Active; 'I' for Inactive)
REMARK    1  A    between atoms: N_2  and  S_1 
REMARK    2  A    between atoms: C_3  and  S_1 
REMARK    3  A    between atoms: C_7  and  N_2 
REMARK    4  A    between atoms: C_10  and  C_7 
REMARK    5  A    between atoms: O_14  and  C_11 
REMARK    6  A    between atoms: C_17  and  O_14 
ROOT
ATOM      1  S   UNL d   1      30.804  17.099 -24.663  0.00  0.00     0.285 S 
ATOM      2  O   UNL d   1      30.351  17.761 -24.855  0.00  0.00    -0.198 OA
ATOM      3  O   UNL d   1      31.257  16.437 -24.471  0.00  0.00    -0.198 OA
ENDROOT
BRANCH   1   4
ATOM      4  N   UNL d   1      31.490  17.510 -24.863  0.00  0.00    -0.155 NA
BRANCH   4   5
ATOM      5  C   UNL d   1      32.025  17.733 -24.277  0.00  0.00     0.131 C 
BRANCH   5   6
ATOM      6  C   UNL d   1      32.430  18.449 -24.337  0.00  0.00     0.101 A 
ATOM      7  N   UNL d   1      32.827  18.641 -25.032  0.00  0.00    -0.242 NA
ATOM      8  C   UNL d   1      33.232  19.357 -25.092  0.00  0.00     0.099 A 
ATOM      9  C   UNL d   1      33.240  19.881 -24.457  0.00  0.00     0.021 A 
ATOM     10  C   UNL d   1      32.841  19.690 -23.755  0.00  0.00     0.003 A 
ATOM     11  C   UNL d   1      32.436  18.974 -23.695  0.00  0.00     0.021 A 
ENDBRANCH   5   6
ENDBRANCH   4   5
ENDBRANCH   1   4
BRANCH   1  12
ATOM     12  C   UNL d   1      30.118  16.687 -24.462  0.00  0.00     0.105 A 
ATOM     13  C   UNL d   1      29.670  16.924 -23.814  0.00  0.00     0.015 A 
ATOM     14  C   UNL d   1      28.983  16.512 -23.614  0.00  0.00     0.025 A 
ATOM     15  C   UNL d   1      28.745  15.864 -24.062  0.00  0.00     0.100 A 
ATOM     16  C   UNL d   1      29.194  15.627 -24.711  0.00  0.00     0.025 A 
ATOM     17  C   UNL d   1      29.887  16.043 -24.913  0.00  0.00     0.015 A 
BRANCH  15  18
ATOM     18  O   UNL d   1      28.059  15.453 -23.861  0.00  0.00    -0.305 OA
BRANCH  18  19
ATOM     19  C   UNL d   1      27.376  15.864 -23.657  0.00  0.00     0.123 C 
ATOM     20  C   UNL d   1      26.836  15.532 -23.129  0.00  0.00     0.029 C 
ENDBRANCH  18  19
ENDBRANCH  15  18
ENDBRANCH   1  12
TORSDOF 6
ENDMDL
