MODEL 1
REMARK VINA RESULT:      56.3      0.000      0.000
REMARK  4 active torsions:
REMARK  status: ('A' for Active; 'I' for Inactive)
REMARK    1  A    between atoms: N_3  and  C_1 
REMARK       I    between atoms: C_5  and  N_3 
REMARK    2  A    between atoms: C_15  and  C_5 
REMARK    3  A    between atoms: C_8  and  C_9 
REMARK    4  A    between atoms: O_16  and  C_8 
ROOT
ATOM      1  C   UNL d   1     -48.767  28.453  34.712  0.00  0.00     0.197 A 
ATOM      2  N   UNL d   1     -48.248  28.577  35.352  0.00  0.00    -0.221 NA
ATOM      3  S   UNL d   1     -48.824  29.160  34.294  0.00  0.00    -0.047 SA
ATOM      4  C   UNL d   1     -48.348  29.726  34.662  0.00  0.00     0.050 A 
ATOM      5  C   UNL d   1     -47.988  29.363  35.322  0.00  0.00     0.090 A 
ATOM      6  C   UNL d   1     -47.683  30.942  34.970  0.00  0.00     0.064 A 
ATOM      7  C   UNL d   1     -48.191  30.518  34.491  0.00  0.00     0.013 A 
ATOM      8  C   UNL d   1     -47.480  29.798  35.797  0.00  0.00     0.020 A 
ATOM      9  C   UNL d   1     -47.324  30.578  35.630  0.00  0.00     0.007 A 
ENDROOT
BRANCH   1  10
ATOM     10  N   UNL d   1     -49.155  27.745  34.533  0.00  0.00    -0.183 NA
ATOM     11  C   UNL d   1     -49.603  27.682  33.843  0.00  0.00     0.281 C 
ATOM     12  O   UNL d   1     -49.664  28.327  33.333  0.00  0.00    -0.265 OA
BRANCH  11  13
ATOM     13  C   UNL d   1     -49.984  26.986  33.667  0.00  0.00     0.058 A 
ATOM     14  C   UNL d   1     -49.539  26.306  33.486  0.00  0.00     0.005 A 
ATOM     15  C   UNL d   1     -49.926  25.598  33.307  0.00  0.00     0.000 A 
ATOM     16  C   UNL d   1     -50.758  25.570  33.308  0.00  0.00     0.000 A 
ATOM     17  C   UNL d   1     -51.183  26.240  33.486  0.00  0.00     0.000 A 
ATOM     18  C   UNL d   1     -50.797  26.948  33.665  0.00  0.00     0.005 A 
ENDBRANCH  11  13
ENDBRANCH   1  10
BRANCH   6  19
ATOM     19  C   UNL d   1     -47.517  31.734  34.810  0.00  0.00     0.296 C 
ATOM     20  O   UNL d   1     -46.903  32.116  35.191  0.00  0.00    -0.259 OA
BRANCH  19  21
ATOM     21  O   UNL d   1     -47.985  32.140  34.256  0.00  0.00    -0.296 OA
ATOM     22  C   UNL d   1     -47.671  32.784  33.857  0.00  0.00     0.185 C 
ENDBRANCH  19  21
ENDBRANCH   6  19
TORSDOF 4
ENDMDL
MODEL 2
REMARK VINA RESULT:      56.5      1.803      5.402
REMARK  4 active torsions:
REMARK  status: ('A' for Active; 'I' for Inactive)
REMARK    1  A    between atoms: N_3  and  C_1 
REMARK       I    between atoms: C_5  and  N_3 
REMARK    2  A    between atoms: C_15  and  C_5 
REMARK    3  A    between atoms: C_8  and  C_9 
REMARK    4  A    between atoms: O_16  and  C_8 
ROOT
ATOM      1  C   UNL d   1     -49.197  27.737  34.074  0.00  0.00     0.197 A 
ATOM      2  N   UNL d   1     -48.931  27.033  33.714  0.00  0.00    -0.221 NA
ATOM      3  S   UNL d   1     -50.006  27.662  34.208  0.00  0.00    -0.047 SA
ATOM      4  C   UNL d   1     -50.252  26.920  33.937  0.00  0.00     0.050 A 
ATOM      5  C   UNL d   1     -49.582  26.529  33.629  0.00  0.00     0.090 A 
ATOM      6  C   UNL d   1     -51.057  25.797  33.615  0.00  0.00     0.064 A 
ATOM      7  C   UNL d   1     -50.989  26.549  33.927  0.00  0.00     0.013 A 
ATOM      8  C   UNL d   1     -49.662  25.773  33.317  0.00  0.00     0.020 A 
ATOM      9  C   UNL d   1     -50.387  25.405  33.307  0.00  0.00     0.007 A 
ENDROOT
BRANCH   1  10
ATOM     10  N   UNL d   1     -48.728  28.391  34.261  0.00  0.00    -0.183 NA
ATOM     11  C   UNL d   1     -48.373  28.446  35.004  0.00  0.00     0.281 C 
ATOM     12  O   UNL d   1     -48.488  27.848  35.560  0.00  0.00    -0.265 OA
BRANCH  11  13
ATOM     13  C   UNL d   1     -47.912  29.090  35.188  0.00  0.00     0.058 A 
ATOM     14  C   UNL d   1     -48.213  29.686  35.685  0.00  0.00     0.005 A 
ATOM     15  C   UNL d   1     -47.744  30.340  35.872  0.00  0.00     0.000 A 
ATOM     16  C   UNL d   1     -46.974  30.399  35.563  0.00  0.00     0.000 A 
ATOM     17  C   UNL d   1     -46.688  29.811  35.079  0.00  0.00     0.000 A 
ATOM     18  C   UNL d   1     -47.157  29.157  34.891  0.00  0.00     0.005 A 
ENDBRANCH  11  13
ENDBRANCH   1  10
BRANCH   6  19
ATOM     19  C   UNL d   1     -51.788  25.413  33.599  0.00  0.00     0.296 C 
ATOM     20  O   UNL d   1     -52.451  25.791  33.307  0.00  0.00    -0.259 OA
BRANCH  19  21
ATOM     21  O   UNL d   1     -51.840  24.635  33.885  0.00  0.00    -0.296 OA
ATOM     22  C   UNL d   1     -52.490  24.175  33.687  0.00  0.00     0.185 C 
ENDBRANCH  19  21
ENDBRANCH   6  19
TORSDOF 4
ENDMDL
