MODEL 1
REMARK VINA RESULT:      -1.2      0.000      0.000
REMARK  6 active torsions:
REMARK  status: ('A' for Active; 'I' for Inactive)
REMARK    1  A    between atoms: C_5  and  C_1 
REMARK    2  A    between atoms: N_6  and  C_5 
REMARK    3  A    between atoms: C_9  and  C_5 
REMARK    4  A    between atoms: C_8  and  C_11 
REMARK    5  A    between atoms: O_18  and  C_8 
REMARK    6  A    between atoms: C_23  and  O_18 
ROOT
ATOM      1  C   UNL d   1      59.193  -0.752  29.573  0.00  0.00     0.083 C 
ENDROOT
BRANCH   1   2
ATOM      2  C   UNL d   1      59.107  -1.499  29.211  0.00  0.00     0.037 A 
ATOM      3  C   UNL d   1      58.500  -1.718  28.695  0.00  0.00     0.083 A 
ATOM      4  N   UNL d   1      58.603  -2.483  28.459  0.00  0.00    -0.245 NA
ATOM      5  C   UNL d   1      57.869  -1.211  28.455  0.00  0.00     0.021 C 
ATOM      6  C   UNL d   1      59.272  -2.764  28.817  0.00  0.00     0.081 A 
ATOM      7  C   UNL d   1      59.583  -2.157  29.281  0.00  0.00     0.021 A 
ATOM      8  C   UNL d   1      59.652  -3.495  28.789  0.00  0.00     0.019 A 
ATOM      9  C   UNL d   1      60.272  -2.284  29.715  0.00  0.00     0.002 A 
ATOM     10  C   UNL d   1      60.653  -3.016  29.688  0.00  0.00     0.000 A 
ATOM     11  C   UNL d   1      60.342  -3.623  29.224  0.00  0.00     0.002 A 
ENDBRANCH   1   2
BRANCH   1  12
ATOM     12  N   UNL d   1      58.628  -0.488  30.135  0.00  0.00    -0.302 N 
ATOM     13  C   UNL d   1      58.283  -1.023  30.641  0.00  0.00     0.080 A 
ATOM     14  C   UNL d   1      57.729  -0.762  31.191  0.00  0.00     0.024 A 
ATOM     15  C   UNL d   1      57.534   0.043  31.216  0.00  0.00     0.067 A 
ATOM     16  C   UNL d   1      57.881   0.578  30.707  0.00  0.00     0.024 A 
ATOM     17  C   UNL d   1      58.436   0.316  30.157  0.00  0.00     0.080 A 
BRANCH  15  18
ATOM     18  C   UNL d   1      56.971   0.321  31.771  0.00  0.00     0.300 C 
ATOM     19  O   UNL d   1      56.205   0.522  31.525  0.00  0.00    -0.259 OA
BRANCH  18  20
ATOM     20  O   UNL d   1      57.192   0.390  32.553  0.00  0.00    -0.271 OA
BRANCH  20  21
ATOM     21  C   UNL d   1      56.614   0.469  33.134  0.00  0.00     0.126 C 
ATOM     22  C   UNL d   1      56.833   0.672  33.890  0.00  0.00     0.029 C 
ENDBRANCH  20  21
ENDBRANCH  18  20
ENDBRANCH  15  18
ENDBRANCH   1  12
BRANCH   1  23
ATOM     23  C   UNL d   1      59.848  -0.266  29.374  0.00  0.00     0.098 A 
ATOM     24  N   UNL d   1      60.476  -0.189  29.888  0.00  0.00    -0.243 NA
ATOM     25  C   UNL d   1      61.113   0.281  29.697  0.00  0.00     0.099 A 
ATOM     26  C   UNL d   1      61.123   0.682  28.982  0.00  0.00     0.021 A 
ATOM     27  C   UNL d   1      60.498   0.614  28.455  0.00  0.00     0.003 A 
ATOM     28  C   UNL d   1      59.847   0.141  28.636  0.00  0.00     0.021 A 
ENDBRANCH   1  23
TORSDOF 6
ENDMDL
