MODEL 1
REMARK VINA RESULT:      -8.6      0.000      0.000
REMARK  4 active torsions:
REMARK  status: ('A' for Active; 'I' for Inactive)
REMARK    1  A    between atoms: N_15  and  C_2 
REMARK    2  A    between atoms: C_3  and  C_9 
REMARK    3  A    between atoms: C_11  and  C_7 
REMARK       I    between atoms: C_9  and  N_14 
REMARK    4  A    between atoms: N_14  and  N_15 
ROOT
ATOM      1  C   UNL d   1      53.715  32.908  53.418  0.00  0.00     0.062 A 
ATOM      2  N   UNL d   1      53.682  31.698  54.537  0.00  0.00    -0.245 NA
ATOM      3  C   UNL d   1      53.403  31.557  53.766  0.00  0.00     0.087 A 
ATOM      4  C   UNL d   1      53.424  32.172  53.212  0.00  0.00     0.025 A 
ATOM      5  C   UNL d   1      53.990  33.031  54.193  0.00  0.00     0.022 A 
ATOM      6  C   UNL d   1      53.973  32.434  54.744  0.00  0.00     0.082 A 
ATOM      7  C   UNL d   1      54.282  33.779  54.390  0.00  0.00     0.002 A 
ATOM      8  C   UNL d   1      54.244  32.564  55.500  0.00  0.00     0.019 A 
ATOM      9  C   UNL d   1      54.558  33.913  55.159  0.00  0.00     0.000 A 
ATOM     10  C   UNL d   1      54.538  33.307  55.709  0.00  0.00     0.002 A 
ENDROOT
BRANCH   1  11
ATOM     11  C   UNL d   1      53.731  33.508  52.859  0.00  0.00     0.297 C 
ATOM     12  N   UNL d   1      53.000  33.840  52.705  0.00  0.00    -0.104 NA
ATOM     13  O   UNL d   1      54.496  33.654  52.566  0.00  0.00    -0.264 OA
BRANCH  12  14
ATOM     14  N   UNL d   1      52.338  33.562  53.100  0.00  0.00    -0.118 NA
BRANCH  14  15
ATOM     15  C   UNL d   1      51.589  33.892  52.948  0.00  0.00     0.215 A 
ATOM     16  N   UNL d   1      51.194  33.882  52.231  0.00  0.00    -0.219 NA
ATOM     17  C   UNL d   1      50.475  34.266  52.317  0.00  0.00     0.090 A 
ATOM     18  C   UNL d   1      50.427  34.519  53.107  0.00  0.00     0.050 A 
ATOM     19  C   UNL d   1      49.860  34.423  51.798  0.00  0.00     0.018 A 
ATOM     20  C   UNL d   1      49.764  34.928  53.379  0.00  0.00     0.008 A 
ATOM     21  S   UNL d   1      51.115  34.287  53.491  0.00  0.00    -0.045 SA
ATOM     22  C   UNL d   1      49.147  35.081  52.842  0.00  0.00     0.001 A 
ATOM     23  C   UNL d   1      49.194  34.831  52.060  0.00  0.00     0.002 A 
ATOM     24  C   UNL d   1      49.912  34.169  51.010  0.00  0.00     0.002 C 
ENDBRANCH  14  15
ENDBRANCH  12  14
ENDBRANCH   1  11
BRANCH   3  25
ATOM     25  C   UNL d   1      53.107  30.809  53.556  0.00  0.00     0.047 A 
ATOM     26  S   UNL d   1      53.589  30.142  53.618  0.00  0.00    -0.085 SA
ATOM     27  C   UNL d   1      53.157  29.481  53.375  0.00  0.00     0.035 A 
ATOM     28  C   UNL d   1      52.424  29.741  53.169  0.00  0.00     0.007 A 
ATOM     29  C   UNL d   1      52.375  30.565  53.275  0.00  0.00     0.009 A 
ENDBRANCH   3  25
TORSDOF 4
ENDMDL
MODEL 2
REMARK VINA RESULT:      -8.4      1.127      4.230
REMARK  4 active torsions:
REMARK  status: ('A' for Active; 'I' for Inactive)
REMARK    1  A    between atoms: N_15  and  C_2 
REMARK    2  A    between atoms: C_3  and  C_9 
REMARK    3  A    between atoms: C_11  and  C_7 
REMARK       I    between atoms: C_9  and  N_14 
REMARK    4  A    between atoms: N_14  and  N_15 
ROOT
ATOM      1  C   UNL d   1      54.009  33.278  53.618  0.00  0.00     0.062 A 
ATOM      2  N   UNL d   1      52.859  34.291  54.222  0.00  0.00    -0.245 NA
ATOM      3  C   UNL d   1      52.747  33.934  53.479  0.00  0.00     0.087 A 
ATOM      4  C   UNL d   1      53.332  33.426  53.185  0.00  0.00     0.025 A 
ATOM      5  C   UNL d   1      54.105  33.643  54.359  0.00  0.00     0.022 A 
ATOM      6  C   UNL d   1      53.536  34.143  54.655  0.00  0.00     0.082 A 
ATOM      7  C   UNL d   1      54.794  33.485  54.787  0.00  0.00     0.002 A 
ATOM      8  C   UNL d   1      53.638  34.496  55.381  0.00  0.00     0.019 A 
ATOM      9  C   UNL d   1      54.898  33.844  55.526  0.00  0.00     0.000 A 
ATOM     10  C   UNL d   1      54.323  34.346  55.819  0.00  0.00     0.002 A 
ENDROOT
BRANCH   1  11
ATOM     11  C   UNL d   1      54.581  32.773  53.315  0.00  0.00     0.297 C 
ATOM     12  N   UNL d   1      54.369  31.983  53.324  0.00  0.00    -0.104 NA
ATOM     13  O   UNL d   1      55.263  33.176  53.060  0.00  0.00    -0.264 OA
BRANCH  12  14
ATOM     14  N   UNL d   1      53.637  31.765  53.621  0.00  0.00    -0.118 NA
BRANCH  14  15
ATOM     15  C   UNL d   1      53.428  30.961  53.674  0.00  0.00     0.215 A 
ATOM     16  N   UNL d   1      53.570  30.467  54.312  0.00  0.00    -0.219 NA
ATOM     17  C   UNL d   1      53.277  29.721  54.141  0.00  0.00     0.090 A 
ATOM     18  C   UNL d   1      52.947  29.757  53.380  0.00  0.00     0.050 A 
ATOM     19  C   UNL d   1      53.262  29.018  54.563  0.00  0.00     0.018 A 
ATOM     20  C   UNL d   1      52.602  29.089  53.039  0.00  0.00     0.008 A 
ATOM     21  S   UNL d   1      53.042  30.522  53.097  0.00  0.00    -0.045 SA
ATOM     22  C   UNL d   1      52.592  28.382  53.476  0.00  0.00     0.001 A 
ATOM     23  C   UNL d   1      52.919  28.346  54.230  0.00  0.00     0.002 A 
ATOM     24  C   UNL d   1      53.592  28.986  55.322  0.00  0.00     0.002 C 
ENDBRANCH  14  15
ENDBRANCH  12  14
ENDBRANCH   1  11
BRANCH   3  25
ATOM     25  C   UNL d   1      52.059  34.085  53.039  0.00  0.00     0.047 A 
ATOM     26  S   UNL d   1      51.317  33.967  53.379  0.00  0.00    -0.085 SA
ATOM     27  C   UNL d   1      50.737  34.158  52.822  0.00  0.00     0.035 A 
ATOM     28  C   UNL d   1      51.120  34.389  52.153  0.00  0.00     0.007 A 
ATOM     29  C   UNL d   1      51.943  34.350  52.270  0.00  0.00     0.009 A 
ENDBRANCH   3  25
TORSDOF 4
ENDMDL
MODEL 3
REMARK VINA RESULT:      -7.1      1.104      2.519
REMARK  4 active torsions:
REMARK  status: ('A' for Active; 'I' for Inactive)
REMARK    1  A    between atoms: N_15  and  C_2 
REMARK    2  A    between atoms: C_3  and  C_9 
REMARK    3  A    between atoms: C_11  and  C_7 
REMARK       I    between atoms: C_9  and  N_14 
REMARK    4  A    between atoms: N_14  and  N_15 
ROOT
ATOM      1  C   UNL d   1      53.216  31.532  53.151  0.00  0.00     0.062 A 
ATOM      2  N   UNL d   1      53.889  31.437  54.652  0.00  0.00    -0.245 NA
ATOM      3  C   UNL d   1      53.973  32.133  54.204  0.00  0.00     0.087 A 
ATOM      4  C   UNL d   1      53.630  32.170  53.451  0.00  0.00     0.025 A 
ATOM      5  C   UNL d   1      53.142  30.844  53.612  0.00  0.00     0.022 A 
ATOM      6  C   UNL d   1      53.475  30.799  54.352  0.00  0.00     0.082 A 
ATOM      7  C   UNL d   1      52.721  30.206  53.298  0.00  0.00     0.002 A 
ATOM      8  C   UNL d   1      53.397  30.121  54.797  0.00  0.00     0.019 A 
ATOM      9  C   UNL d   1      52.642  29.516  53.749  0.00  0.00     0.000 A 
ATOM     10  C   UNL d   1      52.979  29.477  54.494  0.00  0.00     0.002 A 
ENDROOT
BRANCH   1  11
ATOM     11  C   UNL d   1      52.882  31.581  52.403  0.00  0.00     0.297 C 
ATOM     12  N   UNL d   1      52.283  32.134  52.340  0.00  0.00    -0.104 NA
ATOM     13  O   UNL d   1      53.228  31.052  51.861  0.00  0.00    -0.264 OA
BRANCH  12  14
ATOM     14  N   UNL d   1      52.070  32.576  52.997  0.00  0.00    -0.118 NA
BRANCH  14  15
ATOM     15  C   UNL d   1      51.468  33.148  52.941  0.00  0.00     0.215 A 
ATOM     16  N   UNL d   1      51.065  33.359  52.260  0.00  0.00    -0.219 NA
ATOM     17  C   UNL d   1      50.518  33.941  52.443  0.00  0.00     0.090 A 
ATOM     18  C   UNL d   1      50.586  34.091  53.258  0.00  0.00     0.050 A 
ATOM     19  C   UNL d   1      49.971  34.354  51.994  0.00  0.00     0.018 A 
ATOM     20  C   UNL d   1      50.107  34.655  53.623  0.00  0.00     0.008 A 
ATOM     21  S   UNL d   1      51.172  33.601  53.559  0.00  0.00    -0.045 SA
ATOM     22  C   UNL d   1      49.556  35.068  53.156  0.00  0.00     0.001 A 
ATOM     23  C   UNL d   1      49.488  34.919  52.350  0.00  0.00     0.002 A 
ATOM     24  C   UNL d   1      49.907  34.202  51.182  0.00  0.00     0.002 C 
ENDBRANCH  14  15
ENDBRANCH  12  14
ENDBRANCH   1  11
BRANCH   3  25
ATOM     25  C   UNL d   1      54.394  32.782  54.508  0.00  0.00     0.047 A 
ATOM     26  S   UNL d   1      54.265  33.030  55.285  0.00  0.00    -0.085 SA
ATOM     27  C   UNL d   1      54.753  33.679  55.439  0.00  0.00     0.035 A 
ATOM     28  C   UNL d   1      55.172  33.824  54.767  0.00  0.00     0.007 A 
ATOM     29  C   UNL d   1      54.961  33.275  54.177  0.00  0.00     0.009 A 
ENDBRANCH   3  25
TORSDOF 4
ENDMDL
