MODEL 1
REMARK VINA RESULT:      41.0      0.000      0.000
REMARK  4 active torsions:
REMARK  status: ('A' for Active; 'I' for Inactive)
REMARK    1  A    between atoms: N_14  and  S_1 
REMARK    2  A    between atoms: C_5  and  C_17 
REMARK    3  A    between atoms: C_18  and  N_14 
REMARK    4  A    between atoms: C_17  and  C_18 
ROOT
ATOM      1  N   UNL d   1     -54.712-102.272 -42.165  0.00  0.00    -0.208 NA
ATOM      2  C   UNL d   1     -54.713-101.716 -42.781  0.00  0.00     0.279 A 
ATOM      3  C   UNL d   1     -54.712-102.020 -41.372  0.00  0.00     0.085 A 
ATOM      4  C   UNL d   1     -54.714-100.908 -42.607  0.00  0.00     0.059 A 
ATOM      5  C   UNL d   1     -54.714-100.651 -41.816  0.00  0.00     0.006 A 
ATOM      6  C   UNL d   1     -54.713-101.211 -41.206  0.00  0.00     0.018 A 
ATOM      7  C   UNL d   1     -54.712-102.575 -40.762  0.00  0.00     0.019 A 
ATOM      8  C   UNL d   1     -54.713-100.958 -40.413  0.00  0.00     0.002 A 
ATOM      9  C   UNL d   1     -54.712-102.321 -39.977  0.00  0.00     0.002 A 
ATOM     10  C   UNL d   1     -54.713-101.514 -39.802  0.00  0.00     0.000 A 
ATOM     11  O   UNL d   1     -54.713-101.970 -43.566  0.00  0.00    -0.265 OA
ATOM     12  C   UNL d   1     -54.713-101.260 -39.017  0.00  0.00     0.000 C 
ATOM     13  C   UNL d   1     -54.711-102.877 -39.366  0.00  0.00     0.000 C 
ENDROOT
BRANCH   4  14
ATOM     14  C   UNL d   1     -54.714-100.353 -43.217  0.00  0.00     0.026 C 
BRANCH  14  15
ATOM     15  C   UNL d   1     -55.341-100.335 -43.754  0.00  0.00     0.112 C 
BRANCH  15  16
ATOM     16  N   UNL d   1     -55.825 -99.669 -43.796  0.00  0.00    -0.160 NA
BRANCH  16  17
ATOM     17  S   UNL d   1     -55.988 -99.317 -44.534  0.00  0.00     0.266 S 
ATOM     18  O   UNL d   1     -55.199 -99.568 -44.578  0.00  0.00    -0.203 OA
ATOM     19  O   UNL d   1     -55.939 -99.026 -45.302  0.00  0.00    -0.203 OA
ATOM     20  C   UNL d   1     -56.777 -99.077 -44.464  0.00  0.00     0.165 C 
ENDBRANCH  16  17
ENDBRANCH  15  16
ENDBRANCH  14  15
ENDBRANCH   4  14
TORSDOF 4
ENDMDL
