MODEL 1
REMARK VINA RESULT:      12.2      0.000      0.000
REMARK  5 active torsions:
REMARK  status: ('A' for Active; 'I' for Inactive)
REMARK       I    between atoms: C_2  and  N_1 
REMARK    1  A    between atoms: C_4  and  N_1 
REMARK    2  A    between atoms: C_14  and  C_2 
REMARK       I    between atoms: C_3  and  N_6 
REMARK    3  A    between atoms: C_5  and  C_3 
REMARK    4  A    between atoms: N_8  and  C_4 
REMARK    5  A    between atoms: N_6  and  N_8 
ROOT
ATOM      1  C   UNL d   1      46.008 -16.406  44.309  0.00  0.00     0.243 C 
ATOM      2  S   UNL d   1      45.515 -16.528  44.950  0.00  0.00    -0.035 SA
ENDROOT
BRANCH   1   3
ATOM      3  N   UNL d   1      46.177 -17.026  43.788  0.00  0.00    -0.177 NA
ATOM      4  C   UNL d   1      46.142 -17.806  44.054  0.00  0.00     0.281 C 
ATOM      5  O   UNL d   1      45.939 -17.965  44.841  0.00  0.00    -0.265 OA
BRANCH   4   6
ATOM      6  C   UNL d   1      46.310 -18.420  43.535  0.00  0.00     0.058 A 
ATOM      7  C   UNL d   1      46.313 -18.288  42.726  0.00  0.00     0.005 A 
ATOM      8  C   UNL d   1      46.481 -18.903  42.204  0.00  0.00     0.000 A 
ATOM      9  C   UNL d   1      46.647 -19.654  42.500  0.00  0.00     0.000 A 
ATOM     10  C   UNL d   1      46.644 -19.790  43.320  0.00  0.00     0.000 A 
ATOM     11  C   UNL d   1      46.475 -19.170  43.837  0.00  0.00     0.005 A 
ENDBRANCH   4   6
ENDBRANCH   1   3
BRANCH   1  12
ATOM     12  N   UNL d   1      46.338 -15.662  44.181  0.00  0.00    -0.114 NA
BRANCH  12  13
ATOM     13  N   UNL d   1      45.874 -15.039  43.909  0.00  0.00    -0.103 NA
ATOM     14  C   UNL d   1      45.978 -14.278  44.208  0.00  0.00     0.303 C 
ATOM     15  O   UNL d   1      46.545 -14.139  44.779  0.00  0.00    -0.263 OA
BRANCH  14  16
ATOM     16  C   UNL d   1      45.509 -13.664  43.929  0.00  0.00     0.089 A 
ATOM     17  S   UNL d   1      45.783 -12.871  43.730  0.00  0.00    -0.082 SA
ATOM     18  C   UNL d   1      45.097 -12.408  43.458  0.00  0.00     0.036 A 
ATOM     19  C   UNL d   1      44.404 -12.921  43.492  0.00  0.00     0.008 A 
ATOM     20  C   UNL d   1      44.652 -13.692  43.780  0.00  0.00     0.012 A 
ENDBRANCH  14  16
ENDBRANCH  12  13
ENDBRANCH   1  12
TORSDOF 5
ENDMDL
MODEL 2
REMARK VINA RESULT:      14.7      1.147      5.002
REMARK  5 active torsions:
REMARK  status: ('A' for Active; 'I' for Inactive)
REMARK       I    between atoms: C_2  and  N_1 
REMARK    1  A    between atoms: C_4  and  N_1 
REMARK    2  A    between atoms: C_14  and  C_2 
REMARK       I    between atoms: C_3  and  N_6 
REMARK    3  A    between atoms: C_5  and  C_3 
REMARK    4  A    between atoms: N_8  and  C_4 
REMARK    5  A    between atoms: N_6  and  N_8 
ROOT
ATOM      1  C   UNL d   1      45.588 -16.016  44.297  0.00  0.00     0.243 C 
ATOM      2  S   UNL d   1      45.244 -16.359  44.955  0.00  0.00    -0.035 SA
ENDROOT
BRANCH   1   3
ATOM      3  N   UNL d   1      45.421 -15.230  44.100  0.00  0.00    -0.177 NA
ATOM      4  C   UNL d   1      45.870 -14.621  44.429  0.00  0.00     0.281 C 
ATOM      5  O   UNL d   1      46.486 -14.800  44.955  0.00  0.00    -0.265 OA
BRANCH   4   6
ATOM      6  C   UNL d   1      45.703 -13.841  44.234  0.00  0.00     0.058 A 
ATOM      7  C   UNL d   1      45.335 -13.664  43.523  0.00  0.00     0.005 A 
ATOM      8  C   UNL d   1      45.166 -12.882  43.325  0.00  0.00     0.000 A 
ATOM      9  C   UNL d   1      45.372 -12.277  43.846  0.00  0.00     0.000 A 
ATOM     10  C   UNL d   1      45.745 -12.455  44.567  0.00  0.00     0.000 A 
ATOM     11  C   UNL d   1      45.911 -13.240  44.759  0.00  0.00     0.005 A 
ENDBRANCH   4   6
ENDBRANCH   1   3
BRANCH   1  12
ATOM     12  N   UNL d   1      46.103 -16.456  43.826  0.00  0.00    -0.114 NA
BRANCH  12  13
ATOM     13  N   UNL d   1      46.105 -17.278  43.864  0.00  0.00    -0.103 NA
ATOM     14  C   UNL d   1      46.372 -17.726  43.225  0.00  0.00     0.303 C 
ATOM     15  O   UNL d   1      46.637 -17.351  42.549  0.00  0.00    -0.263 OA
BRANCH  14  16
ATOM     16  C   UNL d   1      46.370 -18.545  43.274  0.00  0.00     0.089 A 
ATOM     17  S   UNL d   1      46.338 -19.006  44.003  0.00  0.00    -0.082 SA
ATOM     18  C   UNL d   1      46.347 -19.851  43.789  0.00  0.00     0.036 A 
ATOM     19  C   UNL d   1      46.385 -19.903  42.929  0.00  0.00     0.008 A 
ATOM     20  C   UNL d   1      46.399 -19.105  42.609  0.00  0.00     0.012 A 
ENDBRANCH  14  16
ENDBRANCH  12  13
ENDBRANCH   1  12
TORSDOF 5
ENDMDL
