MODEL 1
REMARK VINA RESULT:      -2.9      0.000      0.000
REMARK  4 active torsions:
REMARK  status: ('A' for Active; 'I' for Inactive)
REMARK    1  A    between atoms: C_2  and  S_1 
REMARK    2  A    between atoms: N_3  and  S_1 
REMARK    3  A    between atoms: C_16  and  C_7 
REMARK    4  A    between atoms: O_17  and  C_8 
ROOT
ATOM      1  C   UNL d   1      31.725  17.045 -23.961  0.00  0.00     0.126 A 
ATOM      2  C   UNL d   1      31.910  17.760 -23.597  0.00  0.00     0.015 A 
ATOM      3  C   UNL d   1      32.666  18.064 -23.668  0.00  0.00     0.001 A 
ATOM      4  C   UNL d   1      32.287  16.635 -24.392  0.00  0.00     0.106 A 
ATOM      5  C   UNL d   1      33.240  17.659 -24.100  0.00  0.00     0.002 A 
ATOM      6  C   UNL d   1      33.047  16.941 -24.463  0.00  0.00     0.025 A 
ENDROOT
BRANCH   1   7
ATOM      7  S   UNL d   1      30.962  16.734 -23.891  0.00  0.00     0.273 S 
ATOM      8  O   UNL d   1      31.206  16.280 -23.244  0.00  0.00    -0.200 OA
ATOM      9  O   UNL d   1      30.718  17.187 -24.538  0.00  0.00    -0.200 OA
BRANCH   7  10
ATOM     10  N   UNL d   1      30.199  16.423 -23.822  0.00  0.00    -0.226 N 
ATOM     11  C   UNL d   1      30.042  15.834 -23.266  0.00  0.00     0.111 A 
ATOM     12  C   UNL d   1      29.288  15.523 -23.194  0.00  0.00     0.100 A 
ATOM     13  N   UNL d   1      28.675  15.798 -23.680  0.00  0.00    -0.299 N 
ATOM     14  C   UNL d   1      28.831  16.389 -24.239  0.00  0.00     0.100 A 
ATOM     15  C   UNL d   1      27.915  15.481 -23.604  0.00  0.00     0.100 C 
ATOM     16  C   UNL d   1      29.594  16.700 -24.308  0.00  0.00     0.111 A 
ENDBRANCH   7  10
ENDBRANCH   1   7
BRANCH   4  17
ATOM     17  O   UNL d   1      32.086  15.913 -24.754  0.00  0.00    -0.327 OA
ATOM     18  C   UNL d   1      32.679  15.456 -25.097  0.00  0.00     0.181 C 
ENDBRANCH   4  17
BRANCH   3  19
ATOM     19  C   UNL d   1      32.854  18.781 -23.305  0.00  0.00     0.000 C 
ATOM     20  C   UNL d   1      33.052  18.803 -22.509  0.00  0.00     0.000 C 
ATOM     21  C   UNL d   1      32.843  19.477 -23.751  0.00  0.00     0.000 C 
ENDBRANCH   3  19
TORSDOF 4
ENDMDL
MODEL 2
REMARK VINA RESULT:      -0.5      4.744      6.475
REMARK  4 active torsions:
REMARK  status: ('A' for Active; 'I' for Inactive)
REMARK    1  A    between atoms: C_2  and  S_1 
REMARK    2  A    between atoms: N_3  and  S_1 
REMARK    3  A    between atoms: C_16  and  C_7 
REMARK    4  A    between atoms: O_17  and  C_8 
ROOT
ATOM      1  C   UNL d   1      32.563  22.312 -20.754  0.00  0.00     0.126 A 
ATOM      2  C   UNL d   1      32.721  22.343 -19.947  0.00  0.00     0.015 A 
ATOM      3  C   UNL d   1      32.586  23.037 -19.536  0.00  0.00     0.001 A 
ATOM      4  C   UNL d   1      32.273  22.967 -21.151  0.00  0.00     0.106 A 
ATOM      5  C   UNL d   1      32.294  23.702 -19.927  0.00  0.00     0.002 A 
ATOM      6  C   UNL d   1      32.137  23.665 -20.737  0.00  0.00     0.025 A 
ENDROOT
BRANCH   1   7
ATOM      7  S   UNL d   1      32.698  21.612 -21.173  0.00  0.00     0.273 S 
ATOM      8  O   UNL d   1      32.179  21.211 -20.670  0.00  0.00    -0.200 OA
ATOM      9  O   UNL d   1      33.217  22.014 -21.676  0.00  0.00    -0.200 OA
BRANCH   7  10
ATOM     10  N   UNL d   1      32.833  20.912 -21.592  0.00  0.00    -0.226 N 
ATOM     11  C   UNL d   1      33.000  20.940 -22.400  0.00  0.00     0.111 A 
ATOM     12  C   UNL d   1      33.135  20.249 -22.818  0.00  0.00     0.100 A 
ATOM     13  N   UNL d   1      33.104  19.515 -22.433  0.00  0.00    -0.299 N 
ATOM     14  C   UNL d   1      32.937  19.486 -21.623  0.00  0.00     0.100 A 
ATOM     15  C   UNL d   1      33.241  18.820 -22.860  0.00  0.00     0.100 C 
ATOM     16  C   UNL d   1      32.802  20.186 -21.203  0.00  0.00     0.111 A 
ENDBRANCH   7  10
ENDBRANCH   1   7
BRANCH   4  17
ATOM     17  O   UNL d   1      32.117  22.922 -21.967  0.00  0.00    -0.327 OA
ATOM     18  C   UNL d   1      31.754  23.557 -22.344  0.00  0.00     0.181 C 
ENDBRANCH   4  17
BRANCH   3  19
ATOM     19  C   UNL d   1      32.743  23.071 -18.727  0.00  0.00     0.000 C 
ATOM     20  C   UNL d   1      32.444  23.685 -18.271  0.00  0.00     0.000 C 
ATOM     21  C   UNL d   1      33.207  22.482 -18.378  0.00  0.00     0.000 C 
ENDBRANCH   3  19
TORSDOF 4
ENDMDL
MODEL 3
REMARK VINA RESULT:      -0.5      2.380      3.776
REMARK  4 active torsions:
REMARK  status: ('A' for Active; 'I' for Inactive)
REMARK    1  A    between atoms: C_2  and  S_1 
REMARK    2  A    between atoms: N_3  and  S_1 
REMARK    3  A    between atoms: C_16  and  C_7 
REMARK    4  A    between atoms: O_17  and  C_8 
ROOT
ATOM      1  C   UNL d   1      32.773  19.973 -22.594  0.00  0.00     0.126 A 
ATOM      2  C   UNL d   1      32.663  20.180 -21.805  0.00  0.00     0.015 A 
ATOM      3  C   UNL d   1      32.807  20.949 -21.567  0.00  0.00     0.001 A 
ATOM      4  C   UNL d   1      33.024  20.525 -23.143  0.00  0.00     0.106 A 
ATOM      5  C   UNL d   1      33.060  21.514 -22.112  0.00  0.00     0.002 A 
ATOM      6  C   UNL d   1      33.169  21.299 -22.903  0.00  0.00     0.025 A 
ENDROOT
BRANCH   1   7
ATOM      7  S   UNL d   1      32.628  19.196 -22.839  0.00  0.00     0.273 S 
ATOM      8  O   UNL d   1      33.228  18.927 -22.337  0.00  0.00    -0.200 OA
ATOM      9  O   UNL d   1      32.029  19.466 -23.341  0.00  0.00    -0.200 OA
BRANCH   7  10
ATOM     10  N   UNL d   1      32.484  18.420 -23.084  0.00  0.00    -0.226 N 
ATOM     11  C   UNL d   1      33.080  17.852 -23.031  0.00  0.00     0.111 A 
ATOM     12  C   UNL d   1      32.941  17.082 -23.272  0.00  0.00     0.100 A 
ATOM     13  N   UNL d   1      32.199  16.867 -23.573  0.00  0.00    -0.299 N 
ATOM     14  C   UNL d   1      31.599  17.435 -23.628  0.00  0.00     0.100 A 
ATOM     15  C   UNL d   1      32.063  16.088 -23.816  0.00  0.00     0.100 C 
ATOM     16  C   UNL d   1      31.744  18.212 -23.383  0.00  0.00     0.111 A 
ENDBRANCH   7  10
ENDBRANCH   1   7
BRANCH   4  17
ATOM     17  O   UNL d   1      33.131  20.302 -23.937  0.00  0.00    -0.327 OA
ATOM     18  C   UNL d   1      33.233  20.885 -24.509  0.00  0.00     0.181 C 
ENDBRANCH   4  17
BRANCH   3  19
ATOM     19  C   UNL d   1      32.697  21.160 -20.777  0.00  0.00     0.000 C 
ATOM     20  C   UNL d   1      32.094  21.674 -20.564  0.00  0.00     0.000 C 
ATOM     21  C   UNL d   1      33.201  20.849 -20.200  0.00  0.00     0.000 C 
ENDBRANCH   3  19
TORSDOF 4
ENDMDL
