MODEL 1
REMARK VINA RESULT:      12.0      0.000      0.000
REMARK  4 active torsions:
REMARK  status: ('A' for Active; 'I' for Inactive)
REMARK    1  A    between atoms: C_7  and  C_5 
REMARK    2  A    between atoms: C_8  and  C_7 
REMARK    3  A    between atoms: C_10  and  C_8 
REMARK    4  A    between atoms: O_18  and  C_11 
ROOT
ATOM      1  C   UNL d   1      44.786 -14.778  44.724  0.00  0.00     0.303 A 
ATOM      2  N   UNL d   1      46.421 -15.011  44.647  0.00  0.00    -0.222 NA
ATOM      3  O   UNL d   1      45.092 -15.539  44.623  0.00  0.00    -0.255 OA
ATOM      4  C   UNL d   1      45.300 -14.132  44.787  0.00  0.00     0.081 A 
ATOM      5  C   UNL d   1      45.904 -15.654  44.584  0.00  0.00     0.186 A 
ATOM      6  C   UNL d   1      46.112 -14.248  44.748  0.00  0.00     0.089 A 
ATOM      7  O   UNL d   1      43.967 -14.661  44.763  0.00  0.00    -0.259 OA
ATOM      8  C   UNL d   1      44.994 -13.378  44.887  0.00  0.00     0.007 A 
ATOM      9  C   UNL d   1      46.628 -13.611  44.810  0.00  0.00     0.019 A 
ATOM     10  C   UNL d   1      45.507 -12.734  44.950  0.00  0.00     0.000 A 
ATOM     11  C   UNL d   1      46.319 -12.850  44.911  0.00  0.00     0.002 A 
ENDROOT
BRANCH   5  12
ATOM     12  C   UNL d   1      46.227 -16.431  44.481  0.00  0.00     0.045 C 
BRANCH  12  13
ATOM     13  C   UNL d   1      45.737 -17.088  44.567  0.00  0.00     0.004 C 
BRANCH  13  14
ATOM     14  C   UNL d   1      45.963 -17.820  44.262  0.00  0.00     0.000 A 
ATOM     15  C   UNL d   1      46.099 -17.909  43.457  0.00  0.00     0.002 A 
ATOM     16  C   UNL d   1      46.325 -18.641  43.152  0.00  0.00     0.024 A 
ATOM     17  C   UNL d   1      46.415 -19.289  43.661  0.00  0.00     0.094 A 
ATOM     18  C   UNL d   1      46.278 -19.199  44.470  0.00  0.00     0.024 A 
ATOM     19  C   UNL d   1      46.053 -18.469  44.771  0.00  0.00     0.002 A 
BRANCH  17  20
ATOM     20  O   UNL d   1      46.644 -20.031  43.344  0.00  0.00    -0.328 OA
ATOM     21  C   UNL d   1      46.293 -20.323  42.661  0.00  0.00     0.181 C 
ENDBRANCH  17  20
ENDBRANCH  13  14
ENDBRANCH  12  13
ENDBRANCH   5  12
TORSDOF 4
ENDMDL
