MODEL 1
REMARK VINA RESULT:      22.0      0.000      0.000
REMARK  7 active torsions:
REMARK  status: ('A' for Active; 'I' for Inactive)
REMARK    1  A    between atoms: N_2  and  C_1 
REMARK    2  A    between atoms: C_5  and  C_1 
REMARK    3  A    between atoms: O_4  and  N_2 
REMARK    4  A    between atoms: C_3  and  O_4 
REMARK    5  A    between atoms: C_6  and  C_3 
REMARK    6  A    between atoms: C_17  and  C_14 
REMARK    7  A    between atoms: C_18  and  C_17 
ROOT
ATOM      1  C   UNL d   1     -55.926 -98.787 -45.086  0.00  0.00     0.319 C 
ATOM      2  O   UNL d   1     -55.803 -98.800 -45.906  0.00  0.00    -0.257 OA
ENDROOT
BRANCH   1   3
ATOM      3  O   UNL d   1     -55.283 -98.782 -44.572  0.00  0.00    -0.168 OA
BRANCH   3   4
ATOM      4  N   UNL d   1     -54.754 -99.415 -44.565  0.00  0.00    -0.100 NA
BRANCH   4   5
ATOM      5  C   UNL d   1     -54.760 -99.950 -43.939  0.00  0.00     0.228 C 
ATOM      6  N   UNL d   1     -54.778 -99.675 -43.164  0.00  0.00    -0.123 N 
BRANCH   5   7
ATOM      7  C   UNL d   1     -54.747-100.761 -44.090  0.00  0.00     0.121 A 
ATOM      8  N   UNL d   1     -54.724-101.299 -43.457  0.00  0.00    -0.241 NA
ATOM      9  C   UNL d   1     -54.712-102.118 -43.608  0.00  0.00     0.099 A 
ATOM     10  C   UNL d   1     -54.722-102.391 -44.392  0.00  0.00     0.021 A 
ATOM     11  C   UNL d   1     -54.745-101.857 -45.017  0.00  0.00     0.003 A 
ATOM     12  C   UNL d   1     -54.758-101.046 -44.867  0.00  0.00     0.022 A 
ENDBRANCH   5   7
ENDBRANCH   4   5
ENDBRANCH   3   4
ENDBRANCH   1   3
BRANCH   1  13
ATOM     13  C   UNL d   1     -56.700 -98.780 -44.784  0.00  0.00     0.065 A 
ATOM     14  C   UNL d   1     -56.814 -98.789 -43.967  0.00  0.00     0.005 A 
ATOM     15  C   UNL d   1     -57.579 -98.781 -43.665  0.00  0.00     0.000 A 
ATOM     16  C   UNL d   1     -58.231 -98.765 -44.179  0.00  0.00     0.000 A 
ATOM     17  C   UNL d   1     -58.109 -98.756 -44.994  0.00  0.00     0.000 A 
ATOM     18  C   UNL d   1     -57.335 -98.764 -45.296  0.00  0.00     0.005 A 
BRANCH  16  19
ATOM     19  C   UNL d   1     -58.997 -98.758 -43.868  0.00  0.00     0.000 C 
BRANCH  19  20
ATOM     20  C   UNL d   1     -59.111 -98.765 -43.051  0.00  0.00     0.000 C 
ATOM     21  C   UNL d   1     -59.846 -98.953 -42.732  0.00  0.00     0.000 C 
ENDBRANCH  19  20
ENDBRANCH  16  19
ENDBRANCH   1  13
TORSDOF 7
ENDMDL
