MODEL 1
REMARK VINA RESULT:      58.0      0.000      0.000
REMARK  6 active torsions:
REMARK  status: ('A' for Active; 'I' for Inactive)
REMARK       I    between atoms: C_2  and  N_1 
REMARK    1  A    between atoms: O_20  and  C_2 
REMARK       I    between atoms: C_5  and  N_3 
REMARK    2  A    between atoms: C_16  and  C_5 
REMARK    3  A    between atoms: C_9  and  C_7 
REMARK    4  A    between atoms: C_8  and  S_14 
REMARK    5  A    between atoms: S_14  and  C_16 
REMARK    6  A    between atoms: C_25  and  O_20 
ROOT
ATOM      1  C   UNL d   1      13.725  14.626  -4.603  0.00  0.00     0.098 C 
ENDROOT
BRANCH   1   2
ATOM      2  S   UNL d   1      13.424  13.893  -4.390  0.00  0.00    -0.061 SA
BRANCH   2   3
ATOM      3  C   UNL d   1      13.650  13.539  -3.680  0.00  0.00     0.133 A 
ATOM      4  N   UNL d   1      13.576  12.730  -3.575  0.00  0.00    -0.141 NA
ATOM      5  N   UNL d   1      13.801  12.376  -2.864  0.00  0.00    -0.148 NA
ATOM      6  C   UNL d   1      14.106  12.840  -2.248  0.00  0.00     0.104 A 
ATOM      7  C   UNL d   1      14.182  13.657  -2.351  0.00  0.00     0.023 A 
ATOM      8  C   UNL d   1      13.956  14.006  -3.061  0.00  0.00     0.029 A 
BRANCH   6   9
ATOM      9  C   UNL d   1      14.332  12.486  -1.538  0.00  0.00     0.039 A 
ATOM     10  C   UNL d   1      15.115  12.489  -1.317  0.00  0.00     0.101 A 
ATOM     11  N   UNL d   1      15.344  12.139  -0.613  0.00  0.00    -0.242 NA
ATOM     12  C   UNL d   1      14.773  11.781  -0.125  0.00  0.00     0.099 A 
ATOM     13  C   UNL d   1      13.987  11.780  -0.351  0.00  0.00     0.021 A 
ATOM     14  C   UNL d   1      13.752  12.132  -1.061  0.00  0.00     0.005 A 
ENDBRANCH   6   9
ENDBRANCH   2   3
ENDBRANCH   1   2
BRANCH   1  15
ATOM     15  C   UNL d   1      13.355  15.062  -5.200  0.00  0.00     0.272 C 
ATOM     16  N   UNL d   1      13.570  15.846  -5.328  0.00  0.00    -0.269 N 
ATOM     17  C   UNL d   1      14.157  16.192  -4.855  0.00  0.00     0.102 A 
ATOM     18  C   UNL d   1      13.203  16.277  -5.919  0.00  0.00     0.102 A 
ATOM     19  C   UNL d   1      14.365  16.971  -4.989  0.00  0.00     0.104 A 
ATOM     20  N   UNL d   1      14.002  17.411  -5.581  0.00  0.00    -0.249 N 
ATOM     21  C   UNL d   1      14.208  18.193  -5.717  0.00  0.00     0.378 C 
ATOM     22  C   UNL d   1      13.416  17.063  -6.050  0.00  0.00     0.104 A 
ATOM     23  O   UNL d   1      14.793  18.541  -5.248  0.00  0.00    -0.237 OA
ATOM     24  O   UNL d   1      12.778  14.721  -5.663  0.00  0.00    -0.266 OA
BRANCH  21  25
ATOM     25  O   UNL d   1      13.839  18.626  -6.311  0.00  0.00    -0.257 OA
BRANCH  25  26
ATOM     26  C   UNL d   1      13.952  19.433  -6.364  0.00  0.00     0.128 C 
ATOM     27  C   UNL d   1      13.328  19.945  -6.251  0.00  0.00     0.029 C 
ENDBRANCH  25  26
ENDBRANCH  21  25
ENDBRANCH   1  15
TORSDOF 6
ENDMDL
MODEL 2
REMARK VINA RESULT:      59.8      1.942      6.519
REMARK  6 active torsions:
REMARK  status: ('A' for Active; 'I' for Inactive)
REMARK       I    between atoms: C_2  and  N_1 
REMARK    1  A    between atoms: O_20  and  C_2 
REMARK       I    between atoms: C_5  and  N_3 
REMARK    2  A    between atoms: C_16  and  C_5 
REMARK    3  A    between atoms: C_9  and  C_7 
REMARK    4  A    between atoms: C_8  and  S_14 
REMARK    5  A    between atoms: S_14  and  C_16 
REMARK    6  A    between atoms: C_25  and  O_20 
ROOT
ATOM      1  C   UNL d   1      13.461  15.885  -5.713  0.00  0.00     0.098 C 
ENDROOT
BRANCH   1   2
ATOM      2  S   UNL d   1      13.061  16.480  -6.112  0.00  0.00    -0.061 SA
BRANCH   2   3
ATOM      3  C   UNL d   1      13.349  17.253  -6.106  0.00  0.00     0.133 A 
ATOM      4  N   UNL d   1      14.101  17.416  -5.825  0.00  0.00    -0.141 NA
ATOM      5  N   UNL d   1      14.389  18.189  -5.819  0.00  0.00    -0.148 NA
ATOM      6  C   UNL d   1      13.917  18.810  -6.098  0.00  0.00     0.104 A 
ATOM      7  C   UNL d   1      13.157  18.649  -6.382  0.00  0.00     0.023 A 
ATOM      8  C   UNL d   1      12.873  17.877  -6.387  0.00  0.00     0.029 A 
BRANCH   6   9
ATOM      9  C   UNL d   1      14.205  19.583  -6.092  0.00  0.00     0.039 A 
ATOM     10  C   UNL d   1      14.981  19.723  -5.890  0.00  0.00     0.101 A 
ATOM     11  N   UNL d   1      15.271  20.488  -5.883  0.00  0.00    -0.242 NA
ATOM     12  C   UNL d   1      14.770  21.122  -6.081  0.00  0.00     0.099 A 
ATOM     13  C   UNL d   1      13.991  20.977  -6.283  0.00  0.00     0.021 A 
ATOM     14  C   UNL d   1      13.694  20.206  -6.292  0.00  0.00     0.005 A 
ENDBRANCH   6   9
ENDBRANCH   2   3
ENDBRANCH   1   2
BRANCH   1  15
ATOM     15  C   UNL d   1      13.135  15.567  -5.022  0.00  0.00     0.272 C 
ATOM     16  N   UNL d   1      13.180  14.757  -4.884  0.00  0.00    -0.269 N 
ATOM     17  C   UNL d   1      13.553  14.267  -5.440  0.00  0.00     0.102 A 
ATOM     18  C   UNL d   1      12.858  14.442  -4.202  0.00  0.00     0.102 A 
ATOM     19  C   UNL d   1      13.594  13.463  -5.295  0.00  0.00     0.104 A 
ATOM     20  N   UNL d   1      13.273  13.139  -4.611  0.00  0.00    -0.249 N 
ATOM     21  C   UNL d   1      13.312  12.333  -4.463  0.00  0.00     0.378 C 
ATOM     22  C   UNL d   1      12.901  13.630  -4.059  0.00  0.00     0.104 A 
ATOM     23  O   UNL d   1      13.684  11.842  -5.015  0.00  0.00    -0.237 OA
ATOM     24  O   UNL d   1      12.769  16.049  -4.478  0.00  0.00    -0.266 OA
BRANCH  21  25
ATOM     25  O   UNL d   1      12.988  12.017  -3.777  0.00  0.00    -0.257 OA
BRANCH  25  26
ATOM     26  C   UNL d   1      13.462  11.862  -3.130  0.00  0.00     0.128 C 
ATOM     27  C   UNL d   1      13.133  11.784  -2.388  0.00  0.00     0.029 C 
ENDBRANCH  25  26
ENDBRANCH  21  25
ENDBRANCH   1  15
TORSDOF 6
ENDMDL
