MODEL 1
REMARK VINA RESULT:      -9.2      0.000      0.000
REMARK  3 active torsions:
REMARK  status: ('A' for Active; 'I' for Inactive)
REMARK    1  A    between atoms: C_2  and  S_1 
REMARK    2  A    between atoms: N_3  and  S_1 
REMARK    3  A    between atoms: C_10  and  N_3 
ROOT
ATOM      1  C   UNL d   1      54.010  32.913  54.051  0.00  0.00     0.107 A 
ATOM      2  C   UNL d   1      53.549  33.495  53.691  0.00  0.00     0.040 A 
ATOM      3  C   UNL d   1      53.352  34.188  54.075  0.00  0.00     0.123 A 
ATOM      4  C   UNL d   1      53.616  34.310  54.838  0.00  0.00     0.123 A 
ATOM      5  O   UNL d   1      52.908  34.737  53.714  0.00  0.00    -0.301 OA
ATOM      6  O   UNL d   1      53.440  34.982  55.247  0.00  0.00    -0.301 OA
ATOM      7  C   UNL d   1      54.283  33.039  54.839  0.00  0.00     0.015 A 
ATOM      8  C   UNL d   1      54.080  33.741  55.223  0.00  0.00     0.028 A 
ATOM      9  C   UNL d   1      52.706  35.439  54.098  0.00  0.00     0.149 A 
ATOM     10  C   UNL d   1      52.979  35.565  54.887  0.00  0.00     0.149 A 
ENDROOT
BRANCH   1  11
ATOM     11  S   UNL d   1      54.191  32.213  53.621  0.00  0.00     0.285 S 
ATOM     12  O   UNL d   1      54.381  31.508  53.184  0.00  0.00    -0.198 OA
ATOM     13  O   UNL d   1      54.886  32.559  53.304  0.00  0.00    -0.198 OA
BRANCH  11  14
ATOM     14  N   UNL d   1      53.521  31.839  53.909  0.00  0.00    -0.157 NA
BRANCH  14  15
ATOM     15  C   UNL d   1      53.304  31.116  53.660  0.00  0.00     0.113 A 
ATOM     16  C   UNL d   1      52.846  31.029  52.980  0.00  0.00     0.119 A 
ATOM     17  N   UNL d   1      52.621  30.280  52.723  0.00  0.00    -0.241 NA
ATOM     18  C   UNL d   1      52.849  29.630  53.135  0.00  0.00     0.099 A 
ATOM     19  C   UNL d   1      53.319  29.708  53.832  0.00  0.00     0.022 A 
ATOM     20  C   UNL d   1      53.531  30.460  54.070  0.00  0.00     0.023 A 
ENDBRANCH  14  15
ENDBRANCH  11  14
ENDBRANCH   1  11
TORSDOF 3
ENDMDL
MODEL 2
REMARK VINA RESULT:      -9.0      1.208      4.053
REMARK  3 active torsions:
REMARK  status: ('A' for Active; 'I' for Inactive)
REMARK    1  A    between atoms: C_2  and  S_1 
REMARK    2  A    between atoms: N_3  and  S_1 
REMARK    3  A    between atoms: C_10  and  N_3 
ROOT
ATOM      1  C   UNL d   1      53.510  32.071  53.436  0.00  0.00     0.107 A 
ATOM      2  C   UNL d   1      53.734  31.439  53.917  0.00  0.00     0.040 A 
ATOM      3  C   UNL d   1      53.403  30.697  53.836  0.00  0.00     0.123 A 
ATOM      4  C   UNL d   1      52.834  30.574  53.263  0.00  0.00     0.123 A 
ATOM      5  O   UNL d   1      53.630  30.101  54.307  0.00  0.00    -0.301 OA
ATOM      6  O   UNL d   1      52.487  29.855  53.156  0.00  0.00    -0.301 OA
ATOM      7  C   UNL d   1      52.922  31.944  52.843  0.00  0.00     0.015 A 
ATOM      8  C   UNL d   1      52.591  31.192  52.766  0.00  0.00     0.028 A 
ATOM      9  C   UNL d   1      53.298  29.349  54.229  0.00  0.00     0.149 A 
ATOM     10  C   UNL d   1      52.711  29.222  53.637  0.00  0.00     0.149 A 
ENDROOT
BRANCH   1  11
ATOM     11  S   UNL d   1      53.875  32.820  53.550  0.00  0.00     0.285 S 
ATOM     12  O   UNL d   1      54.249  33.575  53.664  0.00  0.00    -0.198 OA
ATOM     13  O   UNL d   1      54.590  32.552  53.204  0.00  0.00    -0.198 OA
BRANCH  11  14
ATOM     14  N   UNL d   1      53.194  33.120  53.895  0.00  0.00    -0.157 NA
BRANCH  14  15
ATOM     15  C   UNL d   1      53.144  33.875  54.139  0.00  0.00     0.113 A 
ATOM     16  C   UNL d   1      53.402  34.087  54.893  0.00  0.00     0.119 A 
ATOM     17  N   UNL d   1      53.351  34.869  55.145  0.00  0.00    -0.241 NA
ATOM     18  C   UNL d   1      53.049  35.428  54.656  0.00  0.00     0.099 A 
ATOM     19  C   UNL d   1      52.782  35.222  53.883  0.00  0.00     0.022 A 
ATOM     20  C   UNL d   1      52.842  34.440  53.652  0.00  0.00     0.023 A 
ENDBRANCH  14  15
ENDBRANCH  11  14
ENDBRANCH   1  11
TORSDOF 3
ENDMDL
MODEL 3
REMARK VINA RESULT:      -7.8      2.114      3.147
REMARK  3 active torsions:
REMARK  status: ('A' for Active; 'I' for Inactive)
REMARK    1  A    between atoms: C_2  and  S_1 
REMARK    2  A    between atoms: N_3  and  S_1 
REMARK    3  A    between atoms: C_10  and  N_3 
ROOT
ATOM      1  C   UNL d   1      53.097  32.876  53.525  0.00  0.00     0.107 A 
ATOM      2  C   UNL d   1      53.176  33.169  54.293  0.00  0.00     0.040 A 
ATOM      3  C   UNL d   1      53.906  33.324  54.623  0.00  0.00     0.123 A 
ATOM      4  C   UNL d   1      54.580  33.187  54.182  0.00  0.00     0.123 A 
ATOM      5  O   UNL d   1      53.963  33.605  55.361  0.00  0.00    -0.301 OA
ATOM      6  O   UNL d   1      55.317  33.329  54.477  0.00  0.00    -0.301 OA
ATOM      7  C   UNL d   1      53.793  32.734  53.070  0.00  0.00     0.015 A 
ATOM      8  C   UNL d   1      54.529  32.893  53.408  0.00  0.00     0.028 A 
ATOM      9  C   UNL d   1      54.699  33.763  55.700  0.00  0.00     0.149 A 
ATOM     10  C   UNL d   1      55.396  33.621  55.244  0.00  0.00     0.149 A 
ENDROOT
BRANCH   1  11
ATOM     11  S   UNL d   1      52.327  32.729  53.222  0.00  0.00     0.285 S 
ATOM     12  O   UNL d   1      51.548  32.574  52.915  0.00  0.00    -0.198 OA
ATOM     13  O   UNL d   1      52.436  31.900  53.279  0.00  0.00    -0.198 OA
BRANCH  11  14
ATOM     14  N   UNL d   1      52.181  33.533  53.150  0.00  0.00    -0.157 NA
BRANCH  14  15
ATOM     15  C   UNL d   1      51.509  33.811  52.827  0.00  0.00     0.113 A 
ATOM     16  C   UNL d   1      50.827  33.887  53.284  0.00  0.00     0.119 A 
ATOM     17  N   UNL d   1      50.132  34.175  52.948  0.00  0.00    -0.241 NA
ATOM     18  C   UNL d   1      50.117  34.382  52.174  0.00  0.00     0.099 A 
ATOM     19  C   UNL d   1      50.810  34.307  51.697  0.00  0.00     0.022 A 
ATOM     20  C   UNL d   1      51.489  34.020  52.049  0.00  0.00     0.023 A 
ENDBRANCH  14  15
ENDBRANCH  11  14
ENDBRANCH   1  11
TORSDOF 3
ENDMDL
MODEL 4
REMARK VINA RESULT:      -7.4      2.251      3.953
REMARK  3 active torsions:
REMARK  status: ('A' for Active; 'I' for Inactive)
REMARK    1  A    between atoms: C_2  and  S_1 
REMARK    2  A    between atoms: N_3  and  S_1 
REMARK    3  A    between atoms: C_10  and  N_3 
ROOT
ATOM      1  C   UNL d   1      52.634  33.190  53.248  0.00  0.00     0.107 A 
ATOM      2  C   UNL d   1      52.550  32.497  52.808  0.00  0.00     0.040 A 
ATOM      3  C   UNL d   1      52.877  31.790  53.051  0.00  0.00     0.123 A 
ATOM      4  C   UNL d   1      53.299  31.764  53.749  0.00  0.00     0.123 A 
ATOM      5  O   UNL d   1      52.787  31.134  52.616  0.00  0.00    -0.301 OA
ATOM      6  O   UNL d   1      53.635  31.083  54.019  0.00  0.00    -0.301 OA
ATOM      7  C   UNL d   1      53.070  33.164  53.970  0.00  0.00     0.015 A 
ATOM      8  C   UNL d   1      53.398  32.446  54.211  0.00  0.00     0.028 A 
ATOM      9  C   UNL d   1      53.115  30.416  52.857  0.00  0.00     0.149 A 
ATOM     10  C   UNL d   1      53.552  30.389  53.579  0.00  0.00     0.149 A 
ENDROOT
BRANCH   1  11
ATOM     11  S   UNL d   1      52.282  33.899  52.964  0.00  0.00     0.285 S 
ATOM     12  O   UNL d   1      51.932  34.619  52.676  0.00  0.00    -0.198 OA
ATOM     13  O   UNL d   1      53.033  34.259  52.860  0.00  0.00    -0.198 OA
BRANCH  11  14
ATOM     14  N   UNL d   1      51.530  33.583  53.051  0.00  0.00    -0.157 NA
BRANCH  14  15
ATOM     15  C   UNL d   1      50.876  34.005  52.887  0.00  0.00     0.113 A 
ATOM     16  C   UNL d   1      50.506  34.447  53.477  0.00  0.00     0.119 A 
ATOM     17  N   UNL d   1      49.829  34.883  53.307  0.00  0.00    -0.241 NA
ATOM     18  C   UNL d   1      49.527  34.880  52.564  0.00  0.00     0.099 A 
ATOM     19  C   UNL d   1      49.899  34.431  51.953  0.00  0.00     0.022 A 
ATOM     20  C   UNL d   1      50.569  34.005  52.143  0.00  0.00     0.023 A 
ENDBRANCH  14  15
ENDBRANCH  11  14
ENDBRANCH   1  11
TORSDOF 3
ENDMDL
