MODEL 1
REMARK VINA RESULT:      -3.5      0.000      0.000
REMARK  4 active torsions:
REMARK  status: ('A' for Active; 'I' for Inactive)
REMARK    1  A    between atoms: N_8  and  C_2 
REMARK    2  A    between atoms: C_9  and  C_3 
REMARK    3  A    between atoms: C_7  and  N_10 
REMARK    4  A    between atoms: N_10  and  N_8 
ROOT
ATOM      1  N   UNL d   1      32.925  19.286 -22.485  0.00  0.00    -0.219 NA
ATOM      2  C   UNL d   1      33.131  20.062 -22.627  0.00  0.00     0.215 A 
ATOM      3  C   UNL d   1      32.909  18.908 -23.233  0.00  0.00     0.090 A 
ATOM      4  S   UNL d   1      33.241  20.167 -23.440  0.00  0.00    -0.045 SA
ATOM      5  C   UNL d   1      33.104  19.459 -23.804  0.00  0.00     0.058 A 
ENDROOT
BRANCH   2   6
ATOM      6  N   UNL d   1      33.219  20.654 -22.061  0.00  0.00    -0.120 NA
BRANCH   6   7
ATOM      7  N   UNL d   1      32.617  20.805 -21.533  0.00  0.00    -0.127 NA
BRANCH   7   8
ATOM      8  C   UNL d   1      32.659  21.473 -21.041  0.00  0.00     0.184 A 
ATOM      9  N   UNL d   1      32.210  22.098 -21.319  0.00  0.00    -0.224 NA
ATOM     10  C   UNL d   1      32.096  22.843 -21.013  0.00  0.00     0.101 A 
ATOM     11  C   UNL d   1      32.407  23.164 -20.335  0.00  0.00     0.021 A 
ATOM     12  C   UNL d   1      32.921  22.809 -19.786  0.00  0.00     0.002 A 
ATOM     13  C   UNL d   1      33.235  22.063 -19.790  0.00  0.00     0.003 A 
ATOM     14  C   UNL d   1      33.123  21.447 -20.356  0.00  0.00     0.041 A 
ENDBRANCH   7   8
ENDBRANCH   6   7
ENDBRANCH   2   6
BRANCH   3  15
ATOM     15  C   UNL d   1      32.718  18.099 -23.325  0.00  0.00     0.018 A 
ATOM     16  C   UNL d   1      33.241  17.510 -23.115  0.00  0.00     0.002 A 
ATOM     17  C   UNL d   1      33.039  16.717 -23.211  0.00  0.00     0.011 A 
ATOM     18  C   UNL d   1      32.302  16.516 -23.522  0.00  0.00     0.058 A 
ATOM     19  C   UNL d   1      31.763  17.097 -23.739  0.00  0.00     0.011 A 
ATOM     20 CL   UNL d   1      32.111  15.707 -23.613  0.00  0.00    -0.082 Cl
ATOM     21  C   UNL d   1      31.965  17.897 -23.642  0.00  0.00     0.002 A 
ENDBRANCH   3  15
TORSDOF 4
ENDMDL
MODEL 2
REMARK VINA RESULT:      -3.0      1.353      2.179
REMARK  4 active torsions:
REMARK  status: ('A' for Active; 'I' for Inactive)
REMARK    1  A    between atoms: N_8  and  C_2 
REMARK    2  A    between atoms: C_9  and  C_3 
REMARK    3  A    between atoms: C_7  and  N_10 
REMARK    4  A    between atoms: N_10  and  N_8 
ROOT
ATOM      1  N   UNL d   1      31.994  18.110 -23.446  0.00  0.00    -0.219 NA
ATOM      2  C   UNL d   1      32.745  18.327 -23.214  0.00  0.00     0.215 A 
ATOM      3  C   UNL d   1      32.031  17.289 -23.616  0.00  0.00     0.090 A 
ATOM      4  S   UNL d   1      33.237  17.663 -23.238  0.00  0.00    -0.045 SA
ATOM      5  C   UNL d   1      32.795  17.033 -23.484  0.00  0.00     0.058 A 
ENDROOT
BRANCH   2   6
ATOM      6  N   UNL d   1      32.986  19.082 -22.991  0.00  0.00    -0.120 NA
BRANCH   6   7
ATOM      7  N   UNL d   1      32.874  19.335 -22.224  0.00  0.00    -0.127 NA
BRANCH   7   8
ATOM      8  C   UNL d   1      32.959  20.141 -22.040  0.00  0.00     0.184 A 
ATOM      9  N   UNL d   1      32.851  20.294 -21.243  0.00  0.00    -0.224 NA
ATOM     10  C   UNL d   1      32.885  20.995 -20.832  0.00  0.00     0.101 A 
ATOM     11  C   UNL d   1      33.037  21.740 -21.115  0.00  0.00     0.021 A 
ATOM     12  C   UNL d   1      33.198  21.972 -21.898  0.00  0.00     0.002 A 
ATOM     13  C   UNL d   1      33.241  21.515 -22.565  0.00  0.00     0.003 A 
ATOM     14  C   UNL d   1      33.134  20.682 -22.642  0.00  0.00     0.041 A 
ENDBRANCH   7   8
ENDBRANCH   6   7
ENDBRANCH   2   6
BRANCH   3  15
ATOM     15  C   UNL d   1      31.366  16.853 -23.875  0.00  0.00     0.018 A 
ATOM     16  C   UNL d   1      31.194  16.116 -23.574  0.00  0.00     0.002 A 
ATOM     17  C   UNL d   1      30.535  15.698 -23.839  0.00  0.00     0.011 A 
ATOM     18  C   UNL d   1      30.044  16.028 -24.414  0.00  0.00     0.058 A 
ATOM     19  C   UNL d   1      30.203  16.770 -24.729  0.00  0.00     0.011 A 
ATOM     20 CL   UNL d   1      29.379  15.592 -24.673  0.00  0.00    -0.082 Cl
ATOM     21  C   UNL d   1      30.867  17.192 -24.462  0.00  0.00     0.002 A 
ENDBRANCH   3  15
TORSDOF 4
ENDMDL
MODEL 3
REMARK VINA RESULT:      -2.9      2.037      5.184
REMARK  4 active torsions:
REMARK  status: ('A' for Active; 'I' for Inactive)
REMARK    1  A    between atoms: N_8  and  C_2 
REMARK    2  A    between atoms: C_9  and  C_3 
REMARK    3  A    between atoms: C_7  and  N_10 
REMARK    4  A    between atoms: N_10  and  N_8 
ROOT
ATOM      1  N   UNL d   1      32.864  19.716 -22.104  0.00  0.00    -0.219 NA
ATOM      2  C   UNL d   1      33.011  19.283 -22.779  0.00  0.00     0.215 A 
ATOM      3  C   UNL d   1      33.009  20.517 -22.306  0.00  0.00     0.090 A 
ATOM      4  S   UNL d   1      33.240  19.796 -23.385  0.00  0.00    -0.045 SA
ATOM      5  C   UNL d   1      33.238  20.548 -23.090  0.00  0.00     0.058 A 
ENDROOT
BRANCH   2   6
ATOM      6  N   UNL d   1      32.944  18.465 -22.856  0.00  0.00    -0.120 NA
BRANCH   6   7
ATOM      7  N   UNL d   1      32.606  18.145 -23.525  0.00  0.00    -0.127 NA
BRANCH   7   8
ATOM      8  C   UNL d   1      32.359  17.352 -23.522  0.00  0.00     0.184 A 
ATOM      9  N   UNL d   1      31.564  17.270 -23.701  0.00  0.00    -0.224 NA
ATOM     10  C   UNL d   1      31.103  16.602 -23.757  0.00  0.00     0.101 A 
ATOM     11  C   UNL d   1      31.320  15.828 -23.649  0.00  0.00     0.021 A 
ATOM     12  C   UNL d   1      32.069  15.524 -23.452  0.00  0.00     0.002 A 
ATOM     13  C   UNL d   1      32.761  15.923 -23.321  0.00  0.00     0.003 A 
ATOM     14  C   UNL d   1      32.905  16.754 -23.351  0.00  0.00     0.041 A 
ENDBRANCH   7   8
ENDBRANCH   6   7
ENDBRANCH   2   6
BRANCH   3  15
ATOM     15  C   UNL d   1      32.920  21.143 -21.758  0.00  0.00     0.018 A 
ATOM     16  C   UNL d   1      32.553  21.032 -21.038  0.00  0.00     0.002 A 
ATOM     17  C   UNL d   1      32.473  21.658 -20.509  0.00  0.00     0.011 A 
ATOM     18  C   UNL d   1      32.766  22.403 -20.707  0.00  0.00     0.058 A 
ATOM     19  C   UNL d   1      33.140  22.532 -21.427  0.00  0.00     0.011 A 
ATOM     20 CL   UNL d   1      32.677  23.029 -20.159  0.00  0.00    -0.082 Cl
ATOM     21  C   UNL d   1      33.221  21.901 -21.962  0.00  0.00     0.002 A 
ENDBRANCH   3  15
TORSDOF 4
ENDMDL
MODEL 4
REMARK VINA RESULT:      -2.4      2.167      5.227
REMARK  4 active torsions:
REMARK  status: ('A' for Active; 'I' for Inactive)
REMARK    1  A    between atoms: N_8  and  C_2 
REMARK    2  A    between atoms: C_9  and  C_3 
REMARK    3  A    between atoms: C_7  and  N_10 
REMARK    4  A    between atoms: N_10  and  N_8 
ROOT
ATOM      1  N   UNL d   1      33.111  20.953 -21.637  0.00  0.00    -0.219 NA
ATOM      2  C   UNL d   1      33.198  20.713 -22.411  0.00  0.00     0.215 A 
ATOM      3  C   UNL d   1      33.097  21.792 -21.653  0.00  0.00     0.090 A 
ATOM      4  S   UNL d   1      33.236  21.380 -22.898  0.00  0.00    -0.045 SA
ATOM      5  C   UNL d   1      33.173  22.035 -22.429  0.00  0.00     0.058 A 
ENDROOT
BRANCH   2   6
ATOM      6  N   UNL d   1      33.241  19.935 -22.676  0.00  0.00    -0.120 NA
BRANCH   6   7
ATOM      7  N   UNL d   1      32.566  19.549 -22.921  0.00  0.00    -0.127 NA
BRANCH   7   8
ATOM      8  C   UNL d   1      32.614  18.764 -23.189  0.00  0.00     0.184 A 
ATOM      9  N   UNL d   1      32.128  18.622 -23.832  0.00  0.00    -0.224 NA
ATOM     10  C   UNL d   1      32.007  17.940 -24.260  0.00  0.00     0.101 A 
ATOM     11  C   UNL d   1      32.346  17.210 -24.155  0.00  0.00     0.021 A 
ATOM     12  C   UNL d   1      32.903  16.978 -23.582  0.00  0.00     0.002 A 
ATOM     13  C   UNL d   1      33.241  17.418 -22.993  0.00  0.00     0.003 A 
ATOM     14  C   UNL d   1      33.117  18.231 -22.805  0.00  0.00     0.041 A 
ENDBRANCH   7   8
ENDBRANCH   6   7
ENDBRANCH   2   6
BRANCH   3  15
ATOM     15  C   UNL d   1      33.015  22.254 -20.961  0.00  0.00     0.018 A 
ATOM     16  C   UNL d   1      32.923  23.063 -20.996  0.00  0.00     0.002 A 
ATOM     17  C   UNL d   1      32.844  23.505 -20.305  0.00  0.00     0.011 A 
ATOM     18  C   UNL d   1      32.857  23.128 -19.572  0.00  0.00     0.058 A 
ATOM     19  C   UNL d   1      32.948  22.313 -19.519  0.00  0.00     0.011 A 
ATOM     20 CL   UNL d   1      32.775  23.590 -18.880  0.00  0.00    -0.082 Cl
ATOM     21  C   UNL d   1      33.028  21.866 -20.215  0.00  0.00     0.002 A 
ENDBRANCH   3  15
TORSDOF 4
ENDMDL
MODEL 5
REMARK VINA RESULT:      -1.9      2.280      3.504
REMARK  4 active torsions:
REMARK  status: ('A' for Active; 'I' for Inactive)
REMARK    1  A    between atoms: N_8  and  C_2 
REMARK    2  A    between atoms: C_9  and  C_3 
REMARK    3  A    between atoms: C_7  and  N_10 
REMARK    4  A    between atoms: N_10  and  N_8 
ROOT
ATOM      1  N   UNL d   1      31.183  17.121 -23.640  0.00  0.00    -0.219 NA
ATOM      2  C   UNL d   1      31.995  17.141 -23.576  0.00  0.00     0.215 A 
ATOM      3  C   UNL d   1      30.996  16.392 -24.012  0.00  0.00     0.090 A 
ATOM      4  S   UNL d   1      32.308  16.448 -23.898  0.00  0.00    -0.045 SA
ATOM      5  C   UNL d   1      31.694  15.995 -24.163  0.00  0.00     0.058 A 
ENDROOT
BRANCH   2   6
ATOM      6  N   UNL d   1      32.441  17.749 -23.246  0.00  0.00    -0.120 NA
BRANCH   6   7
ATOM      7  N   UNL d   1      32.592  18.424 -23.677  0.00  0.00    -0.127 NA
BRANCH   7   8
ATOM      8  C   UNL d   1      32.796  19.127 -23.283  0.00  0.00     0.184 A 
ATOM      9  N   UNL d   1      32.892  19.758 -23.796  0.00  0.00    -0.224 NA
ATOM     10  C   UNL d   1      33.087  20.533 -23.647  0.00  0.00     0.101 A 
ATOM     11  C   UNL d   1      33.241  20.888 -22.933  0.00  0.00     0.021 A 
ATOM     12  C   UNL d   1      33.236  20.544 -22.175  0.00  0.00     0.002 A 
ATOM     13  C   UNL d   1      33.078  19.779 -21.964  0.00  0.00     0.003 A 
ATOM     14  C   UNL d   1      32.877  19.126 -22.459  0.00  0.00     0.041 A 
ENDBRANCH   7   8
ENDBRANCH   6   7
ENDBRANCH   2   6
BRANCH   3  15
ATOM     15  C   UNL d   1      30.210  16.160 -24.179  0.00  0.00     0.018 A 
ATOM     16  C   UNL d   1      29.982  15.928 -24.927  0.00  0.00     0.002 A 
ATOM     17  C   UNL d   1      29.205  15.702 -25.076  0.00  0.00     0.011 A 
ATOM     18  C   UNL d   1      28.651  15.710 -24.464  0.00  0.00     0.058 A 
ATOM     19  C   UNL d   1      28.863  15.940 -23.705  0.00  0.00     0.011 A 
ATOM     20 CL   UNL d   1      27.865  15.477 -24.631  0.00  0.00    -0.082 Cl
ATOM     21  C   UNL d   1      29.648  16.169 -23.554  0.00  0.00     0.002 A 
ENDBRANCH   3  15
TORSDOF 4
ENDMDL
MODEL 6
REMARK VINA RESULT:      -1.6      2.441      5.321
REMARK  4 active torsions:
REMARK  status: ('A' for Active; 'I' for Inactive)
REMARK    1  A    between atoms: N_8  and  C_2 
REMARK    2  A    between atoms: C_9  and  C_3 
REMARK    3  A    between atoms: C_7  and  N_10 
REMARK    4  A    between atoms: N_10  and  N_8 
ROOT
ATOM      1  N   UNL d   1      32.033  18.928 -23.524  0.00  0.00    -0.219 NA
ATOM      2  C   UNL d   1      32.127  18.541 -24.236  0.00  0.00     0.215 A 
ATOM      3  C   UNL d   1      32.742  19.358 -23.398  0.00  0.00     0.090 A 
ATOM      4  S   UNL d   1      32.870  18.723 -24.547  0.00  0.00    -0.045 SA
ATOM      5  C   UNL d   1      33.241  19.222 -24.031  0.00  0.00     0.058 A 
ENDROOT
BRANCH   2   6
ATOM      6  N   UNL d   1      31.575  18.046 -24.596  0.00  0.00    -0.120 NA
BRANCH   6   7
ATOM      7  N   UNL d   1      31.389  17.329 -24.257  0.00  0.00    -0.127 NA
BRANCH   7   8
ATOM      8  C   UNL d   1      30.660  16.969 -24.429  0.00  0.00     0.184 A 
ATOM      9  N   UNL d   1      30.720  16.156 -24.500  0.00  0.00    -0.224 NA
ATOM     10  C   UNL d   1      30.150  15.598 -24.663  0.00  0.00     0.101 A 
ATOM     11  C   UNL d   1      29.358  15.709 -24.799  0.00  0.00     0.021 A 
ATOM     12  C   UNL d   1      28.931  16.423 -24.805  0.00  0.00     0.002 A 
ATOM     13  C   UNL d   1      29.197  17.177 -24.679  0.00  0.00     0.003 A 
ATOM     14  C   UNL d   1      29.981  17.437 -24.508  0.00  0.00     0.041 A 
ENDBRANCH   7   8
ENDBRANCH   6   7
ENDBRANCH   2   6
BRANCH   3  15
ATOM     15  C   UNL d   1      32.867  19.833 -22.721  0.00  0.00     0.018 A 
ATOM     16  C   UNL d   1      32.874  20.647 -22.764  0.00  0.00     0.002 A 
ATOM     17  C   UNL d   1      32.998  21.101 -22.088  0.00  0.00     0.011 A 
ATOM     18  C   UNL d   1      33.116  20.730 -21.361  0.00  0.00     0.058 A 
ATOM     19  C   UNL d   1      33.112  19.911 -21.299  0.00  0.00     0.011 A 
ATOM     20 CL   UNL d   1      33.241  21.204 -20.684  0.00  0.00    -0.082 Cl
ATOM     21  C   UNL d   1      32.987  19.451 -21.981  0.00  0.00     0.002 A 
ENDBRANCH   3  15
TORSDOF 4
ENDMDL
MODEL 7
REMARK VINA RESULT:      -1.2      3.658      5.695
REMARK  4 active torsions:
REMARK  status: ('A' for Active; 'I' for Inactive)
REMARK    1  A    between atoms: N_8  and  C_2 
REMARK    2  A    between atoms: C_9  and  C_3 
REMARK    3  A    between atoms: C_7  and  N_10 
REMARK    4  A    between atoms: N_10  and  N_8 
ROOT
ATOM      1  N   UNL d   1      33.110  22.782 -20.265  0.00  0.00    -0.219 NA
ATOM      2  C   UNL d   1      33.056  22.277 -20.902  0.00  0.00     0.215 A 
ATOM      3  C   UNL d   1      32.864  22.340 -19.595  0.00  0.00     0.090 A 
ATOM      4  S   UNL d   1      32.785  21.541 -20.641  0.00  0.00    -0.045 SA
ATOM      5  C   UNL d   1      32.670  21.586 -19.843  0.00  0.00     0.058 A 
ENDROOT
BRANCH   2   6
ATOM      6  N   UNL d   1      33.240  22.460 -21.684  0.00  0.00    -0.120 NA
BRANCH   6   7
ATOM      7  N   UNL d   1      33.004  21.963 -22.285  0.00  0.00    -0.127 NA
BRANCH   7   8
ATOM      8  C   UNL d   1      33.056  22.217 -23.074  0.00  0.00     0.184 A 
ATOM      9  N   UNL d   1      33.139  21.595 -23.600  0.00  0.00    -0.224 NA
ATOM     10  C   UNL d   1      33.208  21.596 -24.410  0.00  0.00     0.101 A 
ATOM     11  C   UNL d   1      33.214  22.230 -24.917  0.00  0.00     0.021 A 
ATOM     12  C   UNL d   1      33.150  23.039 -24.731  0.00  0.00     0.002 A 
ATOM     13  C   UNL d   1      33.067  23.389 -24.007  0.00  0.00     0.003 A 
ATOM     14  C   UNL d   1      33.023  23.026 -23.246  0.00  0.00     0.041 A 
ENDBRANCH   7   8
ENDBRANCH   6   7
ENDBRANCH   2   6
BRANCH   3  15
ATOM     15  C   UNL d   1      32.840  22.665 -18.825  0.00  0.00     0.018 A 
ATOM     16  C   UNL d   1      32.442  23.358 -18.665  0.00  0.00     0.002 A 
ATOM     17  C   UNL d   1      32.427  23.665 -17.901  0.00  0.00     0.011 A 
ATOM     18  C   UNL d   1      32.819  23.270 -17.292  0.00  0.00     0.058 A 
ATOM     19  C   UNL d   1      33.226  22.570 -17.435  0.00  0.00     0.011 A 
ATOM     20 CL   UNL d   1      32.795  23.594 -16.522  0.00  0.00    -0.082 Cl
ATOM     21  C   UNL d   1      33.241  22.259 -18.206  0.00  0.00     0.002 A 
ENDBRANCH   3  15
TORSDOF 4
ENDMDL
