MODEL 1
REMARK VINA RESULT:       2.7      0.000      0.000
REMARK  12 active torsions:
REMARK  status: ('A' for Active; 'I' for Inactive)
REMARK    1  A    between atoms: C_18  and  N_1 
REMARK    2  A    between atoms: C_9  and  N_3 
REMARK    3  A    between atoms: C_12  and  C_9 
REMARK       I    between atoms: N_19  and  C_12 
REMARK    4  A    between atoms: C_14  and  C_22 
REMARK       I    between atoms: N_15  and  C_14 
REMARK    5  A    between atoms: C_20  and  N_15 
REMARK    6  A    between atoms: C_27  and  C_18 
REMARK    7  A    between atoms: C_23  and  N_19 
REMARK    8  A    between atoms: O_21  and  C_24 
REMARK    9  A    between atoms: C_22  and  C_29 
REMARK   10  A    between atoms: C_24  and  C_23 
REMARK   11  A    between atoms: C_30  and  C_27 
REMARK   12  A    between atoms: C_29  and  C_30 
ROOT
ATOM      1  N   UNL d   1     -41.960-122.714 -50.644  0.00  0.00    -0.225 N 
ATOM      2  C   UNL d   1     -42.016-123.245 -50.016  0.00  0.00     0.342 A 
ATOM      3  N   UNL d   1     -42.707-123.282 -49.551  0.00  0.00    -0.253 N 
ATOM      4  C   UNL d   1     -43.276-122.244 -50.364  0.00  0.00     0.102 A 
ATOM      5  C   UNL d   1     -42.591-122.218 -50.813  0.00  0.00     0.276 A 
ATOM      6  C   UNL d   1     -43.344-122.779 -49.724  0.00  0.00     0.080 A 
ATOM      7  S   UNL d   1     -43.996-121.808 -50.411  0.00  0.00    -0.080 SA
ATOM      8  C   UNL d   1     -44.100-122.681 -49.371  0.00  0.00     0.025 A 
ATOM      9  O   UNL d   1     -41.391-123.750 -49.834  0.00  0.00    -0.245 OA
ATOM     10  C   UNL d   1     -44.504-122.080 -49.796  0.00  0.00     0.037 A 
ATOM     11  O   UNL d   1     -42.526-121.693 -51.439  0.00  0.00    -0.266 OA
ENDROOT
BRANCH   1  12
ATOM     12  C   UNL d   1     -41.279-122.690 -51.088  0.00  0.00     0.087 C 
BRANCH  12  13
ATOM     13  C   UNL d   1     -41.124-123.294 -51.635  0.00  0.00     0.019 C 
BRANCH  13  14
ATOM     14  C   UNL d   1     -41.223-123.151 -52.439  0.00  0.00     0.002 C 
BRANCH  14  15
ATOM     15  C   UNL d   1     -41.518-123.740 -52.930  0.00  0.00     0.005 C 
BRANCH  15  16
ATOM     16  C   UNL d   1     -41.244-123.815 -53.700  0.00  0.00     0.062 C 
BRANCH  16  17
ATOM     17  C   UNL d   1     -41.629-123.424 -54.319  0.00  0.00     0.279 C 
ATOM     18  N   UNL d   1     -41.341-122.697 -54.591  0.00  0.00    -0.208 NA
ATOM     19  O   UNL d   1     -42.300-123.762 -54.662  0.00  0.00    -0.265 OA
BRANCH  18  20
ATOM     20  C   UNL d   1     -41.725-122.312 -55.205  0.00  0.00     0.085 A 
ATOM     21  C   UNL d   1     -41.305-122.115 -55.882  0.00  0.00     0.019 A 
ATOM     22  C   UNL d   1     -41.689-121.727 -56.502  0.00  0.00     0.002 A 
ATOM     23  C   UNL d   1     -42.494-121.540 -56.435  0.00  0.00     0.000 A 
ATOM     24  C   UNL d   1     -42.907-121.741 -55.755  0.00  0.00     0.002 A 
ATOM     25  C   UNL d   1     -42.526-122.127 -55.137  0.00  0.00     0.019 A 
ENDBRANCH  18  20
ENDBRANCH  16  17
ENDBRANCH  15  16
ENDBRANCH  14  15
ENDBRANCH  13  14
ENDBRANCH  12  13
ENDBRANCH   1  12
BRANCH   3  26
ATOM     26  C   UNL d   1     -42.752-123.817 -48.925  0.00  0.00     0.147 C 
BRANCH  26  27
ATOM     27  C   UNL d   1     -42.177-123.802 -48.326  0.00  0.00     0.297 C 
ATOM     28  O   UNL d   1     -41.381-123.778 -48.508  0.00  0.00    -0.264 OA
ATOM     29  N   UNL d   1     -42.416-123.811 -47.524  0.00  0.00    -0.203 NA
BRANCH  29  30
ATOM     30  C   UNL d   1     -41.841-123.795 -46.915  0.00  0.00     0.129 C 
BRANCH  30  31
ATOM     31  C   UNL d   1     -41.511-123.077 -46.676  0.00  0.00     0.137 C 
BRANCH  31  32
ATOM     32  O   UNL d   1     -41.848-122.366 -46.910  0.00  0.00    -0.325 OA
ATOM     33  C   UNL d   1     -41.366-121.754 -47.180  0.00  0.00     0.182 C 
ENDBRANCH  31  32
ENDBRANCH  30  31
ENDBRANCH  29  30
ENDBRANCH  26  27
ENDBRANCH   3  26
TORSDOF 12
ENDMDL
