MODEL 1
REMARK VINA RESULT:       6.7      0.000      0.000
REMARK  4 active torsions:
REMARK  status: ('A' for Active; 'I' for Inactive)
REMARK    1  A    between atoms: N_6  and  C_1 
REMARK    2  A    between atoms: C_7  and  N_2 
REMARK    3  A    between atoms: C_11  and  N_6 
REMARK    4  A    between atoms: C_14  and  C_11 
ROOT
ATOM      1  C   UNL d   1      23.683  12.516  -0.917  0.00  0.00     0.735 A 
ATOM      2  N   UNL d   1      24.205  13.035  -1.291  0.00  0.00    -0.139 N 
ATOM      3  N   UNL d   1      23.462  11.930  -1.491  0.00  0.00    -0.059 NA
ATOM      4  C   UNL d   1      24.313  12.800  -2.053  0.00  0.00     0.100 A 
ATOM      5  C   UNL d   1      23.845  12.103  -2.179  0.00  0.00     0.116 A 
ATOM      6  C   UNL d   1      24.768  13.107  -2.668  0.00  0.00     0.020 A 
ATOM      7  C   UNL d   1      23.887  11.780  -2.936  0.00  0.00     0.021 A 
ATOM      8  C   UNL d   1      24.761  12.739  -3.380  0.00  0.00     0.002 A 
ATOM      9  C   UNL d   1      24.306  12.062  -3.503  0.00  0.00     0.002 A 
ENDROOT
BRANCH   1  10
ATOM     10  N   UNL d   1      23.403  12.527  -0.141  0.00  0.00    -0.056 NA
BRANCH  10  11
ATOM     11  C   UNL d   1      22.611  12.546  -0.014  0.00  0.00     0.163 C 
BRANCH  11  12
ATOM     12  C   UNL d   1      22.218  13.270  -0.055  0.00  0.00     0.255 C 
ATOM     13  O   UNL d   1      21.381  13.286  -0.016  0.00  0.00    -0.281 OA
ENDBRANCH  11  12
ENDBRANCH  10  11
ENDBRANCH   1  10
BRANCH   2  14
ATOM     14  C   UNL d   1      24.451  13.615  -0.799  0.00  0.00     0.082 C 
ATOM     15  C   UNL d   1      24.750  13.412  -0.053  0.00  0.00     0.020 C 
ATOM     16  C   UNL d   1      24.402  14.401  -1.046  0.00  0.00     0.020 C 
ENDBRANCH   2  14
TORSDOF 4
ENDMDL
MODEL 2
REMARK VINA RESULT:       8.7      8.833      9.627
REMARK  4 active torsions:
REMARK  status: ('A' for Active; 'I' for Inactive)
REMARK    1  A    between atoms: N_6  and  C_1 
REMARK    2  A    between atoms: C_7  and  N_2 
REMARK    3  A    between atoms: C_11  and  N_6 
REMARK    4  A    between atoms: C_14  and  C_11 
ROOT
ATOM      1  C   UNL d   1      14.570  13.206  -0.874  0.00  0.00     0.735 A 
ATOM      2  N   UNL d   1      14.257  12.456  -1.011  0.00  0.00    -0.139 N 
ATOM      3  N   UNL d   1      14.541  13.626  -1.612  0.00  0.00    -0.059 NA
ATOM      4  C   UNL d   1      14.040  12.395  -1.784  0.00  0.00     0.100 A 
ATOM      5  C   UNL d   1      14.220  13.133  -2.163  0.00  0.00     0.116 A 
ATOM      6  C   UNL d   1      13.703  11.780  -2.218  0.00  0.00     0.020 A 
ATOM      7  C   UNL d   1      14.034  13.174  -2.964  0.00  0.00     0.021 A 
ATOM      8  C   UNL d   1      13.549  11.892  -2.997  0.00  0.00     0.002 A 
ATOM      9  C   UNL d   1      13.723  12.609  -3.365  0.00  0.00     0.002 A 
ENDROOT
BRANCH   1  10
ATOM     10  N   UNL d   1      14.866  13.528  -0.174  0.00  0.00    -0.056 NA
BRANCH  10  11
ATOM     11  C   UNL d   1      14.825  14.322  -0.065  0.00  0.00     0.163 C 
BRANCH  11  12
ATOM     12  C   UNL d   1      15.525  14.760  -0.055  0.00  0.00     0.255 C 
ATOM     13  O   UNL d   1      15.486  15.597  -0.037  0.00  0.00    -0.281 OA
ENDBRANCH  11  12
ENDBRANCH  10  11
ENDBRANCH   1  10
BRANCH   2  14
ATOM     14  C   UNL d   1      14.256  12.008  -0.349  0.00  0.00     0.082 C 
ATOM     15  C   UNL d   1      14.980  11.780  -0.015  0.00  0.00     0.020 C 
ATOM     16  C   UNL d   1      13.536  11.783  -0.014  0.00  0.00     0.020 C 
ENDBRANCH   2  14
TORSDOF 4
ENDMDL
