MODEL 1
REMARK VINA RESULT:      -9.3      0.000      0.000
REMARK  6 active torsions:
REMARK  status: ('A' for Active; 'I' for Inactive)
REMARK    1  A    between atoms: C_14  and  N_1 
REMARK    2  A    between atoms: S_12  and  C_3 
REMARK    3  A    between atoms: C_4  and  N_11 
REMARK    4  A    between atoms: C_15  and  C_8 
REMARK       I    between atoms: N_11  and  C_13 
REMARK    5  A    between atoms: C_17  and  S_12 
REMARK    6  A    between atoms: C_13  and  C_17 
ROOT
ATOM      1  N   UNL d   1      51.019  33.984  52.432  0.00  0.00    -0.018 NA
ATOM      2  C   UNL d   1      51.204  33.310  52.872  0.00  0.00     0.302 C 
ATOM      3  O   UNL d   1      50.750  33.097  53.510  0.00  0.00    -0.264 OA
ENDROOT
BRANCH   2   4
ATOM      4  C   UNL d   1      51.852  32.852  52.660  0.00  0.00     0.101 C 
BRANCH   4   5
ATOM      5  S   UNL d   1      52.417  32.646  53.222  0.00  0.00    -0.041 SA
BRANCH   5   6
ATOM      6  C   UNL d   1      52.821  31.933  53.163  0.00  0.00     0.219 A 
ATOM      7  N   UNL d   1      53.548  31.831  53.558  0.00  0.00    -0.186 N 
ATOM      8  N   UNL d   1      53.820  31.077  53.401  0.00  0.00    -0.038 NA
ATOM      9  N   UNL d   1      53.274  30.706  52.913  0.00  0.00    -0.022 NA
ATOM     10  N   UNL d   1      52.653  31.234  52.764  0.00  0.00    -0.101 NA
BRANCH   7  11
ATOM     11  C   UNL d   1      53.951  32.377  54.033  0.00  0.00     0.087 A 
ATOM     12  C   UNL d   1      53.788  32.427  54.837  0.00  0.00     0.019 A 
ATOM     13  C   UNL d   1      54.191  32.974  55.308  0.00  0.00     0.002 A 
ATOM     14  C   UNL d   1      54.757  33.469  54.972  0.00  0.00     0.000 A 
ATOM     15  C   UNL d   1      54.921  33.417  54.156  0.00  0.00     0.002 A 
ATOM     16  C   UNL d   1      54.511  32.866  53.693  0.00  0.00     0.019 A 
ENDBRANCH   7  11
ENDBRANCH   5   6
ENDBRANCH   4   5
ENDBRANCH   2   4
BRANCH   1  17
ATOM     17  C   UNL d   1      50.363  34.453  52.642  0.00  0.00     0.760 A 
ATOM     18  N   UNL d   1      49.695  34.615  52.174  0.00  0.00    -0.051 NA
ATOM     19  C   UNL d   1      49.195  35.100  52.612  0.00  0.00     0.147 A 
ATOM     20  S   UNL d   1      49.545  35.236  53.335  0.00  0.00     0.052 SA
ATOM     21  N   UNL d   1      50.262  34.836  53.349  0.00  0.00    -0.019 NA
BRANCH  19  22
ATOM     22  C   UNL d   1      48.455  35.436  52.432  0.00  0.00     0.026 A 
ATOM     23  C   UNL d   1      48.106  35.973  52.952  0.00  0.00     0.002 A 
ATOM     24  C   UNL d   1      47.372  36.303  52.769  0.00  0.00     0.000 A 
ATOM     25  C   UNL d   1      46.996  36.101  52.081  0.00  0.00     0.000 A 
ATOM     26  C   UNL d   1      47.338  35.561  51.549  0.00  0.00     0.000 A 
ATOM     27  C   UNL d   1      48.073  35.230  51.732  0.00  0.00     0.002 A 
ENDBRANCH  19  22
ENDBRANCH   1  17
TORSDOF 6
ENDMDL
MODEL 2
REMARK VINA RESULT:      -8.9      1.462      2.085
REMARK  6 active torsions:
REMARK  status: ('A' for Active; 'I' for Inactive)
REMARK    1  A    between atoms: C_14  and  N_1 
REMARK    2  A    between atoms: S_12  and  C_3 
REMARK    3  A    between atoms: C_4  and  N_11 
REMARK    4  A    between atoms: C_15  and  C_8 
REMARK       I    between atoms: N_11  and  C_13 
REMARK    5  A    between atoms: C_17  and  S_12 
REMARK    6  A    between atoms: C_13  and  C_17 
ROOT
ATOM      1  N   UNL d   1      51.254  34.478  53.655  0.00  0.00    -0.018 NA
ATOM      2  C   UNL d   1      52.019  34.657  53.399  0.00  0.00     0.302 C 
ATOM      3  O   UNL d   1      52.155  34.878  52.629  0.00  0.00    -0.264 OA
ENDROOT
BRANCH   2   4
ATOM      4  C   UNL d   1      52.645  34.612  53.928  0.00  0.00     0.101 C 
BRANCH   4   5
ATOM      5  S   UNL d   1      53.104  33.929  53.971  0.00  0.00    -0.041 SA
BRANCH   5   6
ATOM      6  C   UNL d   1      53.757  33.900  54.469  0.00  0.00     0.219 A 
ATOM      7  N   UNL d   1      54.171  33.183  54.572  0.00  0.00    -0.186 N 
ATOM      8  N   UNL d   1      54.787  33.316  55.091  0.00  0.00    -0.038 NA
ATOM      9  N   UNL d   1      54.765  34.106  55.314  0.00  0.00    -0.022 NA
ATOM     10  N   UNL d   1      54.128  34.470  54.930  0.00  0.00    -0.101 NA
BRANCH   7  11
ATOM     11  C   UNL d   1      54.012  32.448  54.224  0.00  0.00     0.087 A 
ATOM     12  C   UNL d   1      54.298  32.273  53.473  0.00  0.00     0.019 A 
ATOM     13  C   UNL d   1      54.137  31.539  53.129  0.00  0.00     0.002 A 
ATOM     14  C   UNL d   1      53.688  30.982  53.538  0.00  0.00     0.000 A 
ATOM     15  C   UNL d   1      53.399  31.161  54.299  0.00  0.00     0.002 A 
ATOM     16  C   UNL d   1      53.566  31.899  54.635  0.00  0.00     0.019 A 
ENDBRANCH   7  11
ENDBRANCH   5   6
ENDBRANCH   4   5
ENDBRANCH   2   4
BRANCH   1  17
ATOM     17  C   UNL d   1      50.615  34.522  53.123  0.00  0.00     0.760 A 
ATOM     18  N   UNL d   1      49.954  35.026  53.177  0.00  0.00    -0.051 NA
ATOM     19  C   UNL d   1      49.470  34.873  52.529  0.00  0.00     0.147 A 
ATOM     20  S   UNL d   1      49.822  34.288  52.083  0.00  0.00     0.052 SA
ATOM     21  N   UNL d   1      50.525  34.076  52.452  0.00  0.00    -0.019 NA
BRANCH  19  22
ATOM     22  C   UNL d   1      48.744  35.203  52.293  0.00  0.00     0.026 A 
ATOM     23  C   UNL d   1      48.403  34.983  51.574  0.00  0.00     0.002 A 
ATOM     24  C   UNL d   1      47.682  35.313  51.345  0.00  0.00     0.000 A 
ATOM     25  C   UNL d   1      47.311  35.851  51.823  0.00  0.00     0.000 A 
ATOM     26  C   UNL d   1      47.646  36.080  52.549  0.00  0.00     0.000 A 
ATOM     27  C   UNL d   1      48.367  35.750  52.779  0.00  0.00     0.002 A 
ENDBRANCH  19  22
ENDBRANCH   1  17
TORSDOF 6
ENDMDL
