MODEL 1
REMARK VINA RESULT:      -6.9      0.000      0.000
REMARK  9 active torsions:
REMARK  status: ('A' for Active; 'I' for Inactive)
REMARK    1  A    between atoms: S_10  and  C_2 
REMARK    2  A    between atoms: C_7  and  C_5 
REMARK    3  A    between atoms: C_9  and  C_6 
REMARK    4  A    between atoms: O_19  and  C_9 
REMARK    5  A    between atoms: C_17  and  S_10 
REMARK    6  A    between atoms: C_13  and  C_17 
REMARK    7  A    between atoms: O_20  and  C_14 
REMARK    8  A    between atoms: C_23  and  O_19 
REMARK    9  A    between atoms: C_24  and  O_20 
ROOT
ATOM      1  C   UNL d   1      52.578  33.273  53.518  0.00  0.00     0.092 A 
ATOM      2  C   UNL d   1      51.963  33.104  52.976  0.00  0.00     0.124 A 
ATOM      3  C   UNL d   1      52.419  31.760  52.880  0.00  0.00     0.285 A 
ATOM      4  N   UNL d   1      51.890  32.351  52.664  0.00  0.00    -0.201 NA
ATOM      5  C   UNL d   1      53.105  32.686  53.734  0.00  0.00     0.023 A 
ATOM      6  C   UNL d   1      53.034  31.930  53.422  0.00  0.00     0.122 A 
ATOM      7  C   UNL d   1      52.652  34.022  53.829  0.00  0.00     0.103 C 
ATOM      8  N   UNL d   1      52.721  34.769  54.135  0.00  0.00    -0.191 NA
ATOM      9  O   UNL d   1      52.383  30.920  52.568  0.00  0.00    -0.265 OA
ENDROOT
BRANCH   2  10
ATOM     10  S   UNL d   1      51.438  33.764  52.786  0.00  0.00    -0.062 SA
BRANCH  10  11
ATOM     11  C   UNL d   1      50.577  33.755  52.651  0.00  0.00     0.101 C 
BRANCH  11  12
ATOM     12  C   UNL d   1      50.215  34.380  52.171  0.00  0.00     0.303 C 
ATOM     13  O   UNL d   1      50.366  34.490  51.677  0.00  0.00    -0.263 OA
ATOM     14  N   UNL d   1      49.565  34.821  52.585  0.00  0.00    -0.102 N 
ENDBRANCH  11  12
ENDBRANCH  10  11
ENDBRANCH   2  10
BRANCH   5  15
ATOM     15  C   UNL d   1      53.705  32.852  54.262  0.00  0.00     0.024 A 
ATOM     16  C   UNL d   1      54.436  33.102  53.984  0.00  0.00     0.100 A 
ATOM     17  C   UNL d   1      55.044  33.270  54.520  0.00  0.00     0.025 A 
ATOM     18  C   UNL d   1      54.916  33.186  55.329  0.00  0.00     0.002 A 
ATOM     19  C   UNL d   1      54.184  32.936  55.601  0.00  0.00     0.000 A 
ATOM     20  C   UNL d   1      53.576  32.768  55.065  0.00  0.00     0.002 A 
BRANCH  16  21
ATOM     21  O   UNL d   1      54.625  33.198  53.319  0.00  0.00    -0.305 OA
BRANCH  21  22
ATOM     22  C   UNL d   1      55.516  33.417  53.349  0.00  0.00     0.123 C 
ATOM     23  C   UNL d   1      55.938  33.557  52.364  0.00  0.00     0.029 C 
ENDBRANCH  21  22
ENDBRANCH  16  21
ENDBRANCH   5  15
BRANCH   6  24
ATOM     24  C   UNL d   1      53.563  31.335  53.638  0.00  0.00     0.305 C 
ATOM     25  O   UNL d   1      53.954  31.375  53.560  0.00  0.00    -0.259 OA
BRANCH  24  26
ATOM     26  O   UNL d   1      53.341  30.622  54.023  0.00  0.00    -0.271 OA
BRANCH  26  27
ATOM     27  C   UNL d   1      53.758  29.858  53.905  0.00  0.00     0.126 C 
ATOM     28  C   UNL d   1      53.359  29.420  54.543  0.00  0.00     0.029 C 
ENDBRANCH  26  27
ENDBRANCH  24  26
ENDBRANCH   6  24
TORSDOF 9
ENDMDL
MODEL 2
REMARK VINA RESULT:      -5.0      1.702      3.775
REMARK  9 active torsions:
REMARK  status: ('A' for Active; 'I' for Inactive)
REMARK    1  A    between atoms: S_10  and  C_2 
REMARK    2  A    between atoms: C_7  and  C_5 
REMARK    3  A    between atoms: C_9  and  C_6 
REMARK    4  A    between atoms: O_19  and  C_9 
REMARK    5  A    between atoms: C_17  and  S_10 
REMARK    6  A    between atoms: C_13  and  C_17 
REMARK    7  A    between atoms: O_20  and  C_14 
REMARK    8  A    between atoms: C_23  and  O_19 
REMARK    9  A    between atoms: C_24  and  O_20 
ROOT
ATOM      1  C   UNL d   1      52.858  32.589  53.222  0.00  0.00     0.092 A 
ATOM      2  C   UNL d   1      52.521  31.823  53.237  0.00  0.00     0.124 A 
ATOM      3  C   UNL d   1      51.220  32.397  53.261  0.00  0.00     0.285 A 
ATOM      4  N   UNL d   1      51.708  31.736  53.256  0.00  0.00    -0.201 NA
ATOM      5  C   UNL d   1      52.374  33.249  53.227  0.00  0.00     0.023 A 
ATOM      6  C   UNL d   1      51.557  33.163  53.246  0.00  0.00     0.122 A 
ATOM      7  C   UNL d   1      53.668  32.678  53.203  0.00  0.00     0.103 C 
ATOM      8  N   UNL d   1      54.473  32.760  53.184  0.00  0.00    -0.191 NA
ATOM      9  O   UNL d   1      50.325  32.356  53.281  0.00  0.00    -0.265 OA
ENDROOT
BRANCH   2  10
ATOM     10  S   UNL d   1      53.083  31.166  53.231  0.00  0.00    -0.062 SA
BRANCH  10  11
ATOM     11  C   UNL d   1      52.921  30.309  53.216  0.00  0.00     0.101 C 
BRANCH  11  12
ATOM     12  C   UNL d   1      53.518  29.758  53.517  0.00  0.00     0.303 C 
ATOM     13  O   UNL d   1      53.993  29.696  53.294  0.00  0.00    -0.263 OA
ATOM     14  N   UNL d   1      53.261  29.306  54.237  0.00  0.00    -0.102 N 
ENDBRANCH  11  12
ENDBRANCH  10  11
ENDBRANCH   2  10
BRANCH   5  15
ATOM     15  C   UNL d   1      52.703  33.995  53.212  0.00  0.00     0.024 A 
ATOM     16  C   UNL d   1      52.917  34.361  53.916  0.00  0.00     0.100 A 
ATOM     17  C   UNL d   1      53.251  35.118  53.901  0.00  0.00     0.025 A 
ATOM     18  C   UNL d   1      53.367  35.503  53.183  0.00  0.00     0.002 A 
ATOM     19  C   UNL d   1      53.152  35.134  52.483  0.00  0.00     0.000 A 
ATOM     20  C   UNL d   1      52.819  34.376  52.498  0.00  0.00     0.002 A 
BRANCH  16  21
ATOM     21  O   UNL d   1      52.852  34.105  54.561  0.00  0.00    -0.305 OA
BRANCH  21  22
ATOM     22  C   UNL d   1      53.202  34.749  55.114  0.00  0.00     0.123 C 
ATOM     23  C   UNL d   1      53.550  34.340  56.052  0.00  0.00     0.029 C 
ENDBRANCH  21  22
ENDBRANCH  16  21
ENDBRANCH   5  15
BRANCH   6  24
ATOM     24  C   UNL d   1      51.066  33.825  53.250  0.00  0.00     0.305 C 
ATOM     25  O   UNL d   1      51.069  34.076  53.562  0.00  0.00    -0.259 OA
BRANCH  24  26
ATOM     26  O   UNL d   1      50.537  34.025  52.629  0.00  0.00    -0.271 OA
BRANCH  26  27
ATOM     27  C   UNL d   1      49.849  34.562  52.733  0.00  0.00     0.126 C 
ATOM     28  C   UNL d   1      49.606  34.584  51.897  0.00  0.00     0.029 C 
ENDBRANCH  26  27
ENDBRANCH  24  26
ENDBRANCH   6  24
TORSDOF 9
ENDMDL
MODEL 3
REMARK VINA RESULT:      -4.6      1.798      4.124
REMARK  9 active torsions:
REMARK  status: ('A' for Active; 'I' for Inactive)
REMARK    1  A    between atoms: S_10  and  C_2 
REMARK    2  A    between atoms: C_7  and  C_5 
REMARK    3  A    between atoms: C_9  and  C_6 
REMARK    4  A    between atoms: O_19  and  C_9 
REMARK    5  A    between atoms: C_17  and  S_10 
REMARK    6  A    between atoms: C_13  and  C_17 
REMARK    7  A    between atoms: O_20  and  C_14 
REMARK    8  A    between atoms: C_23  and  O_19 
REMARK    9  A    between atoms: C_24  and  O_20 
ROOT
ATOM      1  C   UNL d   1      53.083  32.129  53.490  0.00  0.00     0.092 A 
ATOM      2  C   UNL d   1      53.402  31.588  54.043  0.00  0.00     0.124 A 
ATOM      3  C   UNL d   1      53.897  32.672  54.818  0.00  0.00     0.285 A 
ATOM      4  N   UNL d   1      53.804  31.865  54.699  0.00  0.00    -0.201 NA
ATOM      5  C   UNL d   1      53.174  32.933  53.607  0.00  0.00     0.023 A 
ATOM      6  C   UNL d   1      53.578  33.213  54.265  0.00  0.00     0.122 A 
ATOM      7  C   UNL d   1      52.683  31.855  52.836  0.00  0.00     0.103 C 
ATOM      8  N   UNL d   1      52.285  31.576  52.187  0.00  0.00    -0.191 NA
ATOM      9  O   UNL d   1      54.328  33.027  55.520  0.00  0.00    -0.265 OA
ENDROOT
BRANCH   2  10
ATOM     10  S   UNL d   1      53.274  30.751  53.866  0.00  0.00    -0.062 SA
BRANCH  10  11
ATOM     11  C   UNL d   1      53.675  30.054  54.203  0.00  0.00     0.101 C 
BRANCH  11  12
ATOM     12  C   UNL d   1      53.272  29.287  54.197  0.00  0.00     0.303 C 
ATOM     13  O   UNL d   1      53.015  29.098  53.777  0.00  0.00    -0.263 OA
ATOM     14  N   UNL d   1      53.330  28.844  54.965  0.00  0.00    -0.102 N 
ENDBRANCH  11  12
ENDBRANCH  10  11
ENDBRANCH   2  10
BRANCH   5  15
ATOM     15  C   UNL d   1      52.863  33.460  53.067  0.00  0.00     0.024 A 
ATOM     16  C   UNL d   1      52.064  33.646  53.092  0.00  0.00     0.100 A 
ATOM     17  C   UNL d   1      51.748  34.181  52.545  0.00  0.00     0.025 A 
ATOM     18  C   UNL d   1      52.235  34.525  51.978  0.00  0.00     0.002 A 
ATOM     19  C   UNL d   1      53.033  34.337  51.957  0.00  0.00     0.000 A 
ATOM     20  C   UNL d   1      53.349  33.802  52.504  0.00  0.00     0.002 A 
BRANCH  16  21
ATOM     21  O   UNL d   1      51.587  33.400  53.538  0.00  0.00    -0.305 OA
BRANCH  21  22
ATOM     22  C   UNL d   1      50.787  33.750  53.255  0.00  0.00     0.123 C 
ATOM     23  C   UNL d   1      50.034  33.733  54.030  0.00  0.00     0.029 C 
ENDBRANCH  21  22
ENDBRANCH  16  21
ENDBRANCH   5  15
BRANCH   6  24
ATOM     24  C   UNL d   1      53.672  34.024  54.386  0.00  0.00     0.305 C 
ATOM     25  O   UNL d   1      53.874  34.245  54.121  0.00  0.00    -0.259 OA
BRANCH  24  26
ATOM     26  O   UNL d   1      53.364  34.441  55.047  0.00  0.00    -0.271 OA
BRANCH  26  27
ATOM     27  C   UNL d   1      53.712  35.188  55.353  0.00  0.00     0.126 C 
ATOM     28  C   UNL d   1      52.969  35.544  55.633  0.00  0.00     0.029 C 
ENDBRANCH  26  27
ENDBRANCH  24  26
ENDBRANCH   6  24
TORSDOF 9
ENDMDL
MODEL 4
REMARK VINA RESULT:      -4.3      1.704      3.453
REMARK  9 active torsions:
REMARK  status: ('A' for Active; 'I' for Inactive)
REMARK    1  A    between atoms: S_10  and  C_2 
REMARK    2  A    between atoms: C_7  and  C_5 
REMARK    3  A    between atoms: C_9  and  C_6 
REMARK    4  A    between atoms: O_19  and  C_9 
REMARK    5  A    between atoms: C_17  and  S_10 
REMARK    6  A    between atoms: C_13  and  C_17 
REMARK    7  A    between atoms: O_20  and  C_14 
REMARK    8  A    between atoms: C_23  and  O_19 
REMARK    9  A    between atoms: C_24  and  O_20 
ROOT
ATOM      1  C   UNL d   1      53.214  31.848  54.196  0.00  0.00     0.092 A 
ATOM      2  C   UNL d   1      52.958  31.133  53.845  0.00  0.00     0.124 A 
ATOM      3  C   UNL d   1      52.273  31.870  52.841  0.00  0.00     0.285 A 
ATOM      4  N   UNL d   1      52.492  31.152  53.173  0.00  0.00    -0.201 NA
ATOM      5  C   UNL d   1      52.997  32.565  53.866  0.00  0.00     0.023 A 
ATOM      6  C   UNL d   1      52.529  32.586  53.192  0.00  0.00     0.122 A 
ATOM      7  C   UNL d   1      53.678  31.831  54.865  0.00  0.00     0.103 C 
ATOM      8  N   UNL d   1      54.139  31.808  55.530  0.00  0.00    -0.191 NA
ATOM      9  O   UNL d   1      51.764  31.946  52.106  0.00  0.00    -0.265 OA
ENDROOT
BRANCH   2  10
ATOM     10  S   UNL d   1      53.218  30.408  54.238  0.00  0.00    -0.062 SA
BRANCH  10  11
ATOM     11  C   UNL d   1      53.144  29.583  53.968  0.00  0.00     0.101 C 
BRANCH  11  12
ATOM     12  C   UNL d   1      53.183  28.940  54.547  0.00  0.00     0.303 C 
ATOM     13  O   UNL d   1      52.810  28.854  54.911  0.00  0.00    -0.263 OA
ATOM     14  N   UNL d   1      53.911  28.435  54.477  0.00  0.00    -0.102 N 
ENDBRANCH  11  12
ENDBRANCH  10  11
ENDBRANCH   2  10
BRANCH   5  15
ATOM     15  C   UNL d   1      53.246  33.262  54.208  0.00  0.00     0.024 A 
ATOM     16  C   UNL d   1      53.971  33.585  53.995  0.00  0.00     0.100 A 
ATOM     17  C   UNL d   1      54.224  34.293  54.343  0.00  0.00     0.025 A 
ATOM     18  C   UNL d   1      53.750  34.671  54.899  0.00  0.00     0.002 A 
ATOM     19  C   UNL d   1      53.027  34.345  55.109  0.00  0.00     0.000 A 
ATOM     20  C   UNL d   1      52.774  33.637  54.761  0.00  0.00     0.002 A 
BRANCH  16  21
ATOM     21  O   UNL d   1      54.428  33.329  53.536  0.00  0.00    -0.305 OA
BRANCH  21  22
ATOM     22  C   UNL d   1      55.178  33.852  53.622  0.00  0.00     0.123 C 
ATOM     23  C   UNL d   1      55.937  33.606  52.893  0.00  0.00     0.029 C 
ENDBRANCH  21  22
ENDBRANCH  16  21
ENDBRANCH   5  15
BRANCH   6  24
ATOM     24  C   UNL d   1      52.308  33.306  52.856  0.00  0.00     0.305 C 
ATOM     25  O   UNL d   1      52.586  33.557  52.716  0.00  0.00    -0.259 OA
BRANCH  24  26
ATOM     26  O   UNL d   1      51.513  33.568  52.781  0.00  0.00    -0.271 OA
BRANCH  26  27
ATOM     27  C   UNL d   1      51.249  34.142  52.170  0.00  0.00     0.126 C 
ATOM     28  C   UNL d   1      50.484  34.341  52.537  0.00  0.00     0.029 C 
ENDBRANCH  26  27
ENDBRANCH  24  26
ENDBRANCH   6  24
TORSDOF 9
ENDMDL
MODEL 5
REMARK VINA RESULT:      -4.0      1.110      2.811
REMARK  9 active torsions:
REMARK  status: ('A' for Active; 'I' for Inactive)
REMARK    1  A    between atoms: S_10  and  C_2 
REMARK    2  A    between atoms: C_7  and  C_5 
REMARK    3  A    between atoms: C_9  and  C_6 
REMARK    4  A    between atoms: O_19  and  C_9 
REMARK    5  A    between atoms: C_17  and  S_10 
REMARK    6  A    between atoms: C_13  and  C_17 
REMARK    7  A    between atoms: O_20  and  C_14 
REMARK    8  A    between atoms: C_23  and  O_19 
REMARK    9  A    between atoms: C_24  and  O_20 
ROOT
ATOM      1  C   UNL d   1      52.513  32.988  53.407  0.00  0.00     0.092 A 
ATOM      2  C   UNL d   1      52.002  33.607  53.642  0.00  0.00     0.124 A 
ATOM      3  C   UNL d   1      52.891  33.940  54.701  0.00  0.00     0.285 A 
ATOM      4  N   UNL d   1      52.196  34.075  54.284  0.00  0.00    -0.201 NA
ATOM      5  C   UNL d   1      53.206  32.851  53.821  0.00  0.00     0.023 A 
ATOM      6  C   UNL d   1      53.402  33.320  54.466  0.00  0.00     0.122 A 
ATOM      7  C   UNL d   1      52.321  32.521  52.768  0.00  0.00     0.103 C 
ATOM      8  N   UNL d   1      52.125  32.060  52.132  0.00  0.00    -0.191 NA
ATOM      9  O   UNL d   1      53.150  34.423  55.411  0.00  0.00    -0.265 OA
ENDROOT
BRANCH   2  10
ATOM     10  S   UNL d   1      51.286  33.703  53.167  0.00  0.00    -0.062 SA
BRANCH  10  11
ATOM     11  C   UNL d   1      50.868  34.437  52.950  0.00  0.00     0.101 C 
BRANCH  11  12
ATOM     12  C   UNL d   1      50.031  34.401  52.731  0.00  0.00     0.303 C 
ATOM     13  O   UNL d   1      49.640  34.367  53.085  0.00  0.00    -0.263 OA
ATOM     14  N   UNL d   1      49.885  34.427  51.854  0.00  0.00    -0.102 N 
ENDBRANCH  11  12
ENDBRANCH  10  11
ENDBRANCH   2  10
BRANCH   5  15
ATOM     15  C   UNL d   1      53.704  32.247  53.592  0.00  0.00     0.024 A 
ATOM     16  C   UNL d   1      53.576  31.485  53.871  0.00  0.00     0.100 A 
ATOM     17  C   UNL d   1      54.082  30.872  53.639  0.00  0.00     0.025 A 
ATOM     18  C   UNL d   1      54.710  31.026  53.130  0.00  0.00     0.002 A 
ATOM     19  C   UNL d   1      54.834  31.789  52.854  0.00  0.00     0.000 A 
ATOM     20  C   UNL d   1      54.328  32.402  53.086  0.00  0.00     0.002 A 
BRANCH  16  21
ATOM     21  O   UNL d   1      53.071  31.272  54.302  0.00  0.00    -0.305 OA
BRANCH  21  22
ATOM     22  C   UNL d   1      53.126  30.356  54.307  0.00  0.00     0.123 C 
ATOM     23  C   UNL d   1      52.639  29.920  55.168  0.00  0.00     0.029 C 
ENDBRANCH  21  22
ENDBRANCH  16  21
ENDBRANCH   5  15
BRANCH   6  24
ATOM     24  C   UNL d   1      54.100  33.185  54.886  0.00  0.00     0.305 C 
ATOM     25  O   UNL d   1      54.141  32.855  55.107  0.00  0.00    -0.259 OA
BRANCH  24  26
ATOM     26  O   UNL d   1      54.758  33.708  54.886  0.00  0.00    -0.271 OA
BRANCH  26  27
ATOM     27  C   UNL d   1      55.342  33.749  55.542  0.00  0.00     0.126 C 
ATOM     28  C   UNL d   1      55.939  34.222  55.122  0.00  0.00     0.029 C 
ENDBRANCH  26  27
ENDBRANCH  24  26
ENDBRANCH   6  24
TORSDOF 9
ENDMDL
