MODEL 1
REMARK VINA RESULT:      -5.2      0.000      0.000
REMARK  3 active torsions:
REMARK  status: ('A' for Active; 'I' for Inactive)
REMARK    1  A    between atoms: C_4  and  C_1 
REMARK    2  A    between atoms: N_7  and  C_4 
REMARK    3  A    between atoms: C_9  and  N_7 
ROOT
ATOM      1  C   UNL d   1      57.441   0.228  31.418  0.00  0.00     0.171 C 
ATOM      2  S   UNL d   1      57.768   0.646  32.052  0.00  0.00    -0.054 SA
ENDROOT
BRANCH   1   3
ATOM      3  C   UNL d   1      57.889   0.100  30.737  0.00  0.00     0.191 A 
ATOM      4  N   UNL d   1      58.311   0.677  30.324  0.00  0.00    -0.223 NA
ATOM      5  C   UNL d   1      58.678   0.310  29.680  0.00  0.00     0.101 A 
ATOM      6  C   UNL d   1      59.166   0.596  29.078  0.00  0.00     0.021 A 
ATOM      7  C   UNL d   1      58.479  -0.495  29.700  0.00  0.00     0.101 A 
ATOM      8  C   UNL d   1      59.452   0.088  28.503  0.00  0.00     0.002 A 
ATOM      9  C   UNL d   1      59.253  -0.716  28.523  0.00  0.00     0.002 A 
ATOM     10  C   UNL d   1      58.769  -1.005  29.118  0.00  0.00     0.021 A 
ATOM     11  N   UNL d   1      57.990  -0.618  30.356  0.00  0.00    -0.223 NA
ENDBRANCH   1   3
BRANCH   1  12
ATOM     12  N   UNL d   1      56.672  -0.061  31.464  0.00  0.00    -0.232 NA
BRANCH  12  13
ATOM     13  C   UNL d   1      56.266  -0.044  32.187  0.00  0.00     0.083 A 
ATOM     14  C   UNL d   1      56.185  -0.734  32.628  0.00  0.00     0.020 A 
ATOM     15  C   UNL d   1      55.784  -0.727  33.345  0.00  0.00     0.013 A 
ATOM     16  C   UNL d   1      55.461  -0.012  33.622  0.00  0.00     0.058 A 
ATOM     17  C   UNL d   1      55.542   0.682  33.181  0.00  0.00     0.013 A 
ATOM     18 CL   UNL d   1      55.060   0.004  34.338  0.00  0.00    -0.082 Cl
ATOM     19  C   UNL d   1      55.947   0.658  32.463  0.00  0.00     0.020 A 
ENDBRANCH  12  13
ENDBRANCH   1  12
TORSDOF 3
ENDMDL
MODEL 2
REMARK VINA RESULT:      -5.1      1.943      4.485
REMARK  3 active torsions:
REMARK  status: ('A' for Active; 'I' for Inactive)
REMARK    1  A    between atoms: C_4  and  C_1 
REMARK    2  A    between atoms: N_7  and  C_4 
REMARK    3  A    between atoms: C_9  and  N_7 
ROOT
ATOM      1  C   UNL d   1      57.760   0.076  30.852  0.00  0.00     0.171 C 
ATOM      2  S   UNL d   1      58.314   0.682  30.939  0.00  0.00    -0.054 SA
ENDROOT
BRANCH   1   3
ATOM      3  C   UNL d   1      57.204  -0.059  31.446  0.00  0.00     0.191 A 
ATOM      4  N   UNL d   1      56.830   0.525  31.896  0.00  0.00    -0.223 NA
ATOM      5  C   UNL d   1      56.317   0.147  32.425  0.00  0.00     0.101 A 
ATOM      6  C   UNL d   1      55.804   0.434  33.005  0.00  0.00     0.021 A 
ATOM      7  C   UNL d   1      56.379  -0.670  32.297  0.00  0.00     0.101 A 
ATOM      8  C   UNL d   1      55.356  -0.086  33.452  0.00  0.00     0.002 A 
ATOM      9  C   UNL d   1      55.418  -0.903  33.324  0.00  0.00     0.002 A 
ATOM     10  C   UNL d   1      55.926  -1.192  32.750  0.00  0.00     0.021 A 
ATOM     11  N   UNL d   1      56.929  -0.791  31.690  0.00  0.00    -0.223 NA
ENDBRANCH   1   3
BRANCH   1  12
ATOM     12  N   UNL d   1      57.759  -0.393  30.176  0.00  0.00    -0.232 NA
BRANCH  12  13
ATOM     13  C   UNL d   1      58.459  -0.495  29.743  0.00  0.00     0.083 A 
ATOM     14  C   UNL d   1      58.800  -1.241  29.681  0.00  0.00     0.020 A 
ATOM     15  C   UNL d   1      59.492  -1.351  29.255  0.00  0.00     0.013 A 
ATOM     16  C   UNL d   1      59.848  -0.696  28.884  0.00  0.00     0.058 A 
ATOM     17  C   UNL d   1      59.509   0.054  28.944  0.00  0.00     0.013 A 
ATOM     18 CL   UNL d   1      60.541  -0.797  28.455  0.00  0.00    -0.082 Cl
ATOM     19  C   UNL d   1      58.813   0.148  29.377  0.00  0.00     0.020 A 
ENDBRANCH  12  13
ENDBRANCH   1  12
TORSDOF 3
ENDMDL
MODEL 3
REMARK VINA RESULT:      -4.3      1.854      4.607
REMARK  3 active torsions:
REMARK  status: ('A' for Active; 'I' for Inactive)
REMARK    1  A    between atoms: C_4  and  C_1 
REMARK    2  A    between atoms: N_7  and  C_4 
REMARK    3  A    between atoms: C_9  and  N_7 
ROOT
ATOM      1  C   UNL d   1      57.251   0.398  31.965  0.00  0.00     0.171 C 
ATOM      2  S   UNL d   1      58.023   0.682  32.033  0.00  0.00    -0.054 SA
ENDROOT
BRANCH   1   3
ATOM      3  C   UNL d   1      56.733   0.463  32.604  0.00  0.00     0.191 A 
ATOM      4  N   UNL d   1      56.952   0.494  33.400  0.00  0.00    -0.223 NA
ATOM      5  C   UNL d   1      56.261   0.560  33.850  0.00  0.00     0.101 A 
ATOM      6  C   UNL d   1      56.129   0.612  34.664  0.00  0.00     0.021 A 
ATOM      7  C   UNL d   1      55.618   0.569  33.328  0.00  0.00     0.101 A 
ATOM      8  C   UNL d   1      55.366   0.673  34.954  0.00  0.00     0.002 A 
ATOM      9  C   UNL d   1      54.722   0.682  34.432  0.00  0.00     0.002 A 
ATOM     10  C   UNL d   1      54.849   0.630  33.624  0.00  0.00     0.021 A 
ATOM     11  N   UNL d   1      55.916   0.509  32.558  0.00  0.00    -0.223 NA
ENDBRANCH   1   3
BRANCH   1  12
ATOM     12  N   UNL d   1      56.996   0.051  31.264  0.00  0.00    -0.232 NA
BRANCH  12  13
ATOM     13  C   UNL d   1      57.510   0.004  30.615  0.00  0.00     0.083 A 
ATOM     14  C   UNL d   1      57.926  -0.691  30.470  0.00  0.00     0.020 A 
ATOM     15  C   UNL d   1      58.436  -0.746  29.829  0.00  0.00     0.013 A 
ATOM     16  C   UNL d   1      58.530  -0.089  29.327  0.00  0.00     0.058 A 
ATOM     17  C   UNL d   1      58.114   0.610  29.471  0.00  0.00     0.013 A 
ATOM     18 CL   UNL d   1      59.039  -0.135  28.684  0.00  0.00    -0.082 Cl
ATOM     19  C   UNL d   1      57.604   0.649  30.118  0.00  0.00     0.020 A 
ENDBRANCH  12  13
ENDBRANCH   1  12
TORSDOF 3
ENDMDL
MODEL 4
REMARK VINA RESULT:      -2.6      9.684     10.309
REMARK  3 active torsions:
REMARK  status: ('A' for Active; 'I' for Inactive)
REMARK    1  A    between atoms: C_4  and  C_1 
REMARK    2  A    between atoms: N_7  and  C_4 
REMARK    3  A    between atoms: C_9  and  N_7 
ROOT
ATOM      1  C   UNL d   1      59.418  -9.555  33.270  0.00  0.00     0.171 C 
ATOM      2  S   UNL d   1      60.029  -9.713  32.738  0.00  0.00    -0.054 SA
ENDROOT
BRANCH   1   3
ATOM      3  C   UNL d   1      59.579  -9.152  33.971  0.00  0.00     0.191 A 
ATOM      4  N   UNL d   1      59.016  -8.811  34.471  0.00  0.00    -0.223 NA
ATOM      5  C   UNL d   1      59.418  -8.466  35.107  0.00  0.00     0.101 A 
ATOM      6  C   UNL d   1      59.157  -8.051  35.771  0.00  0.00     0.021 A 
ATOM      7  C   UNL d   1      60.229  -8.596  34.995  0.00  0.00     0.101 A 
ATOM      8  C   UNL d   1      59.697  -7.769  36.319  0.00  0.00     0.002 A 
ATOM      9  C   UNL d   1      60.508  -7.899  36.207  0.00  0.00     0.002 A 
ATOM     10  C   UNL d   1      60.771  -8.311  35.549  0.00  0.00     0.021 A 
ATOM     11  N   UNL d   1      60.322  -9.022  34.291  0.00  0.00    -0.223 NA
ENDBRANCH   1   3
BRANCH   1  12
ATOM     12  N   UNL d   1      58.650  -9.798  33.104  0.00  0.00    -0.232 NA
BRANCH  12  13
ATOM     13  C   UNL d   1      58.377  -9.799  32.321  0.00  0.00     0.083 A 
ATOM     14  C   UNL d   1      57.568  -9.817  32.168  0.00  0.00     0.020 A 
ATOM     15  C   UNL d   1      57.290  -9.818  31.396  0.00  0.00     0.013 A 
ATOM     16  C   UNL d   1      57.835  -9.802  30.767  0.00  0.00     0.058 A 
ATOM     17  C   UNL d   1      58.647  -9.785  30.918  0.00  0.00     0.013 A 
ATOM     18 CL   UNL d   1      57.564  -9.803  29.992  0.00  0.00    -0.082 Cl
ATOM     19  C   UNL d   1      58.911  -9.784  31.700  0.00  0.00     0.020 A 
ENDBRANCH  12  13
ENDBRANCH   1  12
TORSDOF 3
ENDMDL
