MODEL 1
REMARK VINA RESULT:      -9.9      0.000      0.000
REMARK  6 active torsions:
REMARK  status: ('A' for Active; 'I' for Inactive)
REMARK    1  A    between atoms: C_11  and  C_2 
REMARK    2  A    between atoms: S_9  and  C_7 
REMARK    3  A    between atoms: C_13  and  S_9 
REMARK    4  A    between atoms: C_10  and  C_13 
REMARK    5  A    between atoms: O_18  and  C_10 
REMARK    6  A    between atoms: C_23  and  O_18 
ROOT
ATOM      1  N   UNL d   1      52.991  34.177  54.136  0.00  0.00    -0.191 N 
ATOM      2  C   UNL d   1      52.495  34.719  53.772  0.00  0.00     0.187 A 
ATOM      3  N   UNL d   1      52.729  35.469  54.008  0.00  0.00    -0.127 NA
ATOM      4  C   UNL d   1      53.535  34.578  54.599  0.00  0.00     0.187 A 
ATOM      5  N   UNL d   1      53.017  33.339  54.104  0.00  0.00    -0.156 NA
ATOM      6  N   UNL d   1      53.372  35.391  54.520  0.00  0.00    -0.127 NA
ATOM      7  C   UNL d   1      53.587  32.926  54.535  0.00  0.00     0.131 A 
ATOM      8  C   UNL d   1      54.104  34.164  55.030  0.00  0.00     0.043 A 
ATOM      9  C   UNL d   1      54.130  33.339  54.998  0.00  0.00     0.031 A 
ENDROOT
BRANCH   7  10
ATOM     10  S   UNL d   1      53.612  32.101  54.503  0.00  0.00    -0.061 SA
BRANCH  10  11
ATOM     11  C   UNL d   1      53.839  31.724  53.807  0.00  0.00     0.094 C 
ATOM     12  C   UNL d   1      54.428  32.049  53.341  0.00  0.00     0.013 C 
BRANCH  11  13
ATOM     13  C   UNL d   1      53.475  31.029  53.583  0.00  0.00     0.306 C 
ATOM     14  O   UNL d   1      53.020  31.002  52.894  0.00  0.00    -0.258 OA
BRANCH  13  15
ATOM     15  O   UNL d   1      53.555  30.344  54.038  0.00  0.00    -0.271 OA
BRANCH  15  16
ATOM     16  C   UNL d   1      53.212  29.651  53.798  0.00  0.00     0.126 C 
ATOM     17  C   UNL d   1      53.254  29.001  54.287  0.00  0.00     0.029 C 
ENDBRANCH  15  16
ENDBRANCH  13  15
ENDBRANCH  11  13
ENDBRANCH  10  11
ENDBRANCH   7  10
BRANCH   2  18
ATOM     18  C   UNL d   1      51.875  34.551  53.263  0.00  0.00     0.038 A 
ATOM     19  C   UNL d   1      52.017  34.513  52.449  0.00  0.00     0.005 A 
ATOM     20  C   UNL d   1      51.394  34.344  51.930  0.00  0.00     0.030 A 
ATOM     21  C   UNL d   1      50.636  34.214  52.230  0.00  0.00     0.140 A 
ATOM     22  C   UNL d   1      50.494  34.252  53.044  0.00  0.00     0.030 A 
ATOM     23  F   UNL d   1      50.014  34.045  51.716  0.00  0.00    -0.204 F 
ATOM     24  C   UNL d   1      51.121  34.421  53.556  0.00  0.00     0.005 A 
ENDBRANCH   2  18
TORSDOF 6
ENDMDL
MODEL 2
REMARK VINA RESULT:      -9.1      2.552      4.466
REMARK  6 active torsions:
REMARK  status: ('A' for Active; 'I' for Inactive)
REMARK    1  A    between atoms: C_11  and  C_2 
REMARK    2  A    between atoms: S_9  and  C_7 
REMARK    3  A    between atoms: C_13  and  S_9 
REMARK    4  A    between atoms: C_10  and  C_13 
REMARK    5  A    between atoms: O_18  and  C_10 
REMARK    6  A    between atoms: C_23  and  O_18 
ROOT
ATOM      1  N   UNL d   1      52.948  32.315  53.553  0.00  0.00    -0.191 N 
ATOM      2  C   UNL d   1      53.701  32.162  53.839  0.00  0.00     0.187 A 
ATOM      3  N   UNL d   1      53.907  31.402  53.607  0.00  0.00    -0.127 NA
ATOM      4  C   UNL d   1      52.677  31.660  53.143  0.00  0.00     0.187 A 
ATOM      5  N   UNL d   1      52.456  32.992  53.617  0.00  0.00    -0.156 NA
ATOM      6  N   UNL d   1      53.279  31.085  53.175  0.00  0.00    -0.127 NA
ATOM      7  C   UNL d   1      51.708  32.994  53.268  0.00  0.00     0.131 A 
ATOM      8  C   UNL d   1      51.929  31.663  52.794  0.00  0.00     0.043 A 
ATOM      9  C   UNL d   1      51.445  32.329  52.857  0.00  0.00     0.031 A 
ENDROOT
BRANCH   7  10
ATOM     10  S   UNL d   1      51.224  33.661  53.331  0.00  0.00    -0.061 SA
BRANCH  10  11
ATOM     11  C   UNL d   1      51.053  34.108  52.661  0.00  0.00     0.094 C 
ATOM     12  C   UNL d   1      51.628  34.225  52.091  0.00  0.00     0.013 C 
BRANCH  11  13
ATOM     13  C   UNL d   1      50.311  34.432  52.566  0.00  0.00     0.306 C 
ATOM     14  O   UNL d   1      49.936  34.804  53.202  0.00  0.00    -0.258 OA
BRANCH  13  15
ATOM     15  O   UNL d   1      49.922  34.394  51.838  0.00  0.00    -0.271 OA
BRANCH  15  16
ATOM     16  C   UNL d   1      49.180  34.710  51.753  0.00  0.00     0.126 C 
ATOM     17  C   UNL d   1      48.792  34.615  51.044  0.00  0.00     0.029 C 
ENDBRANCH  15  16
ENDBRANCH  13  15
ENDBRANCH  11  13
ENDBRANCH  10  11
ENDBRANCH   7  10
BRANCH   2  18
ATOM     18  C   UNL d   1      54.170  32.669  54.279  0.00  0.00     0.038 A 
ATOM     19  C   UNL d   1      54.749  33.122  53.896  0.00  0.00     0.005 A 
ATOM     20  C   UNL d   1      55.226  33.636  54.336  0.00  0.00     0.030 A 
ATOM     21  C   UNL d   1      55.121  33.694  55.152  0.00  0.00     0.140 A 
ATOM     22  C   UNL d   1      54.542  33.242  55.535  0.00  0.00     0.030 A 
ATOM     23  F   UNL d   1      55.594  34.206  55.593  0.00  0.00    -0.204 F 
ATOM     24  C   UNL d   1      54.070  32.731  55.089  0.00  0.00     0.005 A 
ENDBRANCH   2  18
TORSDOF 6
ENDMDL
MODEL 3
REMARK VINA RESULT:      -8.7      2.310      4.225
REMARK  6 active torsions:
REMARK  status: ('A' for Active; 'I' for Inactive)
REMARK    1  A    between atoms: C_11  and  C_2 
REMARK    2  A    between atoms: S_9  and  C_7 
REMARK    3  A    between atoms: C_13  and  S_9 
REMARK    4  A    between atoms: C_10  and  C_13 
REMARK    5  A    between atoms: O_18  and  C_10 
REMARK    6  A    between atoms: C_23  and  O_18 
ROOT
ATOM      1  N   UNL d   1      53.168  32.889  53.611  0.00  0.00    -0.191 N 
ATOM      2  C   UNL d   1      53.645  32.224  53.648  0.00  0.00     0.187 A 
ATOM      3  N   UNL d   1      54.407  32.471  53.824  0.00  0.00    -0.127 NA
ATOM      4  C   UNL d   1      53.622  33.554  53.764  0.00  0.00     0.187 A 
ATOM      5  N   UNL d   1      52.349  32.978  53.454  0.00  0.00    -0.156 NA
ATOM      6  N   UNL d   1      54.401  33.293  53.898  0.00  0.00    -0.127 NA
ATOM      7  C   UNL d   1      52.007  33.729  53.453  0.00  0.00     0.131 A 
ATOM      8  C   UNL d   1      53.280  34.305  53.763  0.00  0.00     0.043 A 
ATOM      9  C   UNL d   1      52.473  34.393  53.607  0.00  0.00     0.031 A 
ENDROOT
BRANCH   7  10
ATOM     10  S   UNL d   1      51.200  33.817  53.297  0.00  0.00    -0.061 SA
BRANCH  10  11
ATOM     11  C   UNL d   1      50.954  34.156  52.588  0.00  0.00     0.094 C 
ATOM     12  C   UNL d   1      51.479  34.222  51.964  0.00  0.00     0.013 C 
BRANCH  11  13
ATOM     13  C   UNL d   1      50.188  34.424  52.510  0.00  0.00     0.306 C 
ATOM     14  O   UNL d   1      49.788  34.735  53.163  0.00  0.00    -0.258 OA
BRANCH  13  15
ATOM     15  O   UNL d   1      49.800  34.390  51.781  0.00  0.00    -0.271 OA
BRANCH  15  16
ATOM     16  C   UNL d   1      49.039  34.661  51.709  0.00  0.00     0.126 C 
ATOM     17  C   UNL d   1      48.678  34.628  50.981  0.00  0.00     0.029 C 
ENDBRANCH  15  16
ENDBRANCH  13  15
ENDBRANCH  11  13
ENDBRANCH  10  11
ENDBRANCH   7  10
BRANCH   2  18
ATOM     18  C   UNL d   1      53.411  31.447  53.530  0.00  0.00     0.038 A 
ATOM     19  C   UNL d   1      53.345  30.940  54.180  0.00  0.00     0.005 A 
ATOM     20  C   UNL d   1      53.109  30.153  54.066  0.00  0.00     0.030 A 
ATOM     21  C   UNL d   1      52.942  29.883  53.305  0.00  0.00     0.140 A 
ATOM     22  C   UNL d   1      53.009  30.390  52.654  0.00  0.00     0.030 A 
ATOM     23  F   UNL d   1      52.707  29.102  53.188  0.00  0.00    -0.204 F 
ATOM     24  C   UNL d   1      53.245  31.174  52.776  0.00  0.00     0.005 A 
ENDBRANCH   2  18
TORSDOF 6
ENDMDL
MODEL 4
REMARK VINA RESULT:      -8.2      1.923      3.047
REMARK  6 active torsions:
REMARK  status: ('A' for Active; 'I' for Inactive)
REMARK    1  A    between atoms: C_11  and  C_2 
REMARK    2  A    between atoms: S_9  and  C_7 
REMARK    3  A    between atoms: C_13  and  S_9 
REMARK    4  A    between atoms: C_10  and  C_13 
REMARK    5  A    between atoms: O_18  and  C_10 
REMARK    6  A    between atoms: C_23  and  O_18 
ROOT
ATOM      1  N   UNL d   1      52.788  33.105  53.606  0.00  0.00    -0.191 N 
ATOM      2  C   UNL d   1      53.087  33.719  54.059  0.00  0.00     0.187 A 
ATOM      3  N   UNL d   1      52.565  34.349  54.004  0.00  0.00    -0.127 NA
ATOM      4  C   UNL d   1      52.082  33.341  53.264  0.00  0.00     0.187 A 
ATOM      5  N   UNL d   1      53.079  32.332  53.455  0.00  0.00    -0.156 NA
ATOM      6  N   UNL d   1      51.940  34.123  53.513  0.00  0.00    -0.127 NA
ATOM      7  C   UNL d   1      52.656  31.819  52.966  0.00  0.00     0.131 A 
ATOM      8  C   UNL d   1      51.659  32.828  52.776  0.00  0.00     0.043 A 
ATOM      9  C   UNL d   1      51.946  32.067  52.627  0.00  0.00     0.031 A 
ENDROOT
BRANCH   7  10
ATOM     10  S   UNL d   1      52.942  31.059  52.818  0.00  0.00    -0.061 SA
BRANCH  10  11
ATOM     11  C   UNL d   1      52.689  30.427  53.281  0.00  0.00     0.094 C 
ATOM     12  C   UNL d   1      51.889  30.310  53.407  0.00  0.00     0.013 C 
BRANCH  11  13
ATOM     13  C   UNL d   1      53.235  29.920  53.613  0.00  0.00     0.306 C 
ATOM     14  O   UNL d   1      54.000  29.876  53.305  0.00  0.00    -0.258 OA
BRANCH  13  15
ATOM     15  O   UNL d   1      53.034  29.444  54.258  0.00  0.00    -0.271 OA
BRANCH  15  16
ATOM     16  C   UNL d   1      53.551  28.883  54.530  0.00  0.00     0.126 C 
ATOM     17  C   UNL d   1      53.398  28.520  55.242  0.00  0.00     0.029 C 
ENDBRANCH  15  16
ENDBRANCH  13  15
ENDBRANCH  11  13
ENDBRANCH  10  11
ENDBRANCH   7  10
BRANCH   2  18
ATOM     18  C   UNL d   1      53.782  33.713  54.494  0.00  0.00     0.038 A 
ATOM     19  C   UNL d   1      54.470  34.035  54.165  0.00  0.00     0.005 A 
ATOM     20  C   UNL d   1      55.175  34.031  54.600  0.00  0.00     0.030 A 
ATOM     21  C   UNL d   1      55.185  33.707  55.359  0.00  0.00     0.140 A 
ATOM     22  C   UNL d   1      54.498  33.385  55.688  0.00  0.00     0.030 A 
ATOM     23  F   UNL d   1      55.885  33.702  55.794  0.00  0.00    -0.204 F 
ATOM     24  C   UNL d   1      53.798  33.392  55.247  0.00  0.00     0.005 A 
ENDBRANCH   2  18
TORSDOF 6
ENDMDL
MODEL 5
REMARK VINA RESULT:      -8.1      1.818      3.222
REMARK  6 active torsions:
REMARK  status: ('A' for Active; 'I' for Inactive)
REMARK    1  A    between atoms: C_11  and  C_2 
REMARK    2  A    between atoms: S_9  and  C_7 
REMARK    3  A    between atoms: C_13  and  S_9 
REMARK    4  A    between atoms: C_10  and  C_13 
REMARK    5  A    between atoms: O_18  and  C_10 
REMARK    6  A    between atoms: C_23  and  O_18 
ROOT
ATOM      1  N   UNL d   1      52.862  32.169  53.162  0.00  0.00    -0.191 N 
ATOM      2  C   UNL d   1      52.111  32.243  52.840  0.00  0.00     0.187 A 
ATOM      3  N   UNL d   1      51.894  31.510  52.542  0.00  0.00    -0.127 NA
ATOM      4  C   UNL d   1      53.120  31.398  53.070  0.00  0.00     0.187 A 
ATOM      5  N   UNL d   1      53.361  32.727  53.541  0.00  0.00    -0.156 NA
ATOM      6  N   UNL d   1      52.513  30.981  52.681  0.00  0.00    -0.127 NA
ATOM      7  C   UNL d   1      54.104  32.497  53.817  0.00  0.00     0.131 A 
ATOM      8  C   UNL d   1      53.863  31.168  53.347  0.00  0.00     0.043 A 
ATOM      9  C   UNL d   1      54.354  31.717  53.720  0.00  0.00     0.031 A 
ENDROOT
BRANCH   7  10
ATOM     10  S   UNL d   1      54.595  33.047  54.190  0.00  0.00    -0.061 SA
BRANCH  10  11
ATOM     11  C   UNL d   1      54.395  33.338  54.934  0.00  0.00     0.094 C 
ATOM     12  C   UNL d   1      54.169  32.821  55.526  0.00  0.00     0.013 C 
BRANCH  11  13
ATOM     13  C   UNL d   1      54.422  34.140  55.078  0.00  0.00     0.306 C 
ATOM     14  O   UNL d   1      55.148  34.518  55.187  0.00  0.00    -0.258 OA
BRANCH  13  15
ATOM     15  O   UNL d   1      53.727  34.587  55.118  0.00  0.00    -0.271 OA
BRANCH  15  16
ATOM     16  C   UNL d   1      53.760  35.396  55.102  0.00  0.00     0.126 C 
ATOM     17  C   UNL d   1      53.070  35.815  54.998  0.00  0.00     0.029 C 
ENDBRANCH  15  16
ENDBRANCH  13  15
ENDBRANCH  11  13
ENDBRANCH  10  11
ENDBRANCH   7  10
BRANCH   2  18
ATOM     18  C   UNL d   1      51.654  32.922  52.815  0.00  0.00     0.038 A 
ATOM     19  C   UNL d   1      51.046  33.023  53.368  0.00  0.00     0.005 A 
ATOM     20  C   UNL d   1      50.580  33.708  53.347  0.00  0.00     0.030 A 
ATOM     21  C   UNL d   1      50.726  34.284  52.775  0.00  0.00     0.140 A 
ATOM     22  C   UNL d   1      51.333  34.183  52.222  0.00  0.00     0.030 A 
ATOM     23  F   UNL d   1      50.264  34.966  52.751  0.00  0.00    -0.204 F 
ATOM     24  C   UNL d   1      51.794  33.496  52.249  0.00  0.00     0.005 A 
ENDBRANCH   2  18
TORSDOF 6
ENDMDL
