MODEL 1
REMARK VINA RESULT:      49.6      0.000      0.000
REMARK  5 active torsions:
REMARK  status: ('A' for Active; 'I' for Inactive)
REMARK    1  A    between atoms: O_2  and  S_1 
REMARK    2  A    between atoms: C_3  and  S_1 
REMARK    3  A    between atoms: C_6  and  O_2 
REMARK    4  A    between atoms: O_17  and  C_14 
REMARK    5  A    between atoms: C_20  and  O_17 
ROOT
ATOM      1  S   UNL d   1      60.289  49.056  50.762  0.00  0.00     0.304 S 
ATOM      2  O   UNL d   1      60.745  49.542  50.279  0.00  0.00    -0.193 OA
ATOM      3  O   UNL d   1      59.833  48.571  51.244  0.00  0.00    -0.193 OA
ENDROOT
BRANCH   1   4
ATOM      4  O   UNL d   1      59.848  49.708  51.001  0.00  0.00    -0.227 OA
BRANCH   4   5
ATOM      5  C   UNL d   1      59.029  49.706  50.912  0.00  0.00     0.114 A 
ATOM      6  C   UNL d   1      58.692  49.708  50.155  0.00  0.00     0.026 A 
ATOM      7  C   UNL d   1      57.876  49.706  50.068  0.00  0.00     0.002 A 
ATOM      8  C   UNL d   1      57.542  49.708  49.313  0.00  0.00     0.000 A 
ATOM      9  C   UNL d   1      57.386  49.703  50.738  0.00  0.00     0.000 A 
ATOM     10  C   UNL d   1      56.719  49.706  49.222  0.00  0.00     0.000 A 
ATOM     11  C   UNL d   1      56.229  49.703  49.892  0.00  0.00     0.000 A 
ATOM     12  C   UNL d   1      56.565  49.702  50.648  0.00  0.00     0.000 A 
ATOM     13  C   UNL d   1      57.715  49.702  51.490  0.00  0.00     0.002 A 
ATOM     14  C   UNL d   1      58.539  49.703  51.582  0.00  0.00     0.026 A 
ENDBRANCH   4   5
ENDBRANCH   1   4
BRANCH   1  15
ATOM     15  C   UNL d   1      60.730  48.404  50.522  0.00  0.00     0.111 A 
ATOM     16  C   UNL d   1      60.661  47.686  50.925  0.00  0.00     0.015 A 
ATOM     17  C   UNL d   1      61.102  47.034  50.685  0.00  0.00     0.025 A 
ATOM     18  C   UNL d   1      61.618  47.090  50.040  0.00  0.00     0.100 A 
ATOM     19  C   UNL d   1      61.683  47.810  49.641  0.00  0.00     0.025 A 
ATOM     20  C   UNL d   1      61.242  48.462  49.880  0.00  0.00     0.015 A 
BRANCH  18  21
ATOM     21  O   UNL d   1      62.058  46.438  49.800  0.00  0.00    -0.305 OA
BRANCH  21  22
ATOM     22  C   UNL d   1      61.682  45.729  49.626  0.00  0.00     0.123 C 
ATOM     23  C   UNL d   1      62.126  45.048  49.496  0.00  0.00     0.029 C 
ENDBRANCH  21  22
ENDBRANCH  18  21
ENDBRANCH   1  15
TORSDOF 5
ENDMDL
