MODEL 1
REMARK VINA RESULT:      24.6      0.000      0.000
REMARK  4 active torsions:
REMARK  status: ('A' for Active; 'I' for Inactive)
REMARK    1  A    between atoms: S_2  and  C_1 
REMARK    2  A    between atoms: C_10  and  S_2 
REMARK    3  A    between atoms: N_7  and  C_5 
REMARK    4  A    between atoms: C_11  and  N_7 
ROOT
ATOM      1  C   UNL d   1      13.975  12.507  -1.787  0.00  0.00     0.187 A 
ATOM      2  N   UNL d   1      14.647  12.822  -1.436  0.00  0.00    -0.208 NA
ATOM      3  C   UNL d   1      13.511  12.159  -1.199  0.00  0.00     0.118 A 
ATOM      4  C   UNL d   1      14.602  12.669  -0.631  0.00  0.00     0.196 A 
ATOM      5  S   UNL d   1      13.910  12.265  -0.486  0.00  0.00    -0.035 SA
ATOM      6 CL   UNL d   1      12.796  11.781  -1.304  0.00  0.00    -0.073 Cl
ENDROOT
BRANCH   1   7
ATOM      7  S   UNL d   1      13.789  12.532  -2.591  0.00  0.00     0.228 S 
ATOM      8  O   UNL d   1      13.229  11.955  -2.427  0.00  0.00    -0.216 OA
ATOM      9  O   UNL d   1      14.351  13.110  -2.747  0.00  0.00    -0.216 OA
BRANCH   7  10
ATOM     10  C   UNL d   1      13.545  12.498  -3.378  0.00  0.00     0.089 A 
ATOM     11  C   UNL d   1      13.709  11.822  -3.836  0.00  0.00     0.011 A 
ATOM     12  C   UNL d   1      13.461  11.792  -4.629  0.00  0.00     0.001 A 
ATOM     13  C   UNL d   1      13.054  12.427  -4.966  0.00  0.00     0.000 A 
ATOM     14  C   UNL d   1      12.893  13.104  -4.500  0.00  0.00     0.001 A 
ATOM     15  C   UNL d   1      13.137  13.137  -3.713  0.00  0.00     0.011 A 
ENDBRANCH   7  10
ENDBRANCH   1   7
BRANCH   4  16
ATOM     16  N   UNL d   1      15.163  12.889  -0.070  0.00  0.00    -0.221 NA
BRANCH  16  17
ATOM     17  C   UNL d   1      15.455  13.658  -0.064  0.00  0.00     0.087 A 
ATOM     18  C   UNL d   1      14.939  14.286  -0.086  0.00  0.00     0.061 A 
ATOM     19  C   UNL d   1      15.225  15.055  -0.080  0.00  0.00     0.197 A 
ATOM     20  O   UNL d   1      14.702  15.687  -0.102  0.00  0.00    -0.286 OA
ATOM     21  C   UNL d   1      16.038  15.191  -0.053  0.00  0.00     0.042 A 
ATOM     22  C   UNL d   1      16.558  14.551  -0.031  0.00  0.00     0.005 A 
ATOM     23  C   UNL d   1      16.271  13.784  -0.037  0.00  0.00     0.019 A 
ENDBRANCH  16  17
ENDBRANCH   4  16
TORSDOF 4
ENDMDL
