MODEL 1
REMARK VINA RESULT:      -9.2      0.000      0.000
REMARK  4 active torsions:
REMARK  status: ('A' for Active; 'I' for Inactive)
REMARK       I    between atoms: C_4  and  N_1 
REMARK    1  A    between atoms: C_7  and  C_3 
REMARK    2  A    between atoms: C_8  and  C_4 
REMARK    3  A    between atoms: C_10  and  C_5 
REMARK    4  A    between atoms: O_23  and  C_18 
ROOT
ATOM      1  N   UNL d   1     -48.138  13.733  22.894  0.00  0.00    -0.194 N 
ATOM      2  N   UNL d   1     -47.346  13.539  22.958  0.00  0.00    -0.163 NA
ATOM      3  C   UNL d   1     -48.580  13.036  22.952  0.00  0.00     0.091 A 
ATOM      4  C   UNL d   1     -48.460  14.510  22.788  0.00  0.00     0.286 C 
ATOM      5  C   UNL d   1     -47.299  12.720  23.054  0.00  0.00     0.103 A 
ATOM      6  C   UNL d   1     -48.051  12.420  23.050  0.00  0.00     0.040 A 
ATOM      7  O   UNL d   1     -47.939  15.153  22.741  0.00  0.00    -0.265 OA
ENDROOT
BRANCH   5   8
ATOM      8  C   UNL d   1     -46.600  12.289  23.140  0.00  0.00     0.019 A 
ATOM      9  C   UNL d   1     -46.581  11.610  23.608  0.00  0.00     0.004 A 
ATOM     10  C   UNL d   1     -45.882  11.179  23.694  0.00  0.00     0.024 A 
ATOM     11  C   UNL d   1     -45.195  11.431  23.307  0.00  0.00     0.094 A 
ATOM     12  C   UNL d   1     -45.211  12.112  22.837  0.00  0.00     0.024 A 
ATOM     13  C   UNL d   1     -45.912  12.541  22.754  0.00  0.00     0.004 A 
BRANCH  11  14
ATOM     14  O   UNL d   1     -44.493  11.002  23.391  0.00  0.00    -0.328 OA
ATOM     15  C   UNL d   1     -44.518  10.181  23.490  0.00  0.00     0.181 C 
ENDBRANCH  11  14
ENDBRANCH   5   8
BRANCH   3  16
ATOM     16  C   UNL d   1     -49.409  12.989  22.914  0.00  0.00     0.057 A 
ATOM     17  C   UNL d   1     -49.753  12.662  22.252  0.00  0.00     0.197 A 
ATOM     18  O   UNL d   1     -49.305  12.384  21.638  0.00  0.00    -0.286 OA
ATOM     19  C   UNL d   1     -50.587  12.613  22.210  0.00  0.00     0.042 A 
ATOM     20  C   UNL d   1     -51.064  12.891  22.829  0.00  0.00     0.003 A 
ATOM     21  C   UNL d   1     -50.685  13.215  23.479  0.00  0.00     0.000 A 
ATOM     22  C   UNL d   1     -49.886  13.264  23.523  0.00  0.00     0.005 A 
ENDBRANCH   3  16
BRANCH   4  23
ATOM     23  C   UNL d   1     -49.258  14.619  22.734  0.00  0.00     0.087 A 
ATOM     24  S   UNL d   1     -49.739  14.784  23.349  0.00  0.00    -0.082 SA
ATOM     25  C   UNL d   1     -50.523  14.852  23.046  0.00  0.00     0.036 A 
ATOM     26  C   UNL d   1     -50.488  14.720  22.225  0.00  0.00     0.008 A 
ATOM     27  C   UNL d   1     -49.702  14.575  22.034  0.00  0.00     0.012 A 
ENDBRANCH   4  23
TORSDOF 4
ENDMDL
MODEL 2
REMARK VINA RESULT:      -6.9      9.136     10.042
REMARK  4 active torsions:
REMARK  status: ('A' for Active; 'I' for Inactive)
REMARK       I    between atoms: C_4  and  N_1 
REMARK    1  A    between atoms: C_7  and  C_3 
REMARK    2  A    between atoms: C_8  and  C_4 
REMARK    3  A    between atoms: C_10  and  C_5 
REMARK    4  A    between atoms: O_23  and  C_18 
ROOT
ATOM      1  N   UNL d   1     -39.817  15.025  19.338  0.00  0.00    -0.194 N 
ATOM      2  N   UNL d   1     -39.803  15.002  20.156  0.00  0.00    -0.163 NA
ATOM      3  C   UNL d   1     -39.207  14.544  19.056  0.00  0.00     0.091 A 
ATOM      4  C   UNL d   1     -40.359  15.464  18.855  0.00  0.00     0.286 C 
ATOM      5  C   UNL d   1     -39.182  14.505  20.379  0.00  0.00     0.103 A 
ATOM      6  C   UNL d   1     -38.823  14.230  19.706  0.00  0.00     0.040 A 
ATOM      7  O   UNL d   1     -40.942  15.922  19.227  0.00  0.00    -0.265 OA
ENDROOT
BRANCH   5   8
ATOM      8  C   UNL d   1     -38.970  14.325  21.156  0.00  0.00     0.019 A 
ATOM      9  C   UNL d   1     -38.260  14.603  21.472  0.00  0.00     0.004 A 
ATOM     10  C   UNL d   1     -38.048  14.423  22.249  0.00  0.00     0.024 A 
ATOM     11  C   UNL d   1     -38.552  13.960  22.715  0.00  0.00     0.094 A 
ATOM     12  C   UNL d   1     -39.264  13.680  22.401  0.00  0.00     0.024 A 
ATOM     13  C   UNL d   1     -39.473  13.862  21.622  0.00  0.00     0.004 A 
BRANCH  11  14
ATOM     14  O   UNL d   1     -38.343  13.778  23.494  0.00  0.00    -0.328 OA
ATOM     15  C   UNL d   1     -37.940  13.075  23.661  0.00  0.00     0.181 C 
ENDBRANCH  11  14
ENDBRANCH   5   8
BRANCH   3  16
ATOM     16  C   UNL d   1     -39.030  14.415  18.254  0.00  0.00     0.057 A 
ATOM     17  C   UNL d   1     -39.180  13.681  17.933  0.00  0.00     0.197 A 
ATOM     18  O   UNL d   1     -39.496  13.083  18.378  0.00  0.00    -0.286 OA
ATOM     19  C   UNL d   1     -39.004  13.547  17.127  0.00  0.00     0.042 A 
ATOM     20  C   UNL d   1     -38.680  14.146  16.654  0.00  0.00     0.003 A 
ATOM     21  C   UNL d   1     -38.541  14.871  17.009  0.00  0.00     0.000 A 
ATOM     22  C   UNL d   1     -38.709  15.004  17.781  0.00  0.00     0.005 A 
ENDBRANCH   3  16
BRANCH   4  23
ATOM     23  C   UNL d   1     -40.307  15.433  18.051  0.00  0.00     0.087 A 
ATOM     24  S   UNL d   1     -39.862  15.922  17.603  0.00  0.00    -0.082 SA
ATOM     25  C   UNL d   1     -39.970  15.696  16.798  0.00  0.00     0.036 A 
ATOM     26  C   UNL d   1     -40.497  15.053  16.785  0.00  0.00     0.008 A 
ATOM     27  C   UNL d   1     -40.705  14.892  17.564  0.00  0.00     0.012 A 
ENDBRANCH   4  23
TORSDOF 4
ENDMDL
