MODEL 1
REMARK VINA RESULT:      39.7      0.000      0.000
REMARK  4 active torsions:
REMARK  status: ('A' for Active; 'I' for Inactive)
REMARK    1  A    between atoms: C_2  and  C_1 
REMARK       I    between atoms: N_9  and  C_2 
REMARK    2  A    between atoms: C_16  and  N_9 
REMARK    3  A    between atoms: C_13  and  C_16 
REMARK    4  A    between atoms: O_17  and  C_13 
ROOT
ATOM      1  C   UNL d   1     -55.190-100.681 -43.697  0.00  0.00     0.073 A 
ATOM      2  C   UNL d   1     -55.016-101.313 -44.906  0.00  0.00     0.001 A 
ATOM      3  C   UNL d   1     -54.903-101.756 -43.177  0.00  0.00     0.001 A 
ATOM      4  C   UNL d   1     -54.834-102.008 -43.735  0.00  0.00     0.001 A 
ATOM      5  C   UNL d   1     -55.051-101.210 -42.814  0.00  0.00     0.009 A 
ATOM      6  C   UNL d   1     -55.193-100.659 -44.490  0.00  0.00     0.009 A 
ATOM      7  C   UNL d   1     -55.010-101.357 -43.316  0.00  0.00     0.009 A 
ATOM      8  C   UNL d   1     -54.711-102.475 -43.022  0.00  0.00     0.000 A 
ATOM      9  C   UNL d   1     -54.907-101.727 -44.229  0.00  0.00     0.000 A 
ATOM     10  C   UNL d   1     -54.837-101.986 -44.528  0.00  0.00     0.000 A 
ATOM     11  C   UNL d   1     -54.712-102.452 -44.428  0.00  0.00     0.000 C 
ATOM     12  C   UNL d   1     -54.965-101.537 -42.381  0.00  0.00     0.000 C 
ATOM     13  C   UNL d   1     -55.075-101.082 -45.706  0.00  0.00     0.000 C 
ENDROOT
BRANCH   1  14
ATOM     14  C   UNL d   1     -55.390 -99.931 -43.989  0.00  0.00     0.255 C 
ATOM     15  N   UNL d   1     -56.193 -99.705 -44.044  0.00  0.00    -0.205 NA
ATOM     16  O   UNL d   1     -54.802 -99.401 -44.227  0.00  0.00    -0.270 OA
BRANCH  15  17
ATOM     17  C   UNL d   1     -56.391 -98.958 -44.334  0.00  0.00     0.170 C 
BRANCH  17  18
ATOM     18  C   UNL d   1     -57.135 -98.823 -44.664  0.00  0.00     0.316 C 
ATOM     19  O   UNL d   1     -57.223 -98.755 -45.482  0.00  0.00    -0.257 OA
BRANCH  18  20
ATOM     20  O   UNL d   1     -57.798 -98.756 -44.167  0.00  0.00    -0.295 OA
ATOM     21  C   UNL d   1     -58.559 -98.809 -44.483  0.00  0.00     0.185 C 
ENDBRANCH  18  20
ENDBRANCH  17  18
ENDBRANCH  15  17
ENDBRANCH   1  14
TORSDOF 4
ENDMDL
MODEL 2
REMARK VINA RESULT:      41.7      2.516      3.276
REMARK  4 active torsions:
REMARK  status: ('A' for Active; 'I' for Inactive)
REMARK    1  A    between atoms: C_2  and  C_1 
REMARK       I    between atoms: N_9  and  C_2 
REMARK    2  A    between atoms: C_16  and  N_9 
REMARK    3  A    between atoms: C_13  and  C_16 
REMARK    4  A    between atoms: O_17  and  C_13 
ROOT
ATOM      1  C   UNL d   1     -56.820 -98.824 -44.735  0.00  0.00     0.073 A 
ATOM      2  C   UNL d   1     -56.390 -98.791 -43.430  0.00  0.00     0.001 A 
ATOM      3  C   UNL d   1     -55.633 -98.794 -45.050  0.00  0.00     0.001 A 
ATOM      4  C   UNL d   1     -55.476 -98.780 -44.455  0.00  0.00     0.001 A 
ATOM      5  C   UNL d   1     -56.125 -98.816 -45.508  0.00  0.00     0.009 A 
ATOM      6  C   UNL d   1     -56.982 -98.817 -43.959  0.00  0.00     0.009 A 
ATOM      7  C   UNL d   1     -56.064 -98.806 -44.987  0.00  0.00     0.009 A 
ATOM      8  C   UNL d   1     -54.874 -98.771 -45.071  0.00  0.00     0.000 A 
ATOM      9  C   UNL d   1     -55.848 -98.784 -44.021  0.00  0.00     0.000 A 
ATOM     10  C   UNL d   1     -55.638 -98.772 -43.678  0.00  0.00     0.000 A 
ATOM     11  C   UNL d   1     -55.145 -98.758 -43.691  0.00  0.00     0.000 C 
ATOM     12  C   UNL d   1     -55.716 -98.809 -45.874  0.00  0.00     0.000 C 
ATOM     13  C   UNL d   1     -56.767 -98.790 -42.685  0.00  0.00     0.000 C 
ENDROOT
BRANCH   1  14
ATOM     14  C   UNL d   1     -57.635 -98.846 -44.586  0.00  0.00     0.255 C 
ATOM     15  N   UNL d   1     -58.178 -98.756 -45.216  0.00  0.00    -0.205 NA
ATOM     16  O   UNL d   1     -57.920 -98.958 -43.818  0.00  0.00    -0.270 OA
BRANCH  15  17
ATOM     17  C   UNL d   1     -58.989 -98.778 -45.065  0.00  0.00     0.170 C 
BRANCH  17  18
ATOM     18  C   UNL d   1     -59.501 -99.148 -45.596  0.00  0.00     0.316 C 
ATOM     19  O   UNL d   1     -59.825 -99.886 -45.417  0.00  0.00    -0.257 OA
BRANCH  18  20
ATOM     20  O   UNL d   1     -59.689 -98.773 -46.313  0.00  0.00    -0.295 OA
ATOM     21  C   UNL d   1     -59.859 -99.224 -46.984  0.00  0.00     0.185 C 
ENDBRANCH  18  20
ENDBRANCH  17  18
ENDBRANCH  15  17
ENDBRANCH   1  14
TORSDOF 4
ENDMDL
