MODEL 1
REMARK VINA RESULT:      -3.1      0.000      0.000
REMARK  5 active torsions:
REMARK  status: ('A' for Active; 'I' for Inactive)
REMARK    1  A    between atoms: S_6  and  C_2 
REMARK    2  A    between atoms: C_11  and  S_6 
REMARK    3  A    between atoms: C_7  and  C_11 
REMARK       I    between atoms: N_8  and  C_7 
REMARK    4  A    between atoms: C_13  and  N_8 
REMARK    5  A    between atoms: C_14  and  C_13 
ROOT
ATOM      1  S   UNL d   1      33.015  20.511 -21.890  0.00  0.00    -0.080 SA
ENDROOT
BRANCH   1   2
ATOM      2  C   UNL d   1      32.978  21.329 -21.990  0.00  0.00     0.049 A 
ATOM      3  C   UNL d   1      33.219  21.750 -22.652  0.00  0.00     0.087 A 
ATOM      4  N   UNL d   1      33.080  22.562 -22.509  0.00  0.00    -0.302 N 
ATOM      5  C   UNL d   1      32.749  22.629 -21.749  0.00  0.00     0.065 A 
ATOM      6  C   UNL d   1      33.241  23.182 -23.028  0.00  0.00     0.100 C 
ATOM      7  C   UNL d   1      32.685  21.870 -21.428  0.00  0.00     0.024 A 
ATOM      8  C   UNL d   1      32.502  23.289 -21.321  0.00  0.00     0.018 A 
ATOM      9  C   UNL d   1      32.372  21.775 -20.671  0.00  0.00     0.002 A 
ATOM     10  C   UNL d   1      32.125  22.427 -20.241  0.00  0.00     0.000 A 
ATOM     11  C   UNL d   1      32.188  23.185 -20.561  0.00  0.00     0.002 A 
ENDBRANCH   1   2
BRANCH   1  12
ATOM     12  C   UNL d   1      33.143  20.025 -22.549  0.00  0.00     0.098 C 
BRANCH  12  13
ATOM     13  C   UNL d   1      33.066  19.205 -22.476  0.00  0.00     0.286 C 
ATOM     14  N   UNL d   1      32.814  18.761 -23.123  0.00  0.00    -0.204 NA
ATOM     15  O   UNL d   1      33.240  18.835 -21.761  0.00  0.00    -0.265 OA
BRANCH  14  16
ATOM     16  C   UNL d   1      32.737  17.941 -23.051  0.00  0.00     0.127 C 
BRANCH  16  17
ATOM     17  C   UNL d   1      32.484  17.502 -23.685  0.00  0.00     0.119 A 
ATOM     18  O   UNL d   1      32.947  17.239 -24.315  0.00  0.00    -0.304 OA
ATOM     19  C   UNL d   1      32.458  16.810 -24.836  0.00  0.00     0.123 A 
ATOM     20  C   UNL d   1      31.695  16.811 -24.524  0.00  0.00     0.029 A 
ATOM     21  C   UNL d   1      31.712  17.234 -23.820  0.00  0.00     0.028 A 
ENDBRANCH  16  17
ENDBRANCH  14  16
ENDBRANCH  12  13
ENDBRANCH   1  12
TORSDOF 5
ENDMDL
MODEL 2
REMARK VINA RESULT:      -2.8      1.442      5.191
REMARK  5 active torsions:
REMARK  status: ('A' for Active; 'I' for Inactive)
REMARK    1  A    between atoms: S_6  and  C_2 
REMARK    2  A    between atoms: C_11  and  S_6 
REMARK    3  A    between atoms: C_7  and  C_11 
REMARK       I    between atoms: N_8  and  C_7 
REMARK    4  A    between atoms: C_13  and  N_8 
REMARK    5  A    between atoms: C_14  and  C_13 
ROOT
ATOM      1  S   UNL d   1      33.071  18.896 -22.461  0.00  0.00    -0.080 SA
ENDROOT
BRANCH   1   2
ATOM      2  C   UNL d   1      32.832  18.499 -23.144  0.00  0.00     0.049 A 
ATOM      3  C   UNL d   1      32.473  18.835 -23.801  0.00  0.00     0.087 A 
ATOM      4  N   UNL d   1      32.329  18.229 -24.358  0.00  0.00    -0.302 N 
ATOM      5  C   UNL d   1      32.608  17.517 -24.029  0.00  0.00     0.065 A 
ATOM      6  C   UNL d   1      31.977  18.321 -25.097  0.00  0.00     0.100 C 
ATOM      7  C   UNL d   1      32.917  17.682 -23.281  0.00  0.00     0.024 A 
ATOM      8  C   UNL d   1      32.612  16.748 -24.326  0.00  0.00     0.018 A 
ATOM      9  C   UNL d   1      33.234  17.069 -22.829  0.00  0.00     0.002 A 
ATOM     10  C   UNL d   1      33.241  16.303 -23.118  0.00  0.00     0.000 A 
ATOM     11  C   UNL d   1      32.931  16.138 -23.866  0.00  0.00     0.002 A 
ENDBRANCH   1   2
BRANCH   1  12
ATOM     12  C   UNL d   1      32.919  19.707 -22.384  0.00  0.00     0.098 C 
BRANCH  12  13
ATOM     13  C   UNL d   1      32.972  20.067 -21.643  0.00  0.00     0.286 C 
ATOM     14  N   UNL d   1      32.756  20.858 -21.559  0.00  0.00    -0.204 NA
ATOM     15  O   UNL d   1      33.240  19.639 -20.993  0.00  0.00    -0.265 OA
BRANCH  14  16
ATOM     16  C   UNL d   1      32.809  21.219 -20.817  0.00  0.00     0.127 C 
BRANCH  16  17
ATOM     17  C   UNL d   1      32.607  22.001 -20.733  0.00  0.00     0.119 A 
ATOM     18  O   UNL d   1      32.174  22.456 -21.268  0.00  0.00    -0.304 OA
ATOM     19  C   UNL d   1      32.100  23.225 -20.956  0.00  0.00     0.123 A 
ATOM     20  C   UNL d   1      32.489  23.241 -20.229  0.00  0.00     0.029 A 
ATOM     21  C   UNL d   1      32.798  22.492 -20.094  0.00  0.00     0.028 A 
ENDBRANCH  16  17
ENDBRANCH  14  16
ENDBRANCH  12  13
ENDBRANCH   1  12
TORSDOF 5
ENDMDL
MODEL 3
REMARK VINA RESULT:      -2.3      1.733      5.451
REMARK  5 active torsions:
REMARK  status: ('A' for Active; 'I' for Inactive)
REMARK    1  A    between atoms: S_6  and  C_2 
REMARK    2  A    between atoms: C_11  and  S_6 
REMARK    3  A    between atoms: C_7  and  C_11 
REMARK       I    between atoms: N_8  and  C_7 
REMARK    4  A    between atoms: C_13  and  N_8 
REMARK    5  A    between atoms: C_14  and  C_13 
ROOT
ATOM      1  S   UNL d   1      31.822  18.309 -24.373  0.00  0.00    -0.080 SA
ENDROOT
BRANCH   1   2
ATOM      2  C   UNL d   1      31.476  17.575 -24.524  0.00  0.00     0.049 A 
ATOM      3  C   UNL d   1      31.862  16.851 -24.546  0.00  0.00     0.087 A 
ATOM      4  N   UNL d   1      31.297  16.260 -24.717  0.00  0.00    -0.302 N 
ATOM      5  C   UNL d   1      30.559  16.637 -24.800  0.00  0.00     0.065 A 
ATOM      6  C   UNL d   1      31.444  15.453 -24.791  0.00  0.00     0.100 C 
ATOM      7  C   UNL d   1      30.668  17.446 -24.681  0.00  0.00     0.024 A 
ATOM      8  C   UNL d   1      29.811  16.333 -24.968  0.00  0.00     0.018 A 
ATOM      9  C   UNL d   1      30.021  17.955 -24.731  0.00  0.00     0.002 A 
ATOM     10  C   UNL d   1      29.275  17.659 -24.898  0.00  0.00     0.000 A 
ATOM     11  C   UNL d   1      29.166  16.849 -25.017  0.00  0.00     0.002 A 
ENDBRANCH   1   2
BRANCH   1  12
ATOM     12  C   UNL d   1      32.529  18.347 -23.943  0.00  0.00     0.098 C 
BRANCH  12  13
ATOM     13  C   UNL d   1      32.875  19.081 -23.783  0.00  0.00     0.286 C 
ATOM     14  N   UNL d   1      32.895  19.361 -23.009  0.00  0.00    -0.204 NA
ATOM     15  O   UNL d   1      33.196  19.529 -24.395  0.00  0.00    -0.265 OA
BRANCH  14  16
ATOM     16  C   UNL d   1      33.241  20.095 -22.848  0.00  0.00     0.127 C 
BRANCH  16  17
ATOM     17  C   UNL d   1      33.142  20.437 -22.119  0.00  0.00     0.119 A 
ATOM     18  O   UNL d   1      32.983  20.046 -21.411  0.00  0.00    -0.304 OA
ATOM     19  C   UNL d   1      32.925  20.615 -20.805  0.00  0.00     0.123 A 
ATOM     20  C   UNL d   1      33.049  21.357 -21.144  0.00  0.00     0.029 A 
ATOM     21  C   UNL d   1      33.181  21.247 -21.947  0.00  0.00     0.028 A 
ENDBRANCH  16  17
ENDBRANCH  14  16
ENDBRANCH  12  13
ENDBRANCH   1  12
TORSDOF 5
ENDMDL
MODEL 4
REMARK VINA RESULT:      -1.6      1.446      5.427
REMARK  5 active torsions:
REMARK  status: ('A' for Active; 'I' for Inactive)
REMARK    1  A    between atoms: S_6  and  C_2 
REMARK    2  A    between atoms: C_11  and  S_6 
REMARK    3  A    between atoms: C_7  and  C_11 
REMARK       I    between atoms: N_8  and  C_7 
REMARK    4  A    between atoms: C_13  and  N_8 
REMARK    5  A    between atoms: C_14  and  C_13 
ROOT
ATOM      1  S   UNL d   1      32.556  18.350 -23.498  0.00  0.00    -0.080 SA
ENDROOT
BRANCH   1   2
ATOM      2  C   UNL d   1      32.488  17.528 -23.509  0.00  0.00     0.049 A 
ATOM      3  C   UNL d   1      33.050  16.990 -23.246  0.00  0.00     0.087 A 
ATOM      4  N   UNL d   1      32.747  16.220 -23.362  0.00  0.00    -0.302 N 
ATOM      5  C   UNL d   1      31.990  16.298 -23.700  0.00  0.00     0.065 A 
ATOM      6  C   UNL d   1      33.128  15.514 -23.175  0.00  0.00     0.100 C 
ATOM      7  C   UNL d   1      31.830  17.103 -23.791  0.00  0.00     0.024 A 
ATOM      8  C   UNL d   1      31.439  15.730 -23.931  0.00  0.00     0.018 A 
ATOM      9  C   UNL d   1      31.110  17.338 -24.117  0.00  0.00     0.002 A 
ATOM     10  C   UNL d   1      30.558  16.779 -24.348  0.00  0.00     0.000 A 
ATOM     11  C   UNL d   1      30.718  15.974 -24.257  0.00  0.00     0.002 A 
ENDBRANCH   1   2
BRANCH   1  12
ATOM     12  C   UNL d   1      32.996  18.717 -22.899  0.00  0.00     0.098 C 
BRANCH  12  13
ATOM     13  C   UNL d   1      33.064  19.540 -22.884  0.00  0.00     0.286 C 
ATOM     14  N   UNL d   1      32.954  19.945 -22.175  0.00  0.00    -0.204 NA
ATOM     15  O   UNL d   1      33.241  19.953 -23.574  0.00  0.00    -0.265 OA
BRANCH  14  16
ATOM     16  C   UNL d   1      33.023  20.769 -22.159  0.00  0.00     0.127 C 
BRANCH  16  17
ATOM     17  C   UNL d   1      32.933  21.168 -21.458  0.00  0.00     0.119 A 
ATOM     18  O   UNL d   1      33.230  20.941 -20.723  0.00  0.00    -0.304 OA
ATOM     19  C   UNL d   1      33.004  21.515 -20.162  0.00  0.00     0.123 A 
ATOM     20  C   UNL d   1      32.569  22.094 -20.556  0.00  0.00     0.029 A 
ATOM     21  C   UNL d   1      32.526  21.881 -21.347  0.00  0.00     0.028 A 
ENDBRANCH  16  17
ENDBRANCH  14  16
ENDBRANCH  12  13
ENDBRANCH   1  12
TORSDOF 5
ENDMDL
