MODEL 1
REMARK VINA RESULT:      69.1      0.000      0.000
REMARK  2 active torsions:
REMARK  status: ('A' for Active; 'I' for Inactive)
REMARK    1  A    between atoms: C_3  and  C_1 
REMARK       I    between atoms: N_6  and  C_3 
REMARK    2  A    between atoms: C_9  and  N_7 
ROOT
ATOM      1  C   UNL d   1     -55.206-102.076 -43.553  0.00  0.00     0.270 C 
ATOM      2  N   UNL d   1     -55.123-102.097 -42.743  0.00  0.00    -0.269 N 
ATOM      3  N   UNL d   1     -54.959-102.123 -41.076  0.00  0.00    -0.286 N 
ATOM      4  O   UNL d   1     -55.032-102.766 -44.005  0.00  0.00    -0.266 OA
ATOM      5  C   UNL d   1     -55.296-101.411 -42.293  0.00  0.00     0.102 A 
ATOM      6  C   UNL d   1     -54.870-102.785 -42.342  0.00  0.00     0.102 A 
ATOM      7  C   UNL d   1     -55.210-101.437 -41.459  0.00  0.00     0.101 A 
ATOM      8  C   UNL d   1     -54.786-102.810 -41.526  0.00  0.00     0.101 A 
ENDROOT
BRANCH   1   9
ATOM      9  C   UNL d   1     -55.462-101.377 -43.944  0.00  0.00     0.120 A 
ATOM     10  C   UNL d   1     -55.213-101.229 -44.740  0.00  0.00     0.305 A 
ATOM     11  O   UNL d   1     -55.463-100.548 -45.119  0.00  0.00    -0.273 OA
ATOM     12  O   UNL d   1     -54.711-101.783 -45.133  0.00  0.00    -0.259 OA
ATOM     13  C   UNL d   1     -55.951-100.004 -44.744  0.00  0.00     0.103 A 
ATOM     14  C   UNL d   1     -56.200-100.151 -43.948  0.00  0.00     0.023 A 
ATOM     15  C   UNL d   1     -56.205 -99.316 -45.123  0.00  0.00     0.025 A 
ATOM     16  C   UNL d   1     -55.948-100.835 -43.570  0.00  0.00     0.012 A 
ATOM     17  C   UNL d   1     -56.690 -99.604 -43.574  0.00  0.00     0.002 A 
ATOM     18  C   UNL d   1     -56.938 -98.927 -43.952  0.00  0.00     0.000 A 
ATOM     19  C   UNL d   1     -56.689 -98.779 -44.747  0.00  0.00     0.002 A 
ENDBRANCH   1   9
BRANCH   3  20
ATOM     20  C   UNL d   1     -54.877-102.140 -40.259  0.00  0.00     0.148 A 
ATOM     21  N   UNL d   1     -54.863-101.421 -39.827  0.00  0.00    -0.227 NA
ATOM     22  C   UNL d   1     -54.780-101.425 -38.998  0.00  0.00     0.101 A 
ATOM     23  C   UNL d   1     -54.713-102.155 -38.609  0.00  0.00     0.021 A 
ATOM     24  C   UNL d   1     -54.728-102.874 -39.041  0.00  0.00     0.005 A 
ATOM     25  C   UNL d   1     -54.809-102.858 -39.858  0.00  0.00     0.037 A 
ENDBRANCH   3  20
TORSDOF 2
ENDMDL
