MODEL 1
REMARK VINA RESULT:      -4.1      0.000      0.000
REMARK  7 active torsions:
REMARK  status: ('A' for Active; 'I' for Inactive)
REMARK    1  A    between atoms: S_9  and  C_2 
REMARK    2  A    between atoms: C_6  and  C_8 
REMARK       I    between atoms: N_7  and  C_6 
REMARK    3  A    between atoms: C_11  and  N_7 
REMARK    4  A    between atoms: C_8  and  C_12 
REMARK    5  A    between atoms: C_12  and  S_9 
REMARK    6  A    between atoms: O_18  and  C_13 
REMARK    7  A    between atoms: C_20  and  O_18 
ROOT
ATOM      1  C   UNL d   1      57.899   0.066  29.635  0.00  0.00     0.280 C 
ATOM      2  N   UNL d   1      58.412  -0.073  29.003  0.00  0.00    -0.208 NA
ATOM      3  O   UNL d   1      57.346   0.682  29.590  0.00  0.00    -0.265 OA
ENDROOT
BRANCH   1   4
ATOM      4  C   UNL d   1      57.937  -0.406  30.311  0.00  0.00     0.070 C 
BRANCH   4   5
ATOM      5  C   UNL d   1      57.413  -0.278  30.936  0.00  0.00     0.042 C 
BRANCH   5   6
ATOM      6  S   UNL d   1      57.299  -0.869  31.515  0.00  0.00    -0.059 SA
BRANCH   6   7
ATOM      7  C   UNL d   1      56.706  -0.784  32.081  0.00  0.00     0.164 A 
ATOM      8  S   UNL d   1      56.406  -0.124  32.475  0.00  0.00    -0.039 SA
ATOM      9  C   UNL d   1      55.812  -0.374  32.983  0.00  0.00     0.134 A 
ATOM     10  N   UNL d   1      55.733  -1.195  32.911  0.00  0.00    -0.140 NA
ATOM     11  C   UNL d   1      55.362   0.117  33.487  0.00  0.00     0.030 C 
ATOM     12  N   UNL d   1      56.293  -1.446  32.347  0.00  0.00    -0.134 NA
ENDBRANCH   6   7
ENDBRANCH   5   6
ENDBRANCH   4   5
ENDBRANCH   1   4
BRANCH   2  13
ATOM     13  C   UNL d   1      58.972  -0.693  29.044  0.00  0.00     0.085 A 
ATOM     14  C   UNL d   1      58.781  -1.437  28.740  0.00  0.00     0.021 A 
ATOM     15  C   UNL d   1      59.328  -2.052  28.777  0.00  0.00     0.026 A 
ATOM     16  C   UNL d   1      60.069  -1.922  29.119  0.00  0.00     0.100 A 
ATOM     17  C   UNL d   1      60.260  -1.178  29.422  0.00  0.00     0.026 A 
ATOM     18  C   UNL d   1      59.711  -0.562  29.385  0.00  0.00     0.021 A 
BRANCH  16  19
ATOM     19  O   UNL d   1      60.626  -2.553  29.155  0.00  0.00    -0.305 OA
BRANCH  19  20
ATOM     20  C   UNL d   1      60.379  -3.332  29.026  0.00  0.00     0.123 C 
ATOM     21  C   UNL d   1      60.940  -3.932  28.950  0.00  0.00     0.029 C 
ENDBRANCH  19  20
ENDBRANCH  16  19
ENDBRANCH   2  13
TORSDOF 7
ENDMDL
