MODEL 1
REMARK VINA RESULT:      42.9      0.000      0.000
REMARK  7 active torsions:
REMARK  status: ('A' for Active; 'I' for Inactive)
REMARK    1  A    between atoms: C_7  and  S_1 
REMARK    2  A    between atoms: N_11  and  S_1 
REMARK    3  A    between atoms: C_5  and  C_2 
REMARK    4  A    between atoms: C_6  and  C_15 
REMARK    5  A    between atoms: C_18  and  N_11 
REMARK    6  A    between atoms: C_15  and  C_18 
REMARK    7  A    between atoms: O_21  and  C_17 
ROOT
ATOM      1  C   UNL d   1     -55.090-100.510 -42.874  0.00  0.00     0.114 C 
ENDROOT
BRANCH   1   2
ATOM      2  C   UNL d   1     -54.845-100.119 -43.555  0.00  0.00     0.041 C 
BRANCH   2   3
ATOM      3  C   UNL d   1     -55.385 -99.681 -44.009  0.00  0.00     0.090 A 
ATOM      4  N   UNL d   1     -56.212 -99.741 -43.962  0.00  0.00    -0.238 NA
ATOM      5  C   UNL d   1     -56.533 -99.205 -44.511  0.00  0.00     0.112 A 
ATOM      6  S   UNL d   1     -55.909 -98.818 -44.894  0.00  0.00    -0.066 SA
ATOM      7  C   UNL d   1     -55.196 -99.114 -44.582  0.00  0.00     0.056 A 
BRANCH   5   8
ATOM      8  C   UNL d   1     -57.345 -99.075 -44.656  0.00  0.00     0.043 A 
ATOM      9  C   UNL d   1     -57.629 -99.067 -45.431  0.00  0.00     0.101 A 
ATOM     10  N   UNL d   1     -58.422 -98.939 -45.573  0.00  0.00    -0.242 NA
ATOM     11  C   UNL d   1     -58.936 -98.820 -44.943  0.00  0.00     0.099 A 
ATOM     12  C   UNL d   1     -58.644 -98.829 -44.155  0.00  0.00     0.021 A 
ATOM     13  C   UNL d   1     -57.847 -98.957 -44.013  0.00  0.00     0.005 A 
ENDBRANCH   5   8
ENDBRANCH   2   3
ENDBRANCH   1   2
BRANCH   1  14
ATOM     14  N   UNL d   1     -54.722-101.235 -42.654  0.00  0.00    -0.157 NA
BRANCH  14  15
ATOM     15  S   UNL d   1     -54.896-101.570 -41.915  0.00  0.00     0.285 S 
ATOM     16  O   UNL d   1     -54.757-100.830 -41.553  0.00  0.00    -0.198 OA
ATOM     17  O   UNL d   1     -55.035-102.308 -42.272  0.00  0.00    -0.198 OA
BRANCH  15  18
ATOM     18  C   UNL d   1     -55.068-101.895 -41.175  0.00  0.00     0.105 A 
ATOM     19  C   UNL d   1     -54.711-101.577 -40.505  0.00  0.00     0.015 A 
ATOM     20  C   UNL d   1     -54.883-101.903 -39.757  0.00  0.00     0.025 A 
ATOM     21  C   UNL d   1     -55.401-102.534 -39.692  0.00  0.00     0.094 A 
ATOM     22  C   UNL d   1     -55.753-102.845 -40.366  0.00  0.00     0.025 A 
ATOM     23  C   UNL d   1     -55.595-102.535 -41.111  0.00  0.00     0.015 A 
BRANCH  21  24
ATOM     24  O   UNL d   1     -55.573-102.859 -38.952  0.00  0.00    -0.328 OA
ATOM     25  C   UNL d   1     -54.995-102.866 -38.363  0.00  0.00     0.181 C 
ENDBRANCH  21  24
ENDBRANCH  15  18
ENDBRANCH  14  15
ENDBRANCH   1  14
TORSDOF 7
ENDMDL
