MODEL 1
REMARK VINA RESULT:      17.1      0.000      0.000
REMARK  4 active torsions:
REMARK  status: ('A' for Active; 'I' for Inactive)
REMARK    1  A    between atoms: C_6  and  C_1 
REMARK    2  A    between atoms: C_13  and  C_2 
REMARK    3  A    between atoms: P_4  and  C_3 
REMARK    4  A    between atoms: C_17  and  C_13 
ROOT
ATOM      1  C   UNL d   1      46.294 -17.994  43.194  0.00  0.00     0.112 A 
ATOM      2  C   UNL d   1      46.460 -18.778  43.364  0.00  0.00     0.052 A 
ATOM      3  N   UNL d   1      46.342 -17.896  42.372  0.00  0.00    -0.217 NA
ATOM      4  C   UNL d   1      46.539 -18.627  42.039  0.00  0.00     0.215 A 
ATOM      5  S   UNL d   1      46.611 -19.168  42.651  0.00  0.00    -0.045 SA
ATOM      6  N   UNL d   1      46.647 -18.788  41.222  0.00  0.00    -0.120 N 
ENDROOT
BRANCH   1   7
ATOM      7  C   UNL d   1      46.114 -17.427  43.769  0.00  0.00     0.119 A 
ATOM      8  O   UNL d   1      45.964 -16.636  43.593  0.00  0.00    -0.297 OA
ATOM      9  C   UNL d   1      45.807 -16.240  44.300  0.00  0.00     0.191 A 
ATOM     10  C   UNL d   1      45.859 -16.788  44.913  0.00  0.00     0.036 A 
ATOM     11  C   UNL d   1      46.049 -17.518  44.585  0.00  0.00     0.029 A 
BRANCH   9  12
ATOM     12  P   UNL d   1      45.626 -15.434  44.387  0.00  0.00     0.321 P 
ATOM     13  O   UNL d   1      46.287 -15.241  43.923  0.00  0.00    -0.635 OA
ATOM     14  O   UNL d   1      44.968 -15.632  44.849  0.00  0.00    -0.635 OA
ATOM     15  O   UNL d   1      45.444 -14.632  44.475  0.00  0.00    -0.635 OA
ENDBRANCH   9  12
ENDBRANCH   1   7
BRANCH   2  16
ATOM     16  C   UNL d   1      46.474 -19.118  44.118  0.00  0.00     0.008 C 
BRANCH  16  17
ATOM     17  C   UNL d   1      46.326 -19.924  44.211  0.00  0.00     0.001 C 
ATOM     18  C   UNL d   1      45.853 -20.329  43.655  0.00  0.00     0.000 C 
ATOM     19  C   UNL d   1      46.647 -20.330  44.853  0.00  0.00     0.000 C 
ENDBRANCH  16  17
ENDBRANCH   2  16
TORSDOF 4
ENDMDL
MODEL 2
REMARK VINA RESULT:      18.4      3.419      5.056
REMARK  4 active torsions:
REMARK  status: ('A' for Active; 'I' for Inactive)
REMARK    1  A    between atoms: C_6  and  C_1 
REMARK    2  A    between atoms: C_13  and  C_2 
REMARK    3  A    between atoms: P_4  and  C_3 
REMARK    4  A    between atoms: C_17  and  C_13 
ROOT
ATOM      1  C   UNL d   1      45.583 -13.856  44.356  0.00  0.00     0.112 A 
ATOM      2  C   UNL d   1      45.298 -13.309  43.817  0.00  0.00     0.052 A 
ATOM      3  N   UNL d   1      46.124 -13.469  44.851  0.00  0.00    -0.217 NA
ATOM      4  C   UNL d   1      46.168 -12.679  44.611  0.00  0.00     0.215 A 
ATOM      5  S   UNL d   1      45.659 -12.582  43.975  0.00  0.00    -0.045 SA
ATOM      6  N   UNL d   1      46.647 -12.081  44.955  0.00  0.00    -0.120 N 
ENDROOT
BRANCH   1   7
ATOM      7  C   UNL d   1      45.350 -14.650  44.373  0.00  0.00     0.119 A 
ATOM      8  O   UNL d   1      45.814 -15.265  44.083  0.00  0.00    -0.297 OA
ATOM      9  C   UNL d   1      45.403 -15.973  44.194  0.00  0.00     0.191 A 
ATOM     10  C   UNL d   1      44.684 -15.794  44.554  0.00  0.00     0.036 A 
ATOM     11  C   UNL d   1      44.652 -14.979  44.664  0.00  0.00     0.029 A 
BRANCH   9  12
ATOM     12  P   UNL d   1      45.662 -16.733  43.983  0.00  0.00     0.321 P 
ATOM     13  O   UNL d   1      46.448 -16.466  44.000  0.00  0.00    -0.635 OA
ATOM     14  O   UNL d   1      44.876 -16.995  43.968  0.00  0.00    -0.635 OA
ATOM     15  O   UNL d   1      45.916 -17.493  43.774  0.00  0.00    -0.635 OA
ENDBRANCH   9  12
ENDBRANCH   1   7
BRANCH   2  16
ATOM     16  C   UNL d   1      44.745 -13.460  43.220  0.00  0.00     0.008 C 
BRANCH  16  17
ATOM     17  C   UNL d   1      44.586 -12.886  42.650  0.00  0.00     0.001 C 
ATOM     18  C   UNL d   1      43.855 -12.482  42.655  0.00  0.00     0.000 C 
ATOM     19  C   UNL d   1      45.151 -12.710  42.075  0.00  0.00     0.000 C 
ENDBRANCH  16  17
ENDBRANCH   2  16
TORSDOF 4
ENDMDL
MODEL 3
REMARK VINA RESULT:      19.6      2.764      4.480
REMARK  4 active torsions:
REMARK  status: ('A' for Active; 'I' for Inactive)
REMARK    1  A    between atoms: C_6  and  C_1 
REMARK    2  A    between atoms: C_13  and  C_2 
REMARK    3  A    between atoms: P_4  and  C_3 
REMARK    4  A    between atoms: C_17  and  C_13 
ROOT
ATOM      1  C   UNL d   1      45.003 -15.331  44.666  0.00  0.00     0.112 A 
ATOM      2  C   UNL d   1      45.214 -14.540  44.637  0.00  0.00     0.052 A 
ATOM      3  N   UNL d   1      44.184 -15.372  44.788  0.00  0.00    -0.217 NA
ATOM      4  C   UNL d   1      43.894 -14.599  44.834  0.00  0.00     0.215 A 
ATOM      5  S   UNL d   1      44.529 -14.088  44.741  0.00  0.00    -0.045 SA
ATOM      6  N   UNL d   1      43.094 -14.374  44.954  0.00  0.00    -0.120 N 
ENDROOT
BRANCH   1   7
ATOM      7  C   UNL d   1      45.541 -15.954  44.583  0.00  0.00     0.119 A 
ATOM      8  O   UNL d   1      45.413 -16.600  44.087  0.00  0.00    -0.297 OA
ATOM      9  C   UNL d   1      46.064 -17.104  44.149  0.00  0.00     0.191 A 
ATOM     10  C   UNL d   1      46.593 -16.770  44.685  0.00  0.00     0.036 A 
ATOM     11  C   UNL d   1      46.270 -16.062  44.952  0.00  0.00     0.029 A 
BRANCH   9  12
ATOM     12  P   UNL d   1      46.173 -17.822  43.747  0.00  0.00     0.321 P 
ATOM     13  O   UNL d   1      46.240 -17.407  43.031  0.00  0.00    -0.635 OA
ATOM     14  O   UNL d   1      46.106 -18.233  44.464  0.00  0.00    -0.635 OA
ATOM     15  O   UNL d   1      46.282 -18.540  43.349  0.00  0.00    -0.635 OA
ENDBRANCH   9  12
ENDBRANCH   1   7
BRANCH   2  16
ATOM     16  C   UNL d   1      45.979 -14.247  44.524  0.00  0.00     0.008 C 
BRANCH  16  17
ATOM     17  C   UNL d   1      46.093 -13.451  44.340  0.00  0.00     0.001 C 
ATOM     18  C   UNL d   1      46.258 -12.901  44.946  0.00  0.00     0.000 C 
ATOM     19  C   UNL d   1      46.044 -13.199  43.556  0.00  0.00     0.000 C 
ENDBRANCH  16  17
ENDBRANCH   2  16
TORSDOF 4
ENDMDL
