MODEL 1
REMARK VINA RESULT:      10.3      0.000      0.000
REMARK  7 active torsions:
REMARK  status: ('A' for Active; 'I' for Inactive)
REMARK    1  A    between atoms: C_11  and  C_3 
REMARK    2  A    between atoms: C_10  and  C_5 
REMARK    3  A    between atoms: O_22  and  C_13 
REMARK    4  A    between atoms: O_25  and  C_14 
REMARK    5  A    between atoms: O_24  and  C_15 
REMARK    6  A    between atoms: O_26  and  C_21 
REMARK    7  A    between atoms: C_30  and  O_26 
ROOT
ATOM      1  N   UNL d   1      32.940  21.228 -22.016  0.00  0.00    -0.208 N 
ATOM      2  N   UNL d   1      32.860  21.483 -22.794  0.00  0.00    -0.162 NA
ATOM      3  C   UNL d   1      33.050  20.476 -21.696  0.00  0.00     0.184 A 
ATOM      4  C   UNL d   1      32.894  21.884 -21.518  0.00  0.00     0.088 A 
ATOM      5  C   UNL d   1      32.763  22.308 -22.778  0.00  0.00     0.126 A 
ATOM      6  O   UNL d   1      33.113  20.380 -20.881  0.00  0.00    -0.287 OA
ATOM      7  C   UNL d   1      32.957  21.788 -20.699  0.00  0.00     0.043 A 
ATOM      8  C   UNL d   1      33.067  21.036 -20.383  0.00  0.00     0.126 A 
ATOM      9  C   UNL d   1      32.784  22.554 -21.987  0.00  0.00     0.042 A 
ATOM     10  C   UNL d   1      33.131  20.932 -19.573  0.00  0.00     0.123 A 
ATOM     11  C   UNL d   1      32.910  22.444 -20.205  0.00  0.00     0.004 A 
ATOM     12  C   UNL d   1      32.973  22.348 -19.394  0.00  0.00     0.002 A 
ATOM     13  C   UNL d   1      33.084  21.588 -19.075  0.00  0.00     0.027 A 
ENDROOT
BRANCH   3  14
ATOM     14  C   UNL d   1      33.097  19.820 -22.195  0.00  0.00     0.045 A 
ATOM     15  C   UNL d   1      33.122  19.925 -23.019  0.00  0.00     0.030 A 
ATOM     16  C   UNL d   1      33.168  19.269 -23.517  0.00  0.00     0.118 A 
ATOM     17  C   UNL d   1      33.190  18.510 -23.204  0.00  0.00     0.138 A 
ATOM     18  C   UNL d   1      33.165  18.405 -22.376  0.00  0.00     0.118 A 
ATOM     19  C   UNL d   1      33.118  19.061 -21.877  0.00  0.00     0.030 A 
BRANCH  16  20
ATOM     20  O   UNL d   1      33.193  19.376 -24.332  0.00  0.00    -0.326 OA
ATOM     21  C   UNL d   1      32.512  19.257 -24.786  0.00  0.00     0.181 C 
ENDBRANCH  16  20
BRANCH  17  22
ATOM     22  O   UNL d   1      33.236  17.854 -23.703  0.00  0.00    -0.324 OA
ATOM     23  C   UNL d   1      32.556  17.418 -23.871  0.00  0.00     0.182 C 
ENDBRANCH  17  22
BRANCH  18  24
ATOM     24  O   UNL d   1      33.186  17.646 -22.055  0.00  0.00    -0.326 OA
ATOM     25  C   UNL d   1      32.497  17.189 -22.025  0.00  0.00     0.181 C 
ENDBRANCH  18  24
ENDBRANCH   3  14
BRANCH   5  26
ATOM     26  C   UNL d   1      32.662  22.801 -23.441  0.00  0.00     0.119 A 
ATOM     27  O   UNL d   1      31.986  22.849 -23.910  0.00  0.00    -0.306 OA
ATOM     28  C   UNL d   1      32.139  23.412 -24.506  0.00  0.00     0.100 A 
ATOM     29  C   UNL d   1      31.612  23.633 -25.097  0.00  0.00     0.027 C 
ATOM     30  C   UNL d   1      32.908  23.702 -24.393  0.00  0.00     0.027 A 
ATOM     31  C   UNL d   1      33.241  23.335 -23.742  0.00  0.00     0.028 A 
ENDBRANCH   5  26
BRANCH  10  32
ATOM     32  O   UNL d   1      33.241  20.180 -19.254  0.00  0.00    -0.303 OA
BRANCH  32  33
ATOM     33  C   UNL d   1      32.935  19.993 -18.508  0.00  0.00     0.123 C 
ATOM     34  C   UNL d   1      33.241  19.360 -18.083  0.00  0.00     0.029 C 
ENDBRANCH  32  33
ENDBRANCH  10  32
TORSDOF 7
ENDMDL
