MODEL 1
REMARK VINA RESULT:      -8.3      0.000      0.000
REMARK  6 active torsions:
REMARK  status: ('A' for Active; 'I' for Inactive)
REMARK    1  A    between atoms: C_10  and  C_3 
REMARK    2  A    between atoms: S_9  and  C_4 
REMARK       I    between atoms: N_6  and  C_7 
REMARK    3  A    between atoms: C_8  and  N_6 
REMARK    4  A    between atoms: C_7  and  C_14 
REMARK    5  A    between atoms: C_14  and  S_9 
REMARK    6  A    between atoms: O_15  and  C_12 
ROOT
ATOM      1  S   UNL d   1      50.505  34.298  52.915  0.00  0.00    -0.036 SA
ENDROOT
BRANCH   1   2
ATOM      2  C   UNL d   1      49.829  34.557  52.473  0.00  0.00     0.236 A 
ATOM      3  O   UNL d   1      49.272  35.057  52.817  0.00  0.00    -0.263 OA
ATOM      4  C   UNL d   1      48.693  35.211  52.274  0.00  0.00     0.205 A 
ATOM      5  N   UNL d   1      48.887  34.805  51.580  0.00  0.00    -0.120 NA
ATOM      6  N   UNL d   1      49.579  34.406  51.703  0.00  0.00    -0.114 NA
BRANCH   4   7
ATOM      7  C   UNL d   1      48.023  35.678  52.355  0.00  0.00     0.046 A 
ATOM      8  C   UNL d   1      47.444  35.665  51.780  0.00  0.00     0.024 A 
ATOM      9  C   UNL d   1      46.759  36.145  51.866  0.00  0.00     0.099 A 
ATOM     10  N   UNL d   1      46.681  36.623  52.532  0.00  0.00    -0.242 NA
ATOM     11  C   UNL d   1      47.285  36.633  53.127  0.00  0.00     0.099 A 
ATOM     12  C   UNL d   1      47.946  36.162  53.031  0.00  0.00     0.024 A 
ENDBRANCH   4   7
ENDBRANCH   1   2
BRANCH   1  13
ATOM     13  C   UNL d   1      51.122  33.930  52.508  0.00  0.00     0.101 C 
BRANCH  13  14
ATOM     14  C   UNL d   1      51.780  33.697  52.941  0.00  0.00     0.286 C 
ATOM     15  N   UNL d   1      52.238  33.055  52.677  0.00  0.00    -0.206 NA
ATOM     16  O   UNL d   1      52.007  34.079  53.635  0.00  0.00    -0.265 OA
BRANCH  15  17
ATOM     17  C   UNL d   1      52.900  32.809  53.099  0.00  0.00     0.107 A 
ATOM     18  C   UNL d   1      53.110  31.990  53.153  0.00  0.00     0.112 A 
ATOM     19  C   UNL d   1      53.762  31.765  53.570  0.00  0.00     0.026 A 
ATOM     20  C   UNL d   1      54.245  32.310  53.957  0.00  0.00     0.002 A 
ATOM     21  C   UNL d   1      54.068  33.116  53.925  0.00  0.00     0.002 A 
ATOM     22  C   UNL d   1      53.400  33.364  53.498  0.00  0.00     0.021 A 
BRANCH  18  23
ATOM     23  O   UNL d   1      52.610  31.435  52.754  0.00  0.00    -0.327 OA
ATOM     24  C   UNL d   1      52.783  30.613  52.859  0.00  0.00     0.181 C 
ENDBRANCH  18  23
ENDBRANCH  15  17
ENDBRANCH  13  14
ENDBRANCH   1  13
TORSDOF 6
ENDMDL
MODEL 2
REMARK VINA RESULT:      -7.9      1.285      5.929
REMARK  6 active torsions:
REMARK  status: ('A' for Active; 'I' for Inactive)
REMARK    1  A    between atoms: C_10  and  C_3 
REMARK    2  A    between atoms: S_9  and  C_4 
REMARK       I    between atoms: N_6  and  C_7 
REMARK    3  A    between atoms: C_8  and  N_6 
REMARK    4  A    between atoms: C_7  and  C_14 
REMARK    5  A    between atoms: C_14  and  S_9 
REMARK    6  A    between atoms: O_15  and  C_12 
ROOT
ATOM      1  S   UNL d   1      51.292  34.047  52.548  0.00  0.00    -0.036 SA
ENDROOT
BRANCH   1   2
ATOM      2  C   UNL d   1      51.876  33.544  52.902  0.00  0.00     0.236 A 
ATOM      3  O   UNL d   1      52.508  33.869  53.319  0.00  0.00    -0.263 OA
ATOM      4  C   UNL d   1      52.973  33.266  53.592  0.00  0.00     0.205 A 
ATOM      5  N   UNL d   1      52.631  32.555  53.345  0.00  0.00    -0.120 NA
ATOM      6  N   UNL d   1      51.963  32.725  52.925  0.00  0.00    -0.114 NA
BRANCH   4   7
ATOM      7  C   UNL d   1      53.663  33.309  54.035  0.00  0.00     0.046 A 
ATOM      8  C   UNL d   1      53.635  33.557  54.812  0.00  0.00     0.024 A 
ATOM      9  C   UNL d   1      54.343  33.600  55.262  0.00  0.00     0.099 A 
ATOM     10  N   UNL d   1      55.059  33.390  54.913  0.00  0.00    -0.242 NA
ATOM     11  C   UNL d   1      55.083  33.132  54.105  0.00  0.00     0.099 A 
ATOM     12  C   UNL d   1      54.387  33.095  53.678  0.00  0.00     0.024 A 
ENDBRANCH   4   7
ENDBRANCH   1   2
BRANCH   1  13
ATOM     13  C   UNL d   1      50.571  34.146  52.939  0.00  0.00     0.101 C 
BRANCH  13  14
ATOM     14  C   UNL d   1      49.949  34.478  52.516  0.00  0.00     0.286 C 
ATOM     15  N   UNL d   1      49.341  34.871  52.924  0.00  0.00    -0.206 NA
ATOM     16  O   UNL d   1      49.906  34.436  51.695  0.00  0.00    -0.265 OA
BRANCH  15  17
ATOM     17  C   UNL d   1      48.711  35.209  52.515  0.00  0.00     0.107 A 
ATOM     18  C   UNL d   1      48.268  35.852  52.842  0.00  0.00     0.112 A 
ATOM     19  C   UNL d   1      47.654  36.172  52.429  0.00  0.00     0.026 A 
ATOM     20  C   UNL d   1      47.433  35.894  51.685  0.00  0.00     0.002 A 
ATOM     21  C   UNL d   1      47.845  35.268  51.338  0.00  0.00     0.002 A 
ATOM     22  C   UNL d   1      48.480  34.927  51.751  0.00  0.00     0.021 A 
BRANCH  18  23
ATOM     23  O   UNL d   1      48.499  36.133  53.606  0.00  0.00    -0.327 OA
ATOM     24  C   UNL d   1      47.999  36.709  53.975  0.00  0.00     0.181 C 
ENDBRANCH  18  23
ENDBRANCH  15  17
ENDBRANCH  13  14
ENDBRANCH   1  13
TORSDOF 6
ENDMDL
MODEL 3
REMARK VINA RESULT:      -5.9      9.650     10.931
REMARK  6 active torsions:
REMARK  status: ('A' for Active; 'I' for Inactive)
REMARK    1  A    between atoms: C_10  and  C_3 
REMARK    2  A    between atoms: S_9  and  C_4 
REMARK       I    between atoms: N_6  and  C_7 
REMARK    3  A    between atoms: C_8  and  N_6 
REMARK    4  A    between atoms: C_7  and  C_14 
REMARK    5  A    between atoms: C_14  and  S_9 
REMARK    6  A    between atoms: O_15  and  C_12 
ROOT
ATOM      1  S   UNL d   1      45.185  27.292  56.723  0.00  0.00    -0.036 SA
ENDROOT
BRANCH   1   2
ATOM      2  C   UNL d   1      44.971  26.472  56.705  0.00  0.00     0.236 A 
ATOM      3  O   UNL d   1      45.067  26.031  56.016  0.00  0.00    -0.263 OA
ATOM      4  C   UNL d   1      44.819  25.274  56.158  0.00  0.00     0.205 A 
ATOM      5  N   UNL d   1      44.565  25.237  56.944  0.00  0.00    -0.120 NA
ATOM      6  N   UNL d   1      44.658  25.967  57.277  0.00  0.00    -0.114 NA
BRANCH   4   7
ATOM      7  C   UNL d   1      44.806  24.632  55.645  0.00  0.00     0.046 A 
ATOM      8  C   UNL d   1      45.157  23.929  55.863  0.00  0.00     0.024 A 
ATOM      9  C   UNL d   1      45.142  23.274  55.336  0.00  0.00     0.099 A 
ATOM     10  N   UNL d   1      44.772  23.352  54.604  0.00  0.00    -0.242 NA
ATOM     11  C   UNL d   1      44.409  24.085  54.382  0.00  0.00     0.099 A 
ATOM     12  C   UNL d   1      44.431  24.714  54.904  0.00  0.00     0.024 A 
ENDBRANCH   4   7
ENDBRANCH   1   2
BRANCH   1  13
ATOM     13  C   UNL d   1      44.862  27.768  57.315  0.00  0.00     0.101 C 
BRANCH  13  14
ATOM     14  C   UNL d   1      44.925  28.583  57.227  0.00  0.00     0.286 C 
ATOM     15  N   UNL d   1      44.649  29.083  57.831  0.00  0.00    -0.206 NA
ATOM     16  O   UNL d   1      45.256  28.928  56.556  0.00  0.00    -0.265 OA
BRANCH  15  17
ATOM     17  C   UNL d   1      44.705  29.901  57.759  0.00  0.00     0.107 A 
ATOM     18  C   UNL d   1      44.877  30.392  58.426  0.00  0.00     0.112 A 
ATOM     19  C   UNL d   1      44.929  31.192  58.339  0.00  0.00     0.026 A 
ATOM     20  C   UNL d   1      44.819  31.561  57.610  0.00  0.00     0.002 A 
ATOM     21  C   UNL d   1      44.651  31.111  56.939  0.00  0.00     0.002 A 
ATOM     22  C   UNL d   1      44.594  30.286  57.012  0.00  0.00     0.021 A 
BRANCH  18  23
ATOM     23  O   UNL d   1      44.988  30.007  59.173  0.00  0.00    -0.327 OA
ATOM     24  C   UNL d   1      45.014  30.499  59.862  0.00  0.00     0.181 C 
ENDBRANCH  18  23
ENDBRANCH  15  17
ENDBRANCH  13  14
ENDBRANCH   1  13
TORSDOF 6
ENDMDL
MODEL 4
REMARK VINA RESULT:      -5.6      9.973     10.636
REMARK  6 active torsions:
REMARK  status: ('A' for Active; 'I' for Inactive)
REMARK    1  A    between atoms: C_10  and  C_3 
REMARK    2  A    between atoms: S_9  and  C_4 
REMARK       I    between atoms: N_6  and  C_7 
REMARK    3  A    between atoms: C_8  and  N_6 
REMARK    4  A    between atoms: C_7  and  C_14 
REMARK    5  A    between atoms: C_14  and  S_9 
REMARK    6  A    between atoms: O_15  and  C_12 
ROOT
ATOM      1  S   UNL d   1      45.349  27.104  57.086  0.00  0.00    -0.036 SA
ENDROOT
BRANCH   1   2
ATOM      2  C   UNL d   1      45.243  27.746  57.629  0.00  0.00     0.236 A 
ATOM      3  O   UNL d   1      45.158  28.517  57.353  0.00  0.00    -0.263 OA
ATOM      4  C   UNL d   1      45.067  29.010  57.988  0.00  0.00     0.205 A 
ATOM      5  N   UNL d   1      45.095  28.546  58.671  0.00  0.00    -0.120 NA
ATOM      6  N   UNL d   1      45.202  27.776  58.452  0.00  0.00    -0.114 NA
BRANCH   4   7
ATOM      7  C   UNL d   1      44.963  29.825  57.996  0.00  0.00     0.046 A 
ATOM      8  C   UNL d   1      44.696  30.209  57.327  0.00  0.00     0.024 A 
ATOM      9  C   UNL d   1      44.591  31.042  57.339  0.00  0.00     0.099 A 
ATOM     10  N   UNL d   1      44.759  31.463  58.027  0.00  0.00    -0.242 NA
ATOM     11  C   UNL d   1      45.037  31.059  58.720  0.00  0.00     0.099 A 
ATOM     12  C   UNL d   1      45.135  30.247  58.695  0.00  0.00     0.024 A 
ENDBRANCH   4   7
ENDBRANCH   1   2
BRANCH   1  13
ATOM     13  C   UNL d   1      44.832  26.462  57.131  0.00  0.00     0.101 C 
BRANCH  13  14
ATOM     14  C   UNL d   1      44.938  25.847  56.596  0.00  0.00     0.286 C 
ATOM     15  N   UNL d   1      44.573  25.114  56.738  0.00  0.00    -0.206 NA
ATOM     16  O   UNL d   1      45.398  25.930  55.918  0.00  0.00    -0.265 OA
BRANCH  15  17
ATOM     17  C   UNL d   1      44.669  24.488  56.213  0.00  0.00     0.107 A 
ATOM     18  C   UNL d   1      44.748  23.690  56.487  0.00  0.00     0.112 A 
ATOM     19  C   UNL d   1      44.842  23.087  55.960  0.00  0.00     0.026 A 
ATOM     20  C   UNL d   1      44.865  23.217  55.146  0.00  0.00     0.002 A 
ATOM     21  C   UNL d   1      44.792  23.982  54.845  0.00  0.00     0.002 A 
ATOM     22  C   UNL d   1      44.695  24.615  55.376  0.00  0.00     0.021 A 
BRANCH  18  23
ATOM     23  O   UNL d   1      44.722  23.564  57.324  0.00  0.00    -0.327 OA
ATOM     24  C   UNL d   1      44.765  22.763  57.596  0.00  0.00     0.181 C 
ENDBRANCH  18  23
ENDBRANCH  15  17
ENDBRANCH  13  14
ENDBRANCH   1  13
TORSDOF 6
ENDMDL
