MODEL 1
REMARK VINA RESULT:      61.6      0.000      0.000
REMARK  5 active torsions:
REMARK  status: ('A' for Active; 'I' for Inactive)
REMARK    1  A    between atoms: C_6  and  N_1 
REMARK    2  A    between atoms: C_13  and  C_6 
REMARK    3  A    between atoms: O_11  and  C_7 
REMARK    4  A    between atoms: O_19  and  C_8 
REMARK    5  A    between atoms: C_20  and  O_11 
ROOT
ATOM      1  C   UNL d   1     -52.082  24.242  33.364  0.00  0.00     0.122 A 
ATOM      2  C   UNL d   1     -51.277  24.111  33.477  0.00  0.00     0.117 A 
ATOM      3  C   UNL d   1     -50.756  24.749  33.532  0.00  0.00     0.028 A 
ATOM      4  C   UNL d   1     -51.051  25.515  33.474  0.00  0.00     0.020 A 
ATOM      5  C   UNL d   1     -52.366  25.014  33.307  0.00  0.00     0.027 A 
ATOM      6  C   UNL d   1     -51.849  25.644  33.363  0.00  0.00     0.004 A 
ENDROOT
BRANCH   4   7
ATOM      7  C   UNL d   1     -50.527  26.149  33.530  0.00  0.00     0.085 C 
BRANCH   7   8
ATOM      8  N   UNL d   1     -50.480  26.581  34.231  0.00  0.00    -0.251 N 
ATOM      9  C   UNL d   1     -51.022  26.610  34.865  0.00  0.00     0.378 A 
ATOM     10  O   UNL d   1     -50.721  27.126  35.438  0.00  0.00    -0.258 OA
ATOM     11  O   UNL d   1     -51.731  26.193  34.907  0.00  0.00    -0.237 OA
ATOM     12  C   UNL d   1     -49.996  27.417  35.161  0.00  0.00     0.121 A 
ATOM     13  C   UNL d   1     -49.847  27.081  34.416  0.00  0.00     0.092 A 
ATOM     14  C   UNL d   1     -49.446  27.945  35.484  0.00  0.00     0.026 A 
ATOM     15  C   UNL d   1     -49.163  27.269  34.003  0.00  0.00     0.020 A 
ATOM     16  C   UNL d   1     -48.621  27.795  34.333  0.00  0.00     0.002 A 
ATOM     17  C   UNL d   1     -48.762  28.132  35.071  0.00  0.00     0.002 A 
ATOM     18  C   UNL d   1     -47.933  27.981  33.912  0.00  0.00     0.000 C 
ENDBRANCH   7   8
ENDBRANCH   4   7
BRANCH   2  19
ATOM     19  O   UNL d   1     -50.986  23.349  33.534  0.00  0.00    -0.326 OA
ATOM     20  C   UNL d   1     -50.206  23.196  33.306  0.00  0.00     0.181 C 
ENDBRANCH   2  19
BRANCH   1  21
ATOM     21  O   UNL d   1     -52.603  23.609  33.309  0.00  0.00    -0.305 OA
BRANCH  21  22
ATOM     22  C   UNL d   1     -53.325  23.640  33.695  0.00  0.00     0.100 C 
ATOM     23  C   UNL d   1     -53.421  23.268  34.417  0.00  0.00     0.027 C 
ATOM     24  C   UNL d   1     -53.957  24.047  33.354  0.00  0.00     0.027 C 
ENDBRANCH  21  22
ENDBRANCH   1  21
TORSDOF 5
ENDMDL
MODEL 2
REMARK VINA RESULT:      63.1      1.393      4.324
REMARK  5 active torsions:
REMARK  status: ('A' for Active; 'I' for Inactive)
REMARK    1  A    between atoms: C_6  and  N_1 
REMARK    2  A    between atoms: C_13  and  C_6 
REMARK    3  A    between atoms: O_11  and  C_7 
REMARK    4  A    between atoms: O_19  and  C_8 
REMARK    5  A    between atoms: C_20  and  O_11 
ROOT
ATOM      1  C   UNL d   1     -50.532  27.002  36.177  0.00  0.00     0.122 A 
ATOM      2  C   UNL d   1     -49.965  27.131  35.594  0.00  0.00     0.117 A 
ATOM      3  C   UNL d   1     -50.095  26.869  34.822  0.00  0.00     0.028 A 
ATOM      4  C   UNL d   1     -50.797  26.478  34.643  0.00  0.00     0.020 A 
ATOM      5  C   UNL d   1     -51.232  26.610  35.986  0.00  0.00     0.027 A 
ATOM      6  C   UNL d   1     -51.359  26.351  35.222  0.00  0.00     0.004 A 
ENDROOT
BRANCH   4   7
ATOM      7  C   UNL d   1     -50.923  26.217  33.871  0.00  0.00     0.085 C 
BRANCH   7   8
ATOM      8  N   UNL d   1     -50.748  25.438  33.668  0.00  0.00    -0.251 N 
ATOM      9  C   UNL d   1     -50.009  25.102  33.470  0.00  0.00     0.378 A 
ATOM     10  O   UNL d   1     -50.126  24.298  33.310  0.00  0.00    -0.258 OA
ATOM     11  O   UNL d   1     -49.293  25.507  33.440  0.00  0.00    -0.237 OA
ATOM     12  C   UNL d   1     -50.933  24.135  33.408  0.00  0.00     0.121 A 
ATOM     13  C   UNL d   1     -51.317  24.838  33.629  0.00  0.00     0.092 A 
ATOM     14  C   UNL d   1     -51.376  23.440  33.328  0.00  0.00     0.026 A 
ATOM     15  C   UNL d   1     -52.126  24.847  33.767  0.00  0.00     0.020 A 
ATOM     16  C   UNL d   1     -52.559  24.150  33.683  0.00  0.00     0.002 A 
ATOM     17  C   UNL d   1     -52.185  23.449  33.465  0.00  0.00     0.002 A 
ATOM     18  C   UNL d   1     -53.375  24.163  33.823  0.00  0.00     0.000 C 
ENDBRANCH   7   8
ENDBRANCH   4   7
BRANCH   2  19
ATOM     19  O   UNL d   1     -49.268  27.519  35.773  0.00  0.00    -0.326 OA
ATOM     20  C   UNL d   1     -49.040  28.172  35.319  0.00  0.00     0.181 C 
ENDBRANCH   2  19
BRANCH   1  21
ATOM     21  O   UNL d   1     -50.405  27.262  36.946  0.00  0.00    -0.305 OA
BRANCH  21  22
ATOM     22  C   UNL d   1     -50.907  27.020  37.546  0.00  0.00     0.100 C 
ATOM     23  C   UNL d   1     -51.505  26.484  37.391  0.00  0.00     0.027 C 
ATOM     24  C   UNL d   1     -50.809  27.319  38.310  0.00  0.00     0.027 C 
ENDBRANCH  21  22
ENDBRANCH   1  21
TORSDOF 5
ENDMDL
