MODEL 1
REMARK VINA RESULT:      -5.1      0.000      0.000
REMARK  4 active torsions:
REMARK  status: ('A' for Active; 'I' for Inactive)
REMARK    1  A    between atoms: C_5  and  N_1 
REMARK    2  A    between atoms: C_6  and  C_5 
REMARK       I    between atoms: N_9  and  C_6 
REMARK    3  A    between atoms: C_13  and  N_9 
REMARK    4  A    between atoms: O_19  and  C_14 
ROOT
ATOM      1  C   UNL d   1     -41.529-122.458 -52.181  0.00  0.00     0.297 C 
ATOM      2  N   UNL d   1     -41.193-122.231 -51.462  0.00  0.00    -0.207 NA
ATOM      3  O   UNL d   1     -42.219-122.912 -52.188  0.00  0.00    -0.264 OA
ENDROOT
BRANCH   1   4
ATOM      4  C   UNL d   1     -41.179-122.234 -52.888  0.00  0.00     0.148 C 
BRANCH   4   5
ATOM      5  N   UNL d   1     -41.514-122.464 -53.607  0.00  0.00    -0.235 N 
ATOM      6  C   UNL d   1     -41.878-121.894 -54.094  0.00  0.00     0.273 A 
ATOM      7  C   UNL d   1     -42.212-122.124 -54.812  0.00  0.00     0.086 A 
ATOM      8  O   UNL d   1     -41.900-121.100 -53.853  0.00  0.00    -0.266 OA
ATOM      9  C   UNL d   1     -42.575-121.564 -55.302  0.00  0.00     0.012 C 
ATOM     10  S   UNL d   1     -42.183-122.924 -55.044  0.00  0.00    -0.077 SA
ATOM     11  C   UNL d   1     -41.824-123.477 -54.560  0.00  0.00     0.097 A 
ATOM     12  C   UNL d   1     -41.490-123.247 -53.842  0.00  0.00     0.274 A 
ATOM     13  O   UNL d   1     -41.123-123.815 -53.346  0.00  0.00    -0.266 OA
ENDBRANCH   4   5
ENDBRANCH   1   4
BRANCH   2  14
ATOM     14  C   UNL d   1     -41.547-122.458 -50.752  0.00  0.00     0.085 A 
ATOM     15  C   UNL d   1     -41.213-123.051 -50.302  0.00  0.00     0.021 A 
ATOM     16  C   UNL d   1     -41.553-123.280 -49.603  0.00  0.00     0.026 A 
ATOM     17  C   UNL d   1     -42.250-122.906 -49.342  0.00  0.00     0.094 A 
ATOM     18  C   UNL d   1     -42.584-122.313 -49.792  0.00  0.00     0.026 A 
ATOM     19  C   UNL d   1     -42.224-122.087 -50.508  0.00  0.00     0.021 A 
BRANCH  17  20
ATOM     20  O   UNL d   1     -42.601-123.143 -48.620  0.00  0.00    -0.328 OA
ATOM     21  C   UNL d   1     -43.224-123.684 -48.612  0.00  0.00     0.181 C 
ENDBRANCH  17  20
ENDBRANCH   2  14
TORSDOF 4
ENDMDL
MODEL 2
REMARK VINA RESULT:      -4.0      1.650      4.404
REMARK  4 active torsions:
REMARK  status: ('A' for Active; 'I' for Inactive)
REMARK    1  A    between atoms: C_5  and  N_1 
REMARK    2  A    between atoms: C_6  and  C_5 
REMARK       I    between atoms: N_9  and  C_6 
REMARK    3  A    between atoms: C_13  and  N_9 
REMARK    4  A    between atoms: O_19  and  C_14 
ROOT
ATOM      1  C   UNL d   1     -41.697-122.375 -51.920  0.00  0.00     0.297 C 
ATOM      2  N   UNL d   1     -41.318-121.934 -52.505  0.00  0.00    -0.207 NA
ATOM      3  O   UNL d   1     -42.267-122.934 -52.131  0.00  0.00    -0.264 OA
ENDROOT
BRANCH   1   4
ATOM      4  C   UNL d   1     -41.509-122.260 -51.130  0.00  0.00     0.148 C 
BRANCH   4   5
ATOM      5  N   UNL d   1     -41.934-122.653 -50.542  0.00  0.00    -0.235 N 
ATOM      6  C   UNL d   1     -42.555-122.260 -50.148  0.00  0.00     0.273 A 
ATOM      7  C   UNL d   1     -42.980-122.652 -49.561  0.00  0.00     0.086 A 
ATOM      8  O   UNL d   1     -42.740-121.476 -50.352  0.00  0.00    -0.266 OA
ATOM      9  C   UNL d   1     -43.598-122.268 -49.166  0.00  0.00     0.012 C 
ATOM     10  S   UNL d   1     -42.785-123.439 -49.365  0.00  0.00    -0.077 SA
ATOM     11  C   UNL d   1     -42.175-123.817 -49.756  0.00  0.00     0.097 A 
ATOM     12  C   UNL d   1     -41.750-123.425 -50.344  0.00  0.00     0.274 A 
ATOM     13  O   UNL d   1     -41.124-123.814 -50.743  0.00  0.00    -0.266 OA
ENDBRANCH   4   5
ENDBRANCH   1   4
BRANCH   2  14
ATOM     14  C   UNL d   1     -41.508-122.051 -53.299  0.00  0.00     0.085 A 
ATOM     15  C   UNL d   1     -42.023-121.541 -53.674  0.00  0.00     0.021 A 
ATOM     16  C   UNL d   1     -42.216-121.649 -54.453  0.00  0.00     0.026 A 
ATOM     17  C   UNL d   1     -41.885-122.286 -54.876  0.00  0.00     0.094 A 
ATOM     18  C   UNL d   1     -41.370-122.796 -54.501  0.00  0.00     0.026 A 
ATOM     19  C   UNL d   1     -41.180-122.674 -53.699  0.00  0.00     0.021 A 
BRANCH  17  20
ATOM     20  O   UNL d   1     -42.085-122.397 -55.682  0.00  0.00    -0.328 OA
ATOM     21  C   UNL d   1     -42.849-122.241 -55.951  0.00  0.00     0.181 C 
ENDBRANCH  17  20
ENDBRANCH   2  14
TORSDOF 4
ENDMDL
MODEL 3
REMARK VINA RESULT:      -3.8      1.813      4.630
REMARK  4 active torsions:
REMARK  status: ('A' for Active; 'I' for Inactive)
REMARK    1  A    between atoms: C_5  and  N_1 
REMARK    2  A    between atoms: C_6  and  C_5 
REMARK       I    between atoms: N_9  and  C_6 
REMARK    3  A    between atoms: C_13  and  N_9 
REMARK    4  A    between atoms: O_19  and  C_14 
ROOT
ATOM      1  C   UNL d   1     -42.156-122.369 -50.969  0.00  0.00     0.297 C 
ATOM      2  N   UNL d   1     -41.556-122.053 -51.439  0.00  0.00    -0.207 NA
ATOM      3  O   UNL d   1     -42.693-122.906 -51.292  0.00  0.00    -0.264 OA
ENDROOT
BRANCH   1   4
ATOM      4  C   UNL d   1     -42.221-122.149 -50.181  0.00  0.00     0.148 C 
BRANCH   4   5
ATOM      5  N   UNL d   1     -42.456-122.702 -49.615  0.00  0.00    -0.235 N 
ATOM      6  C   UNL d   1     -41.904-122.982 -49.057  0.00  0.00     0.273 A 
ATOM      7  C   UNL d   1     -42.140-123.535 -48.491  0.00  0.00     0.086 A 
ATOM      8  O   UNL d   1     -41.123-122.703 -49.074  0.00  0.00    -0.266 OA
ATOM      9  C   UNL d   1     -41.597-123.817 -47.933  0.00  0.00     0.012 C 
ATOM     10  S   UNL d   1     -42.927-123.808 -48.483  0.00  0.00    -0.077 SA
ATOM     11  C   UNL d   1     -43.462-123.528 -49.035  0.00  0.00     0.097 A 
ATOM     12  C   UNL d   1     -43.227-122.975 -49.600  0.00  0.00     0.274 A 
ATOM     13  O   UNL d   1     -43.776-122.689 -50.165  0.00  0.00    -0.266 OA
ENDBRANCH   4   5
ENDBRANCH   1   4
BRANCH   2  14
ATOM     14  C   UNL d   1     -41.494-122.275 -52.231  0.00  0.00     0.085 A 
ATOM     15  C   UNL d   1     -41.738-121.764 -52.818  0.00  0.00     0.021 A 
ATOM     16  C   UNL d   1     -41.681-121.973 -53.599  0.00  0.00     0.026 A 
ATOM     17  C   UNL d   1     -41.368-122.718 -53.804  0.00  0.00     0.094 A 
ATOM     18  C   UNL d   1     -41.123-123.229 -53.217  0.00  0.00     0.026 A 
ATOM     19  C   UNL d   1     -41.188-123.001 -52.418  0.00  0.00     0.021 A 
BRANCH  17  20
ATOM     20  O   UNL d   1     -41.308-122.934 -54.610  0.00  0.00    -0.328 OA
ATOM     21  C   UNL d   1     -41.977-123.161 -55.036  0.00  0.00     0.181 C 
ENDBRANCH  17  20
ENDBRANCH   2  14
TORSDOF 4
ENDMDL
MODEL 4
REMARK VINA RESULT:      -2.8      0.977      1.773
REMARK  4 active torsions:
REMARK  status: ('A' for Active; 'I' for Inactive)
REMARK    1  A    between atoms: C_5  and  N_1 
REMARK    2  A    between atoms: C_6  and  C_5 
REMARK       I    between atoms: N_9  and  C_6 
REMARK    3  A    between atoms: C_13  and  N_9 
REMARK    4  A    between atoms: O_19  and  C_14 
ROOT
ATOM      1  C   UNL d   1     -41.565-122.671 -51.089  0.00  0.00     0.297 C 
ATOM      2  N   UNL d   1     -41.200-122.734 -50.352  0.00  0.00    -0.207 NA
ATOM      3  O   UNL d   1     -42.364-122.860 -51.171  0.00  0.00    -0.264 OA
ENDROOT
BRANCH   1   4
ATOM      4  C   UNL d   1     -41.135-122.422 -51.742  0.00  0.00     0.148 C 
BRANCH   4   5
ATOM      5  N   UNL d   1     -41.499-122.362 -52.480  0.00  0.00    -0.235 N 
ATOM      6  C   UNL d   1     -41.535-123.028 -52.979  0.00  0.00     0.273 A 
ATOM      7  C   UNL d   1     -41.899-122.968 -53.717  0.00  0.00     0.086 A 
ATOM      8  O   UNL d   1     -41.203-123.748 -52.729  0.00  0.00    -0.266 OA
ATOM      9  C   UNL d   1     -41.938-123.626 -54.217  0.00  0.00     0.012 C 
ATOM     10  S   UNL d   1     -42.228-122.241 -53.957  0.00  0.00    -0.077 SA
ATOM     11  C   UNL d   1     -42.189-121.592 -53.461  0.00  0.00     0.097 A 
ATOM     12  C   UNL d   1     -41.825-121.652 -52.723  0.00  0.00     0.274 A 
ATOM     13  O   UNL d   1     -41.785-120.985 -52.217  0.00  0.00    -0.266 OA
ENDBRANCH   4   5
ENDBRANCH   1   4
BRANCH   2  14
ATOM     14  C   UNL d   1     -41.635-122.985 -49.697  0.00  0.00     0.085 A 
ATOM     15  C   UNL d   1     -42.373-122.669 -49.553  0.00  0.00     0.021 A 
ATOM     16  C   UNL d   1     -42.807-122.909 -48.912  0.00  0.00     0.026 A 
ATOM     17  C   UNL d   1     -42.496-123.485 -48.396  0.00  0.00     0.094 A 
ATOM     18  C   UNL d   1     -41.757-123.801 -48.540  0.00  0.00     0.026 A 
ATOM     19  C   UNL d   1     -41.322-123.545 -49.203  0.00  0.00     0.021 A 
BRANCH  17  20
ATOM     20  O   UNL d   1     -42.945-123.733 -47.734  0.00  0.00    -0.328 OA
ATOM     21  C   UNL d   1     -42.812-123.405 -46.989  0.00  0.00     0.181 C 
ENDBRANCH  17  20
ENDBRANCH   2  14
TORSDOF 4
ENDMDL
