MODEL 1
REMARK VINA RESULT:      37.5      0.000      0.000
REMARK  7 active torsions:
REMARK  status: ('A' for Active; 'I' for Inactive)
REMARK    1  A    between atoms: N_7  and  C_1 
REMARK    2  A    between atoms: N_8  and  C_4 
REMARK    3  A    between atoms: N_9  and  C_5 
REMARK    4  A    between atoms: C_14  and  N_8 
REMARK    5  A    between atoms: C_13  and  N_9 
REMARK    6  A    between atoms: C_20  and  C_14 
REMARK    7  A    between atoms: O_21  and  C_15 
ROOT
ATOM      1  C   UNL d   1      13.410  13.032  -4.814  0.00  0.00     0.201 A 
ATOM      2  N   UNL d   1      13.219  13.031  -3.433  0.00  0.00    -0.038 NA
ATOM      3  N   UNL d   1      13.089  11.788  -4.151  0.00  0.00    -0.036 NA
ATOM      4  C   UNL d   1      13.391  13.458  -4.108  0.00  0.00     0.206 A 
ATOM      5  C   UNL d   1      13.067  12.193  -3.455  0.00  0.00     0.753 A 
ATOM      6  C   UNL d   1      13.258  12.194  -4.836  0.00  0.00     0.227 A 
ATOM      7  N   UNL d   1      13.280  11.784  -5.547  0.00  0.00    -0.125 N 
ENDROOT
BRANCH   5   8
ATOM      8  N   UNL d   1      12.897  11.781  -2.771  0.00  0.00    -0.059 NA
BRANCH   8   9
ATOM      9  C   UNL d   1      13.407  11.843  -2.092  0.00  0.00     0.100 A 
ATOM     10  C   UNL d   1      13.090  11.867  -1.324  0.00  0.00     0.022 A 
ATOM     11  C   UNL d   1      13.590  11.929  -0.650  0.00  0.00     0.026 A 
ATOM     12  C   UNL d   1      14.414  11.968  -0.725  0.00  0.00     0.094 A 
ATOM     13  C   UNL d   1      14.721  11.944  -1.490  0.00  0.00     0.026 A 
ATOM     14  C   UNL d   1      14.214  11.881  -2.173  0.00  0.00     0.022 A 
BRANCH  12  15
ATOM     15  O   UNL d   1      14.918  12.030  -0.046  0.00  0.00    -0.328 OA
ATOM     16  C   UNL d   1      15.524  12.581  -0.018  0.00  0.00     0.181 C 
ENDBRANCH  12  15
ENDBRANCH   8   9
ENDBRANCH   5   8
BRANCH   4  17
ATOM     17  N   UNL d   1      13.538  14.265  -4.092  0.00  0.00    -0.223 NA
BRANCH  17  18
ATOM     18  C   UNL d   1      13.582  14.653  -3.370  0.00  0.00     0.101 C 
BRANCH  18  19
ATOM     19  C   UNL d   1      14.045  15.326  -3.296  0.00  0.00     0.019 A 
ATOM     20  C   UNL d   1      14.194  15.799  -3.953  0.00  0.00     0.002 A 
ATOM     21  C   UNL d   1      14.652  16.463  -3.880  0.00  0.00     0.000 A 
ATOM     22  C   UNL d   1      14.970  16.667  -3.149  0.00  0.00     0.000 A 
ATOM     23  C   UNL d   1      14.827  16.203  -2.491  0.00  0.00     0.000 A 
ATOM     24  C   UNL d   1      14.357  15.522  -2.566  0.00  0.00     0.002 A 
ENDBRANCH  18  19
ENDBRANCH  17  18
ENDBRANCH   4  17
BRANCH   1  25
ATOM     25  N   UNL d   1      13.586  13.459  -5.518  0.00  0.00    -0.107 N 
ATOM     26  O   UNL d   1      13.121  14.128  -5.676  0.00  0.00    -0.531 OA
ATOM     27  O   UNL d   1      14.217  13.207  -6.041  0.00  0.00    -0.531 OA
ENDBRANCH   1  25
TORSDOF 7
ENDMDL
