MODEL 1
REMARK VINA RESULT:      64.0      0.000      0.000
REMARK  4 active torsions:
REMARK  status: ('A' for Active; 'I' for Inactive)
REMARK    1  A    between atoms: C_13  and  N_5 
REMARK    2  A    between atoms: C_14  and  C_6 
REMARK    3  A    between atoms: C_21  and  C_13 
REMARK    4  A    between atoms: O_25  and  C_20 
ROOT
ATOM      1  C   UNL d   1      13.526  12.985  -3.109  0.00  0.00     0.080 A 
ATOM      2  C   UNL d   1      13.697  13.395  -2.405  0.00  0.00     0.267 A 
ATOM      3  C   UNL d   1      13.324  12.186  -3.088  0.00  0.00     0.108 A 
ATOM      4  C   UNL d   1      13.393  12.989  -4.537  0.00  0.00     0.111 A 
ATOM      5  N   UNL d   1      13.659  12.981  -1.686  0.00  0.00    -0.273 N 
ATOM      6  C   UNL d   1      13.562  13.390  -3.827  0.00  0.00     0.020 A 
ATOM      7  C   UNL d   1      13.189  12.181  -4.511  0.00  0.00     0.213 A 
ATOM      8  C   UNL d   1      13.289  11.783  -2.371  0.00  0.00     0.043 A 
ATOM      9  O   UNL d   1      13.156  11.787  -3.790  0.00  0.00    -0.287 OA
ATOM     10  C   UNL d   1      13.456  12.182  -1.670  0.00  0.00     0.069 A 
ATOM     11  C   UNL d   1      13.425  13.383  -5.258  0.00  0.00     0.105 C 
ATOM     12  N   UNL d   1      13.462  13.793  -5.976  0.00  0.00    -0.191 NA
ATOM     13  O   UNL d   1      13.900  14.195  -2.422  0.00  0.00    -0.267 OA
ATOM     14  N   UNL d   1      13.020  11.780  -5.213  0.00  0.00    -0.120 N 
ATOM     15  C   UNL d   1      13.422  11.779  -0.943  0.00  0.00     0.019 C 
ENDROOT
BRANCH   6  16
ATOM     16  C   UNL d   1      13.764  14.191  -3.852  0.00  0.00     0.001 A 
ATOM     17  C   UNL d   1      13.181  14.768  -3.805  0.00  0.00     0.002 A 
ATOM     18  C   UNL d   1      13.387  15.566  -3.830  0.00  0.00     0.024 A 
ATOM     19  C   UNL d   1      14.178  15.782  -3.902  0.00  0.00     0.094 A 
ATOM     20  C   UNL d   1      14.772  15.198  -3.950  0.00  0.00     0.024 A 
ATOM     21  C   UNL d   1      14.554  14.403  -3.924  0.00  0.00     0.002 A 
BRANCH  19  22
ATOM     22  O   UNL d   1      14.388  16.580  -3.928  0.00  0.00    -0.328 OA
ATOM     23  C   UNL d   1      15.180  16.797  -3.994  0.00  0.00     0.181 C 
ENDBRANCH  19  22
ENDBRANCH   6  16
BRANCH   5  24
ATOM     24  C   UNL d   1      13.828  13.382  -0.977  0.00  0.00     0.083 C 
BRANCH  24  25
ATOM     25  C   UNL d   1      14.593  13.375  -0.656  0.00  0.00     0.021 A 
ATOM     26  C   UNL d   1      15.000  12.667  -0.552  0.00  0.00     0.022 A 
ATOM     27  C   UNL d   1      15.759  12.674  -0.232  0.00  0.00     0.099 A 
ATOM     28  N   UNL d   1      16.112  13.383  -0.016  0.00  0.00    -0.242 NA
ATOM     29  C   UNL d   1      15.703  14.096  -0.120  0.00  0.00     0.099 A 
ATOM     30  C   UNL d   1      14.945  14.090  -0.440  0.00  0.00     0.022 A 
ENDBRANCH  24  25
ENDBRANCH   5  24
TORSDOF 4
ENDMDL
