MODEL 1
REMARK VINA RESULT:      -6.1      0.000      0.000
REMARK  3 active torsions:
REMARK  status: ('A' for Active; 'I' for Inactive)
REMARK    1  A    between atoms: O_10  and  C_9 
REMARK    2  A    between atoms: C_13  and  O_10 
REMARK    3  A    between atoms: C_12  and  C_13 
ROOT
ATOM      1  C   UNL d   1     -42.181-122.939 -50.397  0.00  0.00     0.066 A 
ATOM      2  O   UNL d   1     -41.730-123.812 -49.489  0.00  0.00    -0.302 OA
ATOM      3  C   UNL d   1     -42.615-122.833 -49.701  0.00  0.00     0.222 A 
ATOM      4  C   UNL d   1     -41.637-123.544 -50.261  0.00  0.00     0.103 A 
ATOM      5  C   UNL d   1     -42.204-122.572 -51.128  0.00  0.00     0.030 A 
ATOM      6  C   UNL d   1     -42.336-123.372 -49.143  0.00  0.00     0.165 A 
ATOM      7  O   UNL d   1     -43.222-122.280 -49.593  0.00  0.00    -0.284 OA
ATOM      8  C   UNL d   1     -41.123-123.776 -50.855  0.00  0.00     0.027 A 
ATOM      9  C   UNL d   1     -41.686-122.807 -51.726  0.00  0.00     0.100 A 
ATOM     10  C   UNL d   1     -41.143-123.413 -51.586  0.00  0.00     0.027 A 
ENDROOT
BRANCH   9  11
ATOM     11  O   UNL d   1     -41.712-122.434 -52.467  0.00  0.00    -0.305 OA
BRANCH  11  12
ATOM     12  C   UNL d   1     -41.476-122.840 -53.144  0.00  0.00     0.122 C 
BRANCH  12  13
ATOM     13  C   UNL d   1     -41.674-122.534 -53.888  0.00  0.00     0.025 A 
ATOM     14  C   UNL d   1     -41.282-122.817 -54.559  0.00  0.00     0.004 A 
ATOM     15  C   UNL d   1     -41.475-122.516 -55.299  0.00  0.00     0.030 A 
ATOM     16  C   UNL d   1     -42.062-121.929 -55.369  0.00  0.00     0.140 A 
ATOM     17  C   UNL d   1     -42.449-121.652 -54.697  0.00  0.00     0.030 A 
ATOM     18  F   UNL d   1     -42.252-121.631 -56.113  0.00  0.00    -0.204 F 
ATOM     19  C   UNL d   1     -42.256-121.953 -53.957  0.00  0.00     0.004 A 
ENDBRANCH  12  13
ENDBRANCH  11  12
ENDBRANCH   9  11
TORSDOF 3
ENDMDL
MODEL 2
REMARK VINA RESULT:      -4.9      1.175      1.740
REMARK  3 active torsions:
REMARK  status: ('A' for Active; 'I' for Inactive)
REMARK    1  A    between atoms: O_10  and  C_9 
REMARK    2  A    between atoms: C_13  and  O_10 
REMARK    3  A    between atoms: C_12  and  C_13 
ROOT
ATOM      1  C   UNL d   1     -42.632-123.684 -49.230  0.00  0.00     0.066 A 
ATOM      2  O   UNL d   1     -42.100-123.746 -48.004  0.00  0.00    -0.302 OA
ATOM      3  C   UNL d   1     -43.251-123.720 -48.683  0.00  0.00     0.222 A 
ATOM      4  C   UNL d   1     -41.924-123.700 -48.807  0.00  0.00     0.103 A 
ATOM      5  C   UNL d   1     -42.613-123.638 -50.047  0.00  0.00     0.030 A 
ATOM      6  C   UNL d   1     -42.922-123.759 -47.929  0.00  0.00     0.165 A 
ATOM      7  O   UNL d   1     -44.058-123.718 -48.870  0.00  0.00    -0.284 OA
ATOM      8  C   UNL d   1     -41.207-123.671 -49.202  0.00  0.00     0.027 A 
ATOM      9  C   UNL d   1     -41.891-123.609 -50.443  0.00  0.00     0.100 A 
ATOM     10  C   UNL d   1     -41.185-123.625 -50.017  0.00  0.00     0.027 A 
ENDROOT
BRANCH   9  11
ATOM     11  O   UNL d   1     -41.874-123.563 -51.272  0.00  0.00    -0.305 OA
BRANCH  11  12
ATOM     12  C   UNL d   1     -41.207-123.272 -51.658  0.00  0.00     0.122 C 
BRANCH  12  13
ATOM     13  C   UNL d   1     -41.230-123.167 -52.480  0.00  0.00     0.025 A 
ATOM     14  C   UNL d   1     -41.313-122.404 -52.788  0.00  0.00     0.004 A 
ATOM     15  C   UNL d   1     -41.336-122.295 -53.602  0.00  0.00     0.030 A 
ATOM     16  C   UNL d   1     -41.276-122.951 -54.111  0.00  0.00     0.140 A 
ATOM     17  C   UNL d   1     -41.193-123.709 -53.799  0.00  0.00     0.030 A 
ATOM     18  F   UNL d   1     -41.299-122.836 -54.927  0.00  0.00    -0.204 F 
ATOM     19  C   UNL d   1     -41.170-123.817 -52.985  0.00  0.00     0.004 A 
ENDBRANCH  12  13
ENDBRANCH  11  12
ENDBRANCH   9  11
TORSDOF 3
ENDMDL
