MODEL 1
REMARK VINA RESULT:      -3.6      0.000      0.000
REMARK  2 active torsions:
REMARK  status: ('A' for Active; 'I' for Inactive)
REMARK    1  A    between atoms: C_4  and  N_1 
REMARK    2  A    between atoms: C_3  and  C_4 
ROOT
ATOM      1  N   UNL d   1      56.776  -0.052  32.339  0.00  0.00    -0.295 N 
ATOM      2  N   UNL d   1      55.426  -0.015  33.308  0.00  0.00    -0.299 N 
ATOM      3  C   UNL d   1      56.485   0.669  32.634  0.00  0.00     0.100 A 
ATOM      4  C   UNL d   1      56.374  -0.761  32.541  0.00  0.00     0.100 A 
ATOM      5  C   UNL d   1      55.804   0.682  33.121  0.00  0.00     0.100 A 
ATOM      6  C   UNL d   1      55.703  -0.744  33.022  0.00  0.00     0.100 A 
ATOM      7  C   UNL d   1      54.759  -0.003  33.785  0.00  0.00     0.100 C 
ENDROOT
BRANCH   1   8
ATOM      8  C   UNL d   1      57.440  -0.064  31.863  0.00  0.00     0.152 C 
BRANCH   8   9
ATOM      9  C   UNL d   1      57.346  -0.139  31.050  0.00  0.00     0.230 C 
ATOM     10  O   UNL d   1      57.216   0.524  30.575  0.00  0.00    -0.643 OA
ATOM     11  O   UNL d   1      57.383  -0.902  30.706  0.00  0.00    -0.643 OA
ENDBRANCH   8   9
ENDBRANCH   1   8
TORSDOF 2
ENDMDL
MODEL 2
REMARK VINA RESULT:      -3.5      0.176      1.074
REMARK  2 active torsions:
REMARK  status: ('A' for Active; 'I' for Inactive)
REMARK    1  A    between atoms: C_4  and  N_1 
REMARK    2  A    between atoms: C_3  and  C_4 
ROOT
ATOM      1  N   UNL d   1      56.868  -0.056  32.205  0.00  0.00    -0.295 N 
ATOM      2  N   UNL d   1      55.542  -0.037  33.207  0.00  0.00    -0.299 N 
ATOM      3  C   UNL d   1      56.519  -0.767  32.461  0.00  0.00     0.100 A 
ATOM      4  C   UNL d   1      56.537   0.670  32.464  0.00  0.00     0.100 A 
ATOM      5  C   UNL d   1      55.851  -0.751  32.965  0.00  0.00     0.100 A 
ATOM      6  C   UNL d   1      55.879   0.682  32.962  0.00  0.00     0.100 A 
ATOM      7  C   UNL d   1      54.888  -0.021  33.702  0.00  0.00     0.100 C 
ENDROOT
BRANCH   1   8
ATOM      8  C   UNL d   1      57.520  -0.072  31.713  0.00  0.00     0.152 C 
BRANCH   8   9
ATOM      9  C   UNL d   1      57.412  -0.247  30.917  0.00  0.00     0.230 C 
ATOM     10  O   UNL d   1      57.421  -1.027  30.648  0.00  0.00    -0.643 OA
ATOM     11  O   UNL d   1      57.293   0.382  30.376  0.00  0.00    -0.643 OA
ENDBRANCH   8   9
ENDBRANCH   1   8
TORSDOF 2
ENDMDL
MODEL 3
REMARK VINA RESULT:      -3.5      8.702      9.352
REMARK  2 active torsions:
REMARK  status: ('A' for Active; 'I' for Inactive)
REMARK    1  A    between atoms: C_4  and  N_1 
REMARK    2  A    between atoms: C_3  and  C_4 
ROOT
ATOM      1  N   UNL d   1      60.179  -7.587  35.846  0.00  0.00    -0.295 N 
ATOM      2  N   UNL d   1      60.476  -8.893  34.861  0.00  0.00    -0.299 N 
ATOM      3  C   UNL d   1      59.553  -8.060  35.569  0.00  0.00     0.100 A 
ATOM      4  C   UNL d   1      60.963  -7.782  35.618  0.00  0.00     0.100 A 
ATOM      5  C   UNL d   1      59.709  -8.717  35.073  0.00  0.00     0.100 A 
ATOM      6  C   UNL d   1      61.112  -8.430  35.129  0.00  0.00     0.100 A 
ATOM      7  C   UNL d   1      60.629  -9.535  34.375  0.00  0.00     0.100 C 
ENDROOT
BRANCH   1   8
ATOM      8  C   UNL d   1      60.026  -6.946  36.330  0.00  0.00     0.152 C 
BRANCH   8   9
ATOM      9  C   UNL d   1      59.927  -6.205  35.989  0.00  0.00     0.230 C 
ATOM     10  O   UNL d   1      59.212  -5.992  35.635  0.00  0.00    -0.643 OA
ATOM     11  O   UNL d   1      60.566  -5.662  36.003  0.00  0.00    -0.643 OA
ENDBRANCH   8   9
ENDBRANCH   1   8
TORSDOF 2
ENDMDL
MODEL 4
REMARK VINA RESULT:      -3.4      1.943      2.951
REMARK  2 active torsions:
REMARK  status: ('A' for Active; 'I' for Inactive)
REMARK    1  A    between atoms: C_4  and  N_1 
REMARK    2  A    between atoms: C_3  and  C_4 
ROOT
ATOM      1  N   UNL d   1      55.871  -0.254  33.065  0.00  0.00    -0.295 N 
ATOM      2  N   UNL d   1      56.886  -0.070  31.762  0.00  0.00    -0.299 N 
ATOM      3  C   UNL d   1      56.167  -0.918  32.661  0.00  0.00     0.100 A 
ATOM      4  C   UNL d   1      56.095   0.511  32.802  0.00  0.00     0.100 A 
ATOM      5  C   UNL d   1      56.678  -0.819  32.005  0.00  0.00     0.100 A 
ATOM      6  C   UNL d   1      56.599   0.604  32.155  0.00  0.00     0.100 A 
ATOM      7  C   UNL d   1      57.386   0.028  31.119  0.00  0.00     0.100 C 
ENDROOT
BRANCH   1   8
ATOM      8  C   UNL d   1      55.372  -0.352  33.705  0.00  0.00     0.152 C 
BRANCH   8   9
ATOM      9  C   UNL d   1      55.072   0.315  34.080  0.00  0.00     0.230 C 
ATOM     10  O   UNL d   1      55.436   0.624  34.754  0.00  0.00    -0.643 OA
ATOM     11  O   UNL d   1      54.385   0.682  33.768  0.00  0.00    -0.643 OA
ENDBRANCH   8   9
ENDBRANCH   1   8
TORSDOF 2
ENDMDL
MODEL 5
REMARK VINA RESULT:      -3.2      1.697      2.721
REMARK  2 active torsions:
REMARK  status: ('A' for Active; 'I' for Inactive)
REMARK    1  A    between atoms: C_4  and  N_1 
REMARK    2  A    between atoms: C_3  and  C_4 
ROOT
ATOM      1  N   UNL d   1      56.686  -0.041  32.721  0.00  0.00    -0.295 N 
ATOM      2  N   UNL d   1      57.502   0.039  31.275  0.00  0.00    -0.299 N 
ATOM      3  C   UNL d   1      57.128   0.634  32.520  0.00  0.00     0.100 A 
ATOM      4  C   UNL d   1      56.661  -0.682  32.178  0.00  0.00     0.100 A 
ATOM      5  C   UNL d   1      57.537   0.669  31.790  0.00  0.00     0.100 A 
ATOM      6  C   UNL d   1      57.065  -0.644  31.460  0.00  0.00     0.100 A 
ATOM      7  C   UNL d   1      57.903   0.072  30.560  0.00  0.00     0.100 C 
ENDROOT
BRANCH   1   8
ATOM      8  C   UNL d   1      56.287  -0.075  33.433  0.00  0.00     0.152 C 
BRANCH   8   9
ATOM      9  C   UNL d   1      55.466  -0.054  33.430  0.00  0.00     0.230 C 
ATOM     10  O   UNL d   1      55.024  -0.745  33.330  0.00  0.00    -0.643 OA
ATOM     11  O   UNL d   1      55.077   0.682  33.530  0.00  0.00    -0.643 OA
ENDBRANCH   8   9
ENDBRANCH   1   8
TORSDOF 2
ENDMDL
MODEL 6
REMARK VINA RESULT:      -2.9      9.104      9.706
REMARK  2 active torsions:
REMARK  status: ('A' for Active; 'I' for Inactive)
REMARK    1  A    between atoms: C_4  and  N_1 
REMARK    2  A    between atoms: C_3  and  C_4 
ROOT
ATOM      1  N   UNL d   1      60.107  -8.245  36.294  0.00  0.00    -0.295 N 
ATOM      2  N   UNL d   1      60.368  -6.605  36.226  0.00  0.00    -0.299 N 
ATOM      3  C   UNL d   1      60.880  -7.940  36.250  0.00  0.00     0.100 A 
ATOM      4  C   UNL d   1      59.462  -7.708  36.303  0.00  0.00     0.100 A 
ATOM      5  C   UNL d   1      61.005  -7.113  36.216  0.00  0.00     0.100 A 
ATOM      6  C   UNL d   1      59.589  -6.893  36.269  0.00  0.00     0.100 A 
ATOM      7  C   UNL d   1      60.490  -5.795  36.193  0.00  0.00     0.100 C 
ENDROOT
BRANCH   1   8
ATOM      8  C   UNL d   1      59.985  -9.053  36.326  0.00  0.00     0.152 C 
BRANCH   8   9
ATOM      9  C   UNL d   1      59.352  -9.377  35.914  0.00  0.00     0.230 C 
ATOM     10  O   UNL d   1      59.409  -9.537  35.106  0.00  0.00    -0.643 OA
ATOM     11  O   UNL d   1      58.642  -9.544  36.327  0.00  0.00    -0.643 OA
ENDBRANCH   8   9
ENDBRANCH   1   8
TORSDOF 2
ENDMDL
MODEL 7
REMARK VINA RESULT:      -2.3      1.851      3.473
REMARK  2 active torsions:
REMARK  status: ('A' for Active; 'I' for Inactive)
REMARK    1  A    between atoms: C_4  and  N_1 
REMARK    2  A    between atoms: C_3  and  C_4 
ROOT
ATOM      1  N   UNL d   1      57.667   0.114  30.962  0.00  0.00    -0.295 N 
ATOM      2  N   UNL d   1      59.081   0.137  30.087  0.00  0.00    -0.299 N 
ATOM      3  C   UNL d   1      57.790  -0.425  30.339  0.00  0.00     0.100 A 
ATOM      4  C   UNL d   1      58.272   0.669  31.139  0.00  0.00     0.100 A 
ATOM      5  C   UNL d   1      58.504  -0.408  29.903  0.00  0.00     0.100 A 
ATOM      6  C   UNL d   1      58.974   0.682  30.706  0.00  0.00     0.100 A 
ATOM      7  C   UNL d   1      59.781   0.153  29.660  0.00  0.00     0.100 C 
ENDROOT
BRANCH   1   8
ATOM      8  C   UNL d   1      56.970   0.097  31.387  0.00  0.00     0.152 C 
BRANCH   8   9
ATOM      9  C   UNL d   1      56.868  -0.482  31.962  0.00  0.00     0.230 C 
ATOM     10  O   UNL d   1      56.623  -1.243  31.758  0.00  0.00    -0.643 OA
ATOM     11  O   UNL d   1      57.018  -0.289  32.764  0.00  0.00    -0.643 OA
ENDBRANCH   8   9
ENDBRANCH   1   8
TORSDOF 2
ENDMDL
MODEL 8
REMARK VINA RESULT:      -1.7      2.254      3.182
REMARK  2 active torsions:
REMARK  status: ('A' for Active; 'I' for Inactive)
REMARK    1  A    between atoms: C_4  and  N_1 
REMARK    2  A    between atoms: C_3  and  C_4 
ROOT
ATOM      1  N   UNL d   1      58.571  -0.028  29.781  0.00  0.00    -0.295 N 
ATOM      2  N   UNL d   1      57.537  -0.030  31.084  0.00  0.00    -0.299 N 
ATOM      3  C   UNL d   1      58.379   0.681  30.173  0.00  0.00     0.100 A 
ATOM      4  C   UNL d   1      58.231  -0.744  30.058  0.00  0.00     0.100 A 
ATOM      5  C   UNL d   1      57.858   0.674  30.828  0.00  0.00     0.100 A 
ATOM      6  C   UNL d   1      57.718  -0.747  30.704  0.00  0.00     0.100 A 
ATOM      7  C   UNL d   1      57.027  -0.038  31.726  0.00  0.00     0.100 C 
ENDROOT
BRANCH   1   8
ATOM      8  C   UNL d   1      59.079  -0.020  29.142  0.00  0.00     0.152 C 
BRANCH   8   9
ATOM      9  C   UNL d   1      59.858  -0.259  29.250  0.00  0.00     0.230 C 
ATOM     10  O   UNL d   1      60.076  -1.050  29.155  0.00  0.00    -0.643 OA
ATOM     11  O   UNL d   1      60.433   0.313  29.460  0.00  0.00    -0.643 OA
ENDBRANCH   8   9
ENDBRANCH   1   8
TORSDOF 2
ENDMDL
