MODEL 1
REMARK VINA RESULT:      29.5      0.000      0.000
REMARK  4 active torsions:
REMARK  status: ('A' for Active; 'I' for Inactive)
REMARK    1  A    between atoms: C_3  and  C_2 
REMARK    2  A    between atoms: C_14  and  C_12 
REMARK    3  A    between atoms: C_15  and  C_14 
REMARK    4  A    between atoms: C_16  and  C_15 
ROOT
ATOM      1  N   UNL d   1     -54.711-101.260 -40.097  0.00  0.00    -0.244 NA
ATOM      2  C   UNL d   1     -54.791-101.820 -40.694  0.00  0.00     0.081 A 
ATOM      3  C   UNL d   1     -54.886-102.664 -40.473  0.00  0.00     0.019 A 
ATOM      4  C   UNL d   1     -54.719-101.473 -39.297  0.00  0.00     0.099 A 
ATOM      5  C   UNL d   1     -54.894-102.877 -39.673  0.00  0.00     0.003 A 
ATOM      6  C   UNL d   1     -54.807-102.257 -39.055  0.00  0.00     0.019 A 
ENDROOT
BRANCH   2   7
ATOM      7  C   UNL d   1     -54.783-101.607 -41.494  0.00  0.00     0.018 A 
ATOM      8  C   UNL d   1     -54.834-100.820 -41.737  0.00  0.00     0.002 A 
ATOM      9  C   UNL d   1     -54.827-100.615 -42.506  0.00  0.00     0.007 A 
ATOM     10  C   UNL d   1     -54.768-101.172 -43.126  0.00  0.00     0.035 A 
ATOM     11  C   UNL d   1     -54.712-102.026 -42.881  0.00  0.00     0.007 A 
ATOM     12 BR   UNL d   1     -54.760-100.967 -43.895  0.00  0.00    -0.049 Br
ATOM     13  C   UNL d   1     -54.719-102.231 -42.111  0.00  0.00     0.002 A 
ENDBRANCH   2   7
BRANCH   6  14
ATOM     14  C   UNL d   1     -54.814-102.467 -38.267  0.00  0.00     0.002 C 
BRANCH  14  15
ATOM     15  C   UNL d   1     -55.453-102.843 -37.941  0.00  0.00     0.000 C 
BRANCH  15  16
ATOM     16  C   UNL d   1     -55.699-102.673 -37.182  0.00  0.00     0.000 C 
ATOM     17  C   UNL d   1     -55.181-102.723 -36.576  0.00  0.00     0.000 C 
ENDBRANCH  15  16
ENDBRANCH  14  15
ENDBRANCH   6  14
TORSDOF 4
ENDMDL
