MODEL 1
REMARK VINA RESULT:      -7.7      0.000      0.000
REMARK  2 active torsions:
REMARK  status: ('A' for Active; 'I' for Inactive)
REMARK       I    between atoms: N_2  and  C_1 
REMARK    1  A    between atoms: C_5  and  C_1 
REMARK    2  A    between atoms: C_7  and  N_2 
ROOT
ATOM      1  C   UNL d   1     -46.233  11.968  23.321  0.00  0.00     0.125 A 
ATOM      2  C   UNL d   1     -46.922  12.422  23.321  0.00  0.00     0.059 A 
ATOM      3  C   UNL d   1     -45.548  12.242  22.951  0.00  0.00     0.123 A 
ATOM      4  C   UNL d   1     -46.925  13.155  22.949  0.00  0.00     0.137 A 
ATOM      5  O   UNL d   1     -46.231  11.228  23.696  0.00  0.00    -0.301 OA
ATOM      6  O   UNL d   1     -44.855  11.790  22.949  0.00  0.00    -0.301 OA
ATOM      7  C   UNL d   1     -45.554  12.980  22.578  0.00  0.00     0.029 A 
ATOM      8  C   UNL d   1     -46.239  13.435  22.576  0.00  0.00     0.034 A 
ATOM      9  C   UNL d   1     -45.544  10.773  23.698  0.00  0.00     0.149 A 
ATOM     10  C   UNL d   1     -44.859  11.053  23.325  0.00  0.00     0.149 A 
ENDROOT
BRANCH   4  11
ATOM     11  N   UNL d   1     -47.615  13.618  22.945  0.00  0.00    -0.365 NA
ATOM     12  C   UNL d   1     -48.293  14.069  22.940  0.00  0.00     0.328 C 
ATOM     13  O   UNL d   1     -48.288  14.819  23.264  0.00  0.00    -0.251 OA
BRANCH  12  14
ATOM     14  C   UNL d   1     -48.977  13.767  22.610  0.00  0.00     0.070 A 
ATOM     15  C   UNL d   1     -49.539  13.397  23.083  0.00  0.00     0.006 A 
ATOM     16  C   UNL d   1     -50.228  13.094  22.746  0.00  0.00     0.000 A 
ATOM     17  C   UNL d   1     -50.362  13.158  21.932  0.00  0.00     0.000 A 
ATOM     18  C   UNL d   1     -49.803  13.528  21.456  0.00  0.00     0.000 A 
ATOM     19  C   UNL d   1     -51.051  12.855  21.594  0.00  0.00     0.000 C 
ATOM     20  C   UNL d   1     -49.110  13.832  21.796  0.00  0.00     0.006 A 
ENDBRANCH  12  14
ENDBRANCH   4  11
TORSDOF 2
ENDMDL
MODEL 2
REMARK VINA RESULT:      -7.1      1.313      4.283
REMARK  2 active torsions:
REMARK  status: ('A' for Active; 'I' for Inactive)
REMARK       I    between atoms: N_2  and  C_1 
REMARK    1  A    between atoms: C_5  and  C_1 
REMARK    2  A    between atoms: C_7  and  N_2 
ROOT
ATOM      1  C   UNL d   1     -49.478  13.818  21.874  0.00  0.00     0.125 A 
ATOM      2  C   UNL d   1     -48.686  13.690  22.065  0.00  0.00     0.059 A 
ATOM      3  C   UNL d   1     -49.868  14.500  22.127  0.00  0.00     0.123 A 
ATOM      4  C   UNL d   1     -48.281  14.250  22.513  0.00  0.00     0.137 A 
ATOM      5  O   UNL d   1     -49.885  13.254  21.422  0.00  0.00    -0.301 OA
ATOM      6  O   UNL d   1     -50.663  14.631  21.938  0.00  0.00    -0.301 OA
ATOM      7  C   UNL d   1     -49.459  15.060  22.577  0.00  0.00     0.029 A 
ATOM      8  C   UNL d   1     -48.669  14.936  22.769  0.00  0.00     0.034 A 
ATOM      9  C   UNL d   1     -50.677  13.378  21.230  0.00  0.00     0.149 A 
ATOM     10  C   UNL d   1     -51.064  14.064  21.487  0.00  0.00     0.149 A 
ENDROOT
BRANCH   4  11
ATOM     11  N   UNL d   1     -47.483  14.128  22.709  0.00  0.00    -0.365 NA
ATOM     12  C   UNL d   1     -46.701  14.005  22.901  0.00  0.00     0.328 C 
ATOM     13  O   UNL d   1     -46.194  14.642  22.977  0.00  0.00    -0.251 OA
BRANCH  12  14
ATOM     14  C   UNL d   1     -46.427  13.244  23.017  0.00  0.00     0.070 A 
ATOM     15  C   UNL d   1     -46.774  12.759  23.584  0.00  0.00     0.006 A 
ATOM     16  C   UNL d   1     -46.494  11.992  23.698  0.00  0.00     0.000 A 
ATOM     17  C   UNL d   1     -45.865  11.702  23.246  0.00  0.00     0.000 A 
ATOM     18  C   UNL d   1     -45.517  12.183  22.679  0.00  0.00     0.000 A 
ATOM     19  C   UNL d   1     -45.586  10.934  23.360  0.00  0.00     0.000 C 
ATOM     20  C   UNL d   1     -45.798  12.955  22.565  0.00  0.00     0.006 A 
ENDBRANCH  12  14
ENDBRANCH   4  11
TORSDOF 2
ENDMDL
MODEL 3
REMARK VINA RESULT:      -6.6      7.739      9.347
REMARK  2 active torsions:
REMARK  status: ('A' for Active; 'I' for Inactive)
REMARK       I    between atoms: N_2  and  C_1 
REMARK    1  A    between atoms: C_5  and  C_1 
REMARK    2  A    between atoms: C_7  and  N_2 
ROOT
ATOM      1  C   UNL d   1     -39.276  14.005  17.674  0.00  0.00     0.125 A 
ATOM      2  C   UNL d   1     -39.561  13.968  18.448  0.00  0.00     0.059 A 
ATOM      3  C   UNL d   1     -39.621  14.512  17.122  0.00  0.00     0.123 A 
ATOM      4  C   UNL d   1     -40.196  14.442  18.670  0.00  0.00     0.137 A 
ATOM      5  O   UNL d   1     -38.636  13.528  17.452  0.00  0.00    -0.301 OA
ATOM      6  O   UNL d   1     -39.338  14.552  16.346  0.00  0.00    -0.301 OA
ATOM      7  C   UNL d   1     -40.259  14.987  17.348  0.00  0.00     0.029 A 
ATOM      8  C   UNL d   1     -40.546  14.953  18.119  0.00  0.00     0.034 A 
ATOM      9  C   UNL d   1     -38.349  13.562  16.680  0.00  0.00     0.149 A 
ATOM     10  C   UNL d   1     -38.699  14.073  16.129  0.00  0.00     0.149 A 
ENDROOT
BRANCH   4  11
ATOM     11  N   UNL d   1     -40.488  14.409  19.447  0.00  0.00    -0.365 NA
ATOM     12  C   UNL d   1     -40.772  14.380  20.210  0.00  0.00     0.328 C 
ATOM     13  O   UNL d   1     -41.463  13.975  20.373  0.00  0.00    -0.251 OA
BRANCH  12  14
ATOM     14  C   UNL d   1     -40.363  14.755  20.809  0.00  0.00     0.070 A 
ATOM     15  C   UNL d   1     -40.510  15.546  20.981  0.00  0.00     0.006 A 
ATOM     16  C   UNL d   1     -40.094  15.921  21.587  0.00  0.00     0.000 A 
ATOM     17  C   UNL d   1     -39.527  15.509  22.027  0.00  0.00     0.000 A 
ATOM     18  C   UNL d   1     -39.378  14.719  21.857  0.00  0.00     0.000 A 
ATOM     19  C   UNL d   1     -39.112  15.884  22.632  0.00  0.00     0.000 C 
ATOM     20  C   UNL d   1     -39.796  14.342  21.247  0.00  0.00     0.006 A 
ENDBRANCH  12  14
ENDBRANCH   4  11
TORSDOF 2
ENDMDL
MODEL 4
REMARK VINA RESULT:      -6.4      1.430      1.875
REMARK  2 active torsions:
REMARK  status: ('A' for Active; 'I' for Inactive)
REMARK       I    between atoms: N_2  and  C_1 
REMARK    1  A    between atoms: C_5  and  C_1 
REMARK    2  A    between atoms: C_7  and  N_2 
ROOT
ATOM      1  C   UNL d   1     -45.414  12.559  22.319  0.00  0.00     0.125 A 
ATOM      2  C   UNL d   1     -46.103  12.167  22.548  0.00  0.00     0.059 A 
ATOM      3  C   UNL d   1     -45.377  13.383  22.322  0.00  0.00     0.123 A 
ATOM      4  C   UNL d   1     -46.759  12.605  22.783  0.00  0.00     0.137 A 
ATOM      5  O   UNL d   1     -44.753  12.117  22.083  0.00  0.00    -0.301 OA
ATOM      6  O   UNL d   1     -44.688  13.779  22.093  0.00  0.00    -0.301 OA
ATOM      7  C   UNL d   1     -46.038  13.820  22.559  0.00  0.00     0.029 A 
ATOM      8  C   UNL d   1     -46.727  13.433  22.788  0.00  0.00     0.034 A 
ATOM      9  C   UNL d   1     -44.063  12.505  21.853  0.00  0.00     0.149 A 
ATOM     10  C   UNL d   1     -44.031  13.334  21.858  0.00  0.00     0.149 A 
ENDROOT
BRANCH   4  11
ATOM     11  N   UNL d   1     -47.457  12.217  23.015  0.00  0.00    -0.365 NA
ATOM     12  C   UNL d   1     -48.142  11.840  23.241  0.00  0.00     0.328 C 
ATOM     13  O   UNL d   1     -48.105  11.163  23.698  0.00  0.00    -0.251 OA
BRANCH  12  14
ATOM     14  C   UNL d   1     -48.866  12.140  23.009  0.00  0.00     0.070 A 
ATOM     15  C   UNL d   1     -49.198  11.917  22.291  0.00  0.00     0.006 A 
ATOM     16  C   UNL d   1     -49.929  12.224  22.060  0.00  0.00     0.000 A 
ATOM     17  C   UNL d   1     -50.334  12.757  22.547  0.00  0.00     0.000 A 
ATOM     18  C   UNL d   1     -50.005  12.982  23.265  0.00  0.00     0.000 A 
ATOM     19  C   UNL d   1     -51.064  13.063  22.317  0.00  0.00     0.000 C 
ATOM     20  C   UNL d   1     -49.270  12.673  23.496  0.00  0.00     0.006 A 
ENDBRANCH  12  14
ENDBRANCH   4  11
TORSDOF 2
ENDMDL
MODEL 5
REMARK VINA RESULT:      -6.3      8.122      9.758
REMARK  2 active torsions:
REMARK  status: ('A' for Active; 'I' for Inactive)
REMARK       I    between atoms: N_2  and  C_1 
REMARK    1  A    between atoms: C_5  and  C_1 
REMARK    2  A    between atoms: C_7  and  N_2 
ROOT
ATOM      1  C   UNL d   1     -39.019  14.186  16.819  0.00  0.00     0.125 A 
ATOM      2  C   UNL d   1     -39.560  14.340  17.422  0.00  0.00     0.059 A 
ATOM      3  C   UNL d   1     -38.484  13.561  16.882  0.00  0.00     0.123 A 
ATOM      4  C   UNL d   1     -39.565  13.865  18.094  0.00  0.00     0.137 A 
ATOM      5  O   UNL d   1     -39.014  14.666  16.142  0.00  0.00    -0.301 OA
ATOM      6  O   UNL d   1     -37.940  13.404  16.279  0.00  0.00    -0.301 OA
ATOM      7  C   UNL d   1     -38.492  13.085  17.558  0.00  0.00     0.029 A 
ATOM      8  C   UNL d   1     -39.030  13.236  18.162  0.00  0.00     0.034 A 
ATOM      9  C   UNL d   1     -38.475  14.515  15.538  0.00  0.00     0.149 A 
ATOM     10  C   UNL d   1     -37.940  13.886  15.606  0.00  0.00     0.149 A 
ENDROOT
BRANCH   4  11
ATOM     11  N   UNL d   1     -40.108  14.014  18.705  0.00  0.00    -0.365 NA
ATOM     12  C   UNL d   1     -40.637  14.162  19.307  0.00  0.00     0.328 C 
ATOM     13  O   UNL d   1     -41.399  13.872  19.260  0.00  0.00    -0.251 OA
BRANCH  12  14
ATOM     14  C   UNL d   1     -40.401  14.600  19.955  0.00  0.00     0.070 A 
ATOM     15  C   UNL d   1     -40.436  15.422  19.937  0.00  0.00     0.006 A 
ATOM     16  C   UNL d   1     -40.196  15.860  20.593  0.00  0.00     0.000 A 
ATOM     17  C   UNL d   1     -39.920  15.481  21.275  0.00  0.00     0.000 A 
ATOM     18  C   UNL d   1     -39.884  14.660  21.296  0.00  0.00     0.000 A 
ATOM     19  C   UNL d   1     -39.681  15.919  21.931  0.00  0.00     0.000 C 
ATOM     20  C   UNL d   1     -40.125  14.219  20.636  0.00  0.00     0.006 A 
ENDBRANCH  12  14
ENDBRANCH   4  11
TORSDOF 2
ENDMDL
MODEL 6
REMARK VINA RESULT:      -5.9      8.132      9.486
REMARK  2 active torsions:
REMARK  status: ('A' for Active; 'I' for Inactive)
REMARK       I    between atoms: N_2  and  C_1 
REMARK    1  A    between atoms: C_5  and  C_1 
REMARK    2  A    between atoms: C_7  and  N_2 
ROOT
ATOM      1  C   UNL d   1     -39.933  15.428  18.141  0.00  0.00     0.125 A 
ATOM      2  C   UNL d   1     -39.819  15.534  18.951  0.00  0.00     0.059 A 
ATOM      3  C   UNL d   1     -40.436  14.839  17.859  0.00  0.00     0.123 A 
ATOM      4  C   UNL d   1     -40.213  15.045  19.483  0.00  0.00     0.137 A 
ATOM      5  O   UNL d   1     -39.535  15.922  17.606  0.00  0.00    -0.301 OA
ATOM      6  O   UNL d   1     -40.552  14.730  17.048  0.00  0.00    -0.301 OA
ATOM      7  C   UNL d   1     -40.831  14.349  18.396  0.00  0.00     0.029 A 
ATOM      8  C   UNL d   1     -40.720  14.451  19.205  0.00  0.00     0.034 A 
ATOM      9  C   UNL d   1     -39.646  15.820  16.796  0.00  0.00     0.149 A 
ATOM     10  C   UNL d   1     -40.153  15.226  16.517  0.00  0.00     0.149 A 
ENDROOT
BRANCH   4  11
ATOM     11  N   UNL d   1     -40.104  15.145  20.301  0.00  0.00    -0.365 NA
ATOM     12  C   UNL d   1     -39.995  15.240  21.102  0.00  0.00     0.328 C 
ATOM     13  O   UNL d   1     -40.390  15.834  21.501  0.00  0.00    -0.251 OA
BRANCH  12  14
ATOM     14  C   UNL d   1     -39.489  14.740  21.504  0.00  0.00     0.070 A 
ATOM     15  C   UNL d   1     -39.765  14.031  21.816  0.00  0.00     0.006 A 
ATOM     16  C   UNL d   1     -39.250  13.529  22.221  0.00  0.00     0.000 A 
ATOM     17  C   UNL d   1     -38.454  13.732  22.318  0.00  0.00     0.000 A 
ATOM     18  C   UNL d   1     -38.175  14.440  22.009  0.00  0.00     0.000 A 
ATOM     19  C   UNL d   1     -37.940  13.230  22.723  0.00  0.00     0.000 C 
ATOM     20  C   UNL d   1     -38.693  14.944  21.601  0.00  0.00     0.006 A 
ENDBRANCH  12  14
ENDBRANCH   4  11
TORSDOF 2
ENDMDL
MODEL 7
REMARK VINA RESULT:      -5.9      1.588      4.254
REMARK  2 active torsions:
REMARK  status: ('A' for Active; 'I' for Inactive)
REMARK       I    between atoms: N_2  and  C_1 
REMARK    1  A    between atoms: C_5  and  C_1 
REMARK    2  A    between atoms: C_7  and  N_2 
ROOT
ATOM      1  C   UNL d   1     -49.007  12.721  22.202  0.00  0.00     0.125 A 
ATOM      2  C   UNL d   1     -48.276  13.079  22.337  0.00  0.00     0.059 A 
ATOM      3  C   UNL d   1     -49.189  11.992  22.543  0.00  0.00     0.123 A 
ATOM      4  C   UNL d   1     -47.723  12.703  22.818  0.00  0.00     0.137 A 
ATOM      5  O   UNL d   1     -49.563  13.100  21.717  0.00  0.00    -0.301 OA
ATOM      6  O   UNL d   1     -49.920  11.630  22.410  0.00  0.00    -0.301 OA
ATOM      7  C   UNL d   1     -48.631  11.617  23.026  0.00  0.00     0.029 A 
ATOM      8  C   UNL d   1     -47.901  11.971  23.163  0.00  0.00     0.034 A 
ATOM      9  C   UNL d   1     -50.294  12.745  21.580  0.00  0.00     0.149 A 
ATOM     10  C   UNL d   1     -50.472  12.013  21.925  0.00  0.00     0.149 A 
ENDROOT
BRANCH   4  11
ATOM     11  N   UNL d   1     -46.985  13.058  22.959  0.00  0.00    -0.365 NA
ATOM     12  C   UNL d   1     -46.260  13.403  23.094  0.00  0.00     0.328 C 
ATOM     13  O   UNL d   1     -46.187  13.994  23.654  0.00  0.00    -0.251 OA
BRANCH  12  14
ATOM     14  C   UNL d   1     -45.608  13.156  22.669  0.00  0.00     0.070 A 
ATOM     15  C   UNL d   1     -45.210  12.467  22.878  0.00  0.00     0.006 A 
ATOM     16  C   UNL d   1     -44.552  12.221  22.445  0.00  0.00     0.000 A 
ATOM     17  C   UNL d   1     -44.285  12.662  21.799  0.00  0.00     0.000 A 
ATOM     18  C   UNL d   1     -44.680  13.351  21.586  0.00  0.00     0.000 A 
ATOM     19  C   UNL d   1     -43.627  12.417  21.366  0.00  0.00     0.000 C 
ATOM     20  C   UNL d   1     -45.342  13.598  22.022  0.00  0.00     0.006 A 
ENDBRANCH  12  14
ENDBRANCH   4  11
TORSDOF 2
ENDMDL
MODEL 8
REMARK VINA RESULT:      -5.1      8.027      9.836
REMARK  2 active torsions:
REMARK  status: ('A' for Active; 'I' for Inactive)
REMARK       I    between atoms: N_2  and  C_1 
REMARK    1  A    between atoms: C_5  and  C_1 
REMARK    2  A    between atoms: C_7  and  N_2 
ROOT
ATOM      1  C   UNL d   1     -38.452  14.439  17.181  0.00  0.00     0.125 A 
ATOM      2  C   UNL d   1     -38.571  14.551  17.989  0.00  0.00     0.059 A 
ATOM      3  C   UNL d   1     -38.640  15.034  16.641  0.00  0.00     0.123 A 
ATOM      4  C   UNL d   1     -38.882  15.264  18.259  0.00  0.00     0.137 A 
ATOM      5  O   UNL d   1     -38.139  13.720  16.910  0.00  0.00    -0.301 OA
ATOM      6  O   UNL d   1     -38.521  14.925  15.829  0.00  0.00    -0.301 OA
ATOM      7  C   UNL d   1     -38.951  15.749  16.915  0.00  0.00     0.029 A 
ATOM      8  C   UNL d   1     -39.072  15.865  17.720  0.00  0.00     0.034 A 
ATOM      9  C   UNL d   1     -38.018  13.605  16.103  0.00  0.00     0.149 A 
ATOM     10  C   UNL d   1     -38.209  14.206  15.564  0.00  0.00     0.149 A 
ENDROOT
BRANCH   4  11
ATOM     11  N   UNL d   1     -39.005  15.384  19.072  0.00  0.00    -0.365 NA
ATOM     12  C   UNL d   1     -39.129  15.499  19.868  0.00  0.00     0.328 C 
ATOM     13  O   UNL d   1     -38.586  15.922  20.309  0.00  0.00    -0.251 OA
BRANCH  12  14
ATOM     14  C   UNL d   1     -39.797  15.191  20.223  0.00  0.00     0.070 A 
ATOM     15  C   UNL d   1     -40.481  15.644  20.287  0.00  0.00     0.006 A 
ATOM     16  C   UNL d   1     -41.154  15.329  20.646  0.00  0.00     0.000 A 
ATOM     17  C   UNL d   1     -41.149  14.558  20.945  0.00  0.00     0.000 A 
ATOM     18  C   UNL d   1     -40.468  14.103  20.883  0.00  0.00     0.000 A 
ATOM     19  C   UNL d   1     -41.821  14.242  21.304  0.00  0.00     0.000 C 
ATOM     20  C   UNL d   1     -39.791  14.420  20.522  0.00  0.00     0.006 A 
ENDBRANCH  12  14
ENDBRANCH   4  11
TORSDOF 2
ENDMDL
MODEL 9
REMARK VINA RESULT:      -4.8      1.324      4.512
REMARK  2 active torsions:
REMARK  status: ('A' for Active; 'I' for Inactive)
REMARK       I    between atoms: N_2  and  C_1 
REMARK    1  A    between atoms: C_5  and  C_1 
REMARK    2  A    between atoms: C_7  and  N_2 
ROOT
ATOM      1  C   UNL d   1     -48.525  13.250  21.968  0.00  0.00     0.125 A 
ATOM      2  C   UNL d   1     -47.826  12.850  22.149  0.00  0.00     0.059 A 
ATOM      3  C   UNL d   1     -48.691  13.982  22.309  0.00  0.00     0.123 A 
ATOM      4  C   UNL d   1     -47.291  13.187  22.675  0.00  0.00     0.137 A 
ATOM      5  O   UNL d   1     -49.064  12.909  21.438  0.00  0.00    -0.301 OA
ATOM      6  O   UNL d   1     -49.391  14.386  22.129  0.00  0.00    -0.301 OA
ATOM      7  C   UNL d   1     -48.151  14.319  22.837  0.00  0.00     0.029 A 
ATOM      8  C   UNL d   1     -47.453  13.923  23.020  0.00  0.00     0.034 A 
ATOM      9  C   UNL d   1     -49.763  13.305  21.255  0.00  0.00     0.149 A 
ATOM     10  C   UNL d   1     -49.926  14.042  21.599  0.00  0.00     0.149 A 
ENDROOT
BRANCH   4  11
ATOM     11  N   UNL d   1     -46.585  12.790  22.863  0.00  0.00    -0.365 NA
ATOM     12  C   UNL d   1     -45.892  12.403  23.044  0.00  0.00     0.328 C 
ATOM     13  O   UNL d   1     -45.864  11.892  23.680  0.00  0.00    -0.251 OA
BRANCH  12  14
ATOM     14  C   UNL d   1     -45.227  12.528  22.586  0.00  0.00     0.070 A 
ATOM     15  C   UNL d   1     -45.166  13.199  22.114  0.00  0.00     0.006 A 
ATOM     16  C   UNL d   1     -44.493  13.322  21.654  0.00  0.00     0.000 A 
ATOM     17  C   UNL d   1     -43.873  12.774  21.660  0.00  0.00     0.000 A 
ATOM     18  C   UNL d   1     -43.930  12.102  22.130  0.00  0.00     0.000 A 
ATOM     19  C   UNL d   1     -43.200  12.896  21.200  0.00  0.00     0.000 C 
ATOM     20  C   UNL d   1     -44.607  11.979  22.594  0.00  0.00     0.006 A 
ENDBRANCH  12  14
ENDBRANCH   4  11
TORSDOF 2
ENDMDL
