MODEL 1
REMARK VINA RESULT:      -3.0      0.000      0.000
REMARK  2 active torsions:
REMARK  status: ('A' for Active; 'I' for Inactive)
REMARK    1  A    between atoms: C_3  and  C_1 
REMARK       I    between atoms: C_2  and  N_4 
REMARK    2  A    between atoms: N_4  and  C_7 
ROOT
ATOM      1  C   UNL d   1      28.901  16.649 -24.007  0.00  0.00     0.073 A 
ATOM      2  C   UNL d   1      29.556  16.198 -23.780  0.00  0.00     0.024 A 
ATOM      3  C   UNL d   1      30.257  16.245 -24.212  0.00  0.00     0.100 A 
ATOM      4  C   UNL d   1      28.948  17.143 -24.663  0.00  0.00     0.004 A 
ATOM      5  C   UNL d   1      29.649  17.190 -25.096  0.00  0.00     0.002 A 
ATOM      6  C   UNL d   1      30.303  16.742 -24.872  0.00  0.00     0.020 A 
ENDROOT
BRANCH   1   7
ATOM      7  C   UNL d   1      28.194  16.602 -23.570  0.00  0.00     0.419 C 
ATOM      8  F   UNL d   1      27.557  16.560 -23.176  0.00  0.00    -0.166 F 
ATOM      9  F   UNL d   1      27.599  15.977 -23.567  0.00  0.00    -0.166 F 
ATOM     10  F   UNL d   1      27.867  17.162 -23.006  0.00  0.00    -0.166 F 
ENDBRANCH   1   7
BRANCH   3  11
ATOM     11  N   UNL d   1      30.914  15.798 -23.991  0.00  0.00    -0.056 NA
ATOM     12  C   UNL d   1      31.557  16.160 -23.633  0.00  0.00     0.787 C 
ATOM     13  N   UNL d   1      32.214  15.718 -23.411  0.00  0.00     0.064 N 
ATOM     14  N   UNL d   1      31.540  16.974 -23.496  0.00  0.00     0.064 N 
ENDBRANCH   3  11
TORSDOF 2
ENDMDL
MODEL 2
REMARK VINA RESULT:      -2.9      7.571      8.089
REMARK  2 active torsions:
REMARK  status: ('A' for Active; 'I' for Inactive)
REMARK    1  A    between atoms: C_3  and  C_1 
REMARK       I    between atoms: C_2  and  N_4 
REMARK    2  A    between atoms: N_4  and  C_7 
ROOT
ATOM      1  C   UNL d   1      32.427  22.198 -20.635  0.00  0.00     0.073 A 
ATOM      2  C   UNL d   1      32.810  22.297 -19.909  0.00  0.00     0.024 A 
ATOM      3  C   UNL d   1      32.860  23.047 -19.569  0.00  0.00     0.100 A 
ATOM      4  C   UNL d   1      32.097  22.847 -21.019  0.00  0.00     0.004 A 
ATOM      5  C   UNL d   1      32.147  23.597 -20.680  0.00  0.00     0.002 A 
ATOM      6  C   UNL d   1      32.528  23.698 -19.956  0.00  0.00     0.020 A 
ENDROOT
BRANCH   1   7
ATOM      7  C   UNL d   1      32.377  21.440 -20.978  0.00  0.00     0.419 C 
ATOM      8  F   UNL d   1      32.331  20.758 -21.286  0.00  0.00    -0.166 F 
ATOM      9  F   UNL d   1      32.949  21.032 -21.478  0.00  0.00    -0.166 F 
ATOM     10  F   UNL d   1      31.742  20.863 -20.925  0.00  0.00    -0.166 F 
ENDBRANCH   1   7
BRANCH   3  11
ATOM     11  N   UNL d   1      33.241  23.152 -18.845  0.00  0.00    -0.056 NA
ATOM     12  C   UNL d   1      32.836  23.477 -18.211  0.00  0.00     0.787 C 
ATOM     13  N   UNL d   1      33.211  23.584 -17.487  0.00  0.00     0.064 N 
ATOM     14  N   UNL d   1      32.046  23.697 -18.303  0.00  0.00     0.064 N 
ENDBRANCH   3  11
TORSDOF 2
ENDMDL
MODEL 3
REMARK VINA RESULT:      -2.7      2.675      3.328
REMARK  2 active torsions:
REMARK  status: ('A' for Active; 'I' for Inactive)
REMARK    1  A    between atoms: C_3  and  C_1 
REMARK       I    between atoms: C_2  and  N_4 
REMARK    2  A    between atoms: N_4  and  C_7 
ROOT
ATOM      1  C   UNL d   1      31.786  16.921 -23.722  0.00  0.00     0.073 A 
ATOM      2  C   UNL d   1      30.964  16.861 -23.789  0.00  0.00     0.024 A 
ATOM      3  C   UNL d   1      30.615  16.127 -23.932  0.00  0.00     0.100 A 
ATOM      4  C   UNL d   1      32.256  16.249 -23.798  0.00  0.00     0.004 A 
ATOM      5  C   UNL d   1      31.908  15.515 -23.941  0.00  0.00     0.002 A 
ATOM      6  C   UNL d   1      31.089  15.453 -24.008  0.00  0.00     0.020 A 
ENDROOT
BRANCH   1   7
ATOM      7  C   UNL d   1      32.138  17.662 -23.577  0.00  0.00     0.419 C 
ATOM      8  F   UNL d   1      32.454  18.329 -23.447  0.00  0.00    -0.166 F 
ATOM      9  F   UNL d   1      32.307  18.299 -24.133  0.00  0.00    -0.166 F 
ATOM     10  F   UNL d   1      32.426  17.990 -22.837  0.00  0.00    -0.166 F 
ENDBRANCH   1   7
BRANCH   3  11
ATOM     11  N   UNL d   1      29.796  16.060 -24.000  0.00  0.00    -0.056 NA
ATOM     12  C   UNL d   1      29.356  15.752 -23.381  0.00  0.00     0.787 C 
ATOM     13  N   UNL d   1      28.538  15.684 -23.445  0.00  0.00     0.064 N 
ATOM     14  N   UNL d   1      29.738  15.510 -22.691  0.00  0.00     0.064 N 
ENDBRANCH   3  11
TORSDOF 2
ENDMDL
MODEL 4
REMARK VINA RESULT:      -2.6      1.396      1.951
REMARK  2 active torsions:
REMARK  status: ('A' for Active; 'I' for Inactive)
REMARK    1  A    between atoms: C_3  and  C_1 
REMARK       I    between atoms: C_2  and  N_4 
REMARK    2  A    between atoms: N_4  and  C_7 
ROOT
ATOM      1  C   UNL d   1      30.000  16.922 -24.278  0.00  0.00     0.073 A 
ATOM      2  C   UNL d   1      30.639  17.357 -24.572  0.00  0.00     0.024 A 
ATOM      3  C   UNL d   1      31.411  17.117 -24.407  0.00  0.00     0.100 A 
ATOM      4  C   UNL d   1      30.134  16.250 -23.820  0.00  0.00     0.004 A 
ATOM      5  C   UNL d   1      30.906  16.010 -23.655  0.00  0.00     0.002 A 
ATOM      6  C   UNL d   1      31.544  16.442 -23.948  0.00  0.00     0.020 A 
ENDROOT
BRANCH   1   7
ATOM      7  C   UNL d   1      29.221  17.164 -24.444  0.00  0.00     0.419 C 
ATOM      8  F   UNL d   1      28.519  17.382 -24.594  0.00  0.00    -0.166 F 
ATOM      9  F   UNL d   1      28.717  17.710 -24.005  0.00  0.00    -0.166 F 
ATOM     10  F   UNL d   1      28.710  16.936 -25.097  0.00  0.00    -0.166 F 
ENDBRANCH   1   7
BRANCH   3  11
ATOM     11  N   UNL d   1      32.052  17.547 -24.699  0.00  0.00    -0.056 NA
ATOM     12  C   UNL d   1      32.476  18.040 -24.201  0.00  0.00     0.787 C 
ATOM     13  N   UNL d   1      33.116  18.470 -24.487  0.00  0.00     0.064 N 
ATOM     14  N   UNL d   1      32.257  18.104 -23.408  0.00  0.00     0.064 N 
ENDBRANCH   3  11
TORSDOF 2
ENDMDL
MODEL 5
REMARK VINA RESULT:      -2.6      2.912      3.845
REMARK  2 active torsions:
REMARK  status: ('A' for Active; 'I' for Inactive)
REMARK    1  A    between atoms: C_3  and  C_1 
REMARK       I    between atoms: C_2  and  N_4 
REMARK    2  A    between atoms: N_4  and  C_7 
ROOT
ATOM      1  C   UNL d   1      32.657  17.811 -23.309  0.00  0.00     0.073 A 
ATOM      2  C   UNL d   1      31.946  17.630 -23.690  0.00  0.00     0.024 A 
ATOM      3  C   UNL d   1      31.820  16.870 -23.987  0.00  0.00     0.100 A 
ATOM      4  C   UNL d   1      33.239  17.235 -23.226  0.00  0.00     0.004 A 
ATOM      5  C   UNL d   1      33.114  16.476 -23.522  0.00  0.00     0.002 A 
ATOM      6  C   UNL d   1      32.406  16.292 -23.902  0.00  0.00     0.020 A 
ENDROOT
BRANCH   1   7
ATOM      7  C   UNL d   1      32.783  18.578 -23.010  0.00  0.00     0.419 C 
ATOM      8  F   UNL d   1      32.897  19.269 -22.740  0.00  0.00    -0.166 F 
ATOM      9  F   UNL d   1      33.023  19.292 -23.431  0.00  0.00    -0.166 F 
ATOM     10  F   UNL d   1      32.709  18.864 -22.202  0.00  0.00    -0.166 F 
ENDBRANCH   1   7
BRANCH   3  11
ATOM     11  N   UNL d   1      31.113  16.683 -24.368  0.00  0.00    -0.056 NA
ATOM     12  C   UNL d   1      30.550  16.225 -23.988  0.00  0.00     0.787 C 
ATOM     13  N   UNL d   1      29.843  16.036 -24.365  0.00  0.00     0.064 N 
ATOM     14  N   UNL d   1      30.695  15.954 -23.223  0.00  0.00     0.064 N 
ENDBRANCH   3  11
TORSDOF 2
ENDMDL
MODEL 6
REMARK VINA RESULT:      -2.3      4.645      5.321
REMARK  2 active torsions:
REMARK  status: ('A' for Active; 'I' for Inactive)
REMARK    1  A    between atoms: C_3  and  C_1 
REMARK       I    between atoms: C_2  and  N_4 
REMARK    2  A    between atoms: N_4  and  C_7 
ROOT
ATOM      1  C   UNL d   1      32.749  20.558 -21.635  0.00  0.00     0.073 A 
ATOM      2  C   UNL d   1      32.853  19.742 -21.717  0.00  0.00     0.024 A 
ATOM      3  C   UNL d   1      33.099  19.430 -22.440  0.00  0.00     0.100 A 
ATOM      4  C   UNL d   1      32.890  21.059 -22.273  0.00  0.00     0.004 A 
ATOM      5  C   UNL d   1      33.136  20.746 -22.996  0.00  0.00     0.002 A 
ATOM      6  C   UNL d   1      33.241  19.933 -23.080  0.00  0.00     0.020 A 
ENDROOT
BRANCH   1   7
ATOM      7  C   UNL d   1      32.501  20.874 -20.905  0.00  0.00     0.419 C 
ATOM      8  F   UNL d   1      32.277  21.158 -20.248  0.00  0.00    -0.166 F 
ATOM      9  F   UNL d   1      31.699  21.005 -20.616  0.00  0.00    -0.166 F 
ATOM     10  F   UNL d   1      32.976  21.152 -20.245  0.00  0.00    -0.166 F 
ENDBRANCH   1   7
BRANCH   3  11
ATOM     11  N   UNL d   1      33.205  18.616 -22.528  0.00  0.00    -0.056 NA
ATOM     12  C   UNL d   1      32.738  18.195 -23.054  0.00  0.00     0.787 C 
ATOM     13  N   UNL d   1      32.840  17.384 -23.145  0.00  0.00     0.064 N 
ATOM     14  N   UNL d   1      32.162  18.591 -23.492  0.00  0.00     0.064 N 
ENDBRANCH   3  11
TORSDOF 2
ENDMDL
MODEL 7
REMARK VINA RESULT:      -2.2      5.840      6.625
REMARK  2 active torsions:
REMARK  status: ('A' for Active; 'I' for Inactive)
REMARK    1  A    between atoms: C_3  and  C_1 
REMARK       I    between atoms: C_2  and  N_4 
REMARK    2  A    between atoms: N_4  and  C_7 
ROOT
ATOM      1  C   UNL d   1      33.035  20.318 -21.583  0.00  0.00     0.073 A 
ATOM      2  C   UNL d   1      32.934  21.075 -21.900  0.00  0.00     0.024 A 
ATOM      3  C   UNL d   1      32.986  21.736 -21.409  0.00  0.00     0.100 A 
ATOM      4  C   UNL d   1      33.189  20.223 -20.780  0.00  0.00     0.004 A 
ATOM      5  C   UNL d   1      33.241  20.885 -20.289  0.00  0.00     0.002 A 
ATOM      6  C   UNL d   1      33.140  21.640 -20.602  0.00  0.00     0.020 A 
ENDROOT
BRANCH   1   7
ATOM      7  C   UNL d   1      32.983  19.650 -22.079  0.00  0.00     0.419 C 
ATOM      8  F   UNL d   1      32.935  19.049 -22.525  0.00  0.00    -0.166 F 
ATOM      9  F   UNL d   1      33.136  18.822 -21.891  0.00  0.00    -0.166 F 
ATOM     10  F   UNL d   1      32.763  19.607 -22.908  0.00  0.00    -0.166 F 
ENDBRANCH   1   7
BRANCH   3  11
ATOM     11  N   UNL d   1      32.885  22.494 -21.719  0.00  0.00    -0.056 NA
ATOM     12  C   UNL d   1      32.238  22.946 -21.498  0.00  0.00     0.787 C 
ATOM     13  N   UNL d   1      32.135  23.702 -21.804  0.00  0.00     0.064 N 
ATOM     14  N   UNL d   1      31.690  22.638 -20.964  0.00  0.00     0.064 N 
ENDBRANCH   3  11
TORSDOF 2
ENDMDL
