MODEL 1
REMARK VINA RESULT:      -9.4      0.000      0.000
REMARK  5 active torsions:
REMARK  status: ('A' for Active; 'I' for Inactive)
REMARK    1  A    between atoms: S_10  and  C_1 
REMARK    2  A    between atoms: C_2  and  C_3 
REMARK    3  A    between atoms: C_13  and  C_6 
REMARK       I    between atoms: N_8  and  C_9 
REMARK    4  A    between atoms: C_9  and  C_11 
REMARK    5  A    between atoms: C_11  and  S_10 
ROOT
ATOM      1  C   UNL d   1      53.143  33.152  53.285  0.00  0.00     0.194 A 
ATOM      2  C   UNL d   1      54.143  32.972  54.299  0.00  0.00     0.156 A 
ATOM      3  N   UNL d   1      53.702  33.470  53.812  0.00  0.00    -0.217 NA
ATOM      4  N   UNL d   1      53.032  32.354  53.252  0.00  0.00    -0.221 NA
ATOM      5  C   UNL d   1      53.479  31.855  53.745  0.00  0.00     0.085 A 
ATOM      6  C   UNL d   1      54.033  32.174  54.266  0.00  0.00     0.042 A 
ENDROOT
BRANCH   1   7
ATOM      7  S   UNL d   1      52.700  33.664  52.795  0.00  0.00    -0.043 SA
BRANCH   7   8
ATOM      8  C   UNL d   1      51.910  33.837  52.970  0.00  0.00     0.099 C 
BRANCH   8   9
ATOM      9  C   UNL d   1      51.388  34.041  52.365  0.00  0.00     0.272 C 
ATOM     10  N   UNL d   1      50.642  34.361  52.547  0.00  0.00    -0.267 N 
ATOM     11  C   UNL d   1      50.425  34.475  53.337  0.00  0.00     0.110 A 
ATOM     12  C   UNL d   1      50.132  34.561  51.946  0.00  0.00     0.110 A 
ATOM     13  C   UNL d   1      49.698  34.787  53.525  0.00  0.00     0.142 A 
ATOM     14  O   UNL d   1      49.172  34.994  52.918  0.00  0.00    -0.300 OA
ATOM     15  C   UNL d   1      49.388  34.880  52.128  0.00  0.00     0.142 A 
ATOM     16  O   UNL d   1      51.607  33.927  51.568  0.00  0.00    -0.266 OA
ENDBRANCH   8   9
ENDBRANCH   7   8
ENDBRANCH   1   7
BRANCH   2  17
ATOM     17  C   UNL d   1      54.690  33.305  54.812  0.00  0.00     0.435 C 
ATOM     18  F   UNL d   1      55.253  33.644  55.327  0.00  0.00    -0.165 F 
ATOM     19  F   UNL d   1      55.271  33.225  54.212  0.00  0.00    -0.165 F 
ATOM     20  F   UNL d   1      54.108  33.383  55.406  0.00  0.00    -0.165 F 
ENDBRANCH   2  17
BRANCH   5  21
ATOM     21  C   UNL d   1      53.365  31.028  53.710  0.00  0.00     0.018 A 
ATOM     22  C   UNL d   1      53.300  30.646  52.972  0.00  0.00     0.002 A 
ATOM     23  C   UNL d   1      53.187  29.832  52.938  0.00  0.00     0.000 A 
ATOM     24  C   UNL d   1      53.139  29.387  53.642  0.00  0.00     0.000 A 
ATOM     25  C   UNL d   1      53.202  29.757  54.372  0.00  0.00     0.000 A 
ATOM     26  C   UNL d   1      53.318  30.597  54.407  0.00  0.00     0.002 A 
ENDBRANCH   5  21
TORSDOF 5
ENDMDL
MODEL 2
REMARK VINA RESULT:      -9.3      1.490      2.558
REMARK  5 active torsions:
REMARK  status: ('A' for Active; 'I' for Inactive)
REMARK    1  A    between atoms: S_10  and  C_1 
REMARK    2  A    between atoms: C_2  and  C_3 
REMARK    3  A    between atoms: C_13  and  C_6 
REMARK       I    between atoms: N_8  and  C_9 
REMARK    4  A    between atoms: C_9  and  C_11 
REMARK    5  A    between atoms: C_11  and  S_10 
ROOT
ATOM      1  C   UNL d   1      52.606  32.854  52.784  0.00  0.00     0.194 A 
ATOM      2  C   UNL d   1      53.010  31.530  53.167  0.00  0.00     0.156 A 
ATOM      3  N   UNL d   1      52.546  32.028  52.702  0.00  0.00    -0.217 NA
ATOM      4  N   UNL d   1      53.121  33.166  53.319  0.00  0.00    -0.221 NA
ATOM      5  C   UNL d   1      53.588  32.661  53.787  0.00  0.00     0.085 A 
ATOM      6  C   UNL d   1      53.525  31.843  53.703  0.00  0.00     0.042 A 
ENDROOT
BRANCH   1   7
ATOM      7  S   UNL d   1      52.132  33.351  52.309  0.00  0.00    -0.043 SA
BRANCH   7   8
ATOM      8  C   UNL d   1      51.472  33.735  52.628  0.00  0.00     0.099 C 
BRANCH   8   9
ATOM      9  C   UNL d   1      50.897  34.051  52.128  0.00  0.00     0.272 C 
ATOM     10  N   UNL d   1      50.242  34.454  52.447  0.00  0.00    -0.267 N 
ATOM     11  C   UNL d   1      50.170  34.536  53.266  0.00  0.00     0.110 A 
ATOM     12  C   UNL d   1      49.678  34.764  51.949  0.00  0.00     0.110 A 
ATOM     13  C   UNL d   1      49.534  34.928  53.588  0.00  0.00     0.142 A 
ATOM     14  O   UNL d   1      48.954  35.248  53.088  0.00  0.00    -0.300 OA
ATOM     15  C   UNL d   1      49.027  35.165  52.268  0.00  0.00     0.142 A 
ATOM     16  O   UNL d   1      50.970  33.968  51.301  0.00  0.00    -0.266 OA
ENDBRANCH   8   9
ENDBRANCH   7   8
ENDBRANCH   1   7
BRANCH   2  17
ATOM     17  C   UNL d   1      52.936  30.719  53.072  0.00  0.00     0.435 C 
ATOM     18  F   UNL d   1      52.868  29.893  52.970  0.00  0.00    -0.165 F 
ATOM     19  F   UNL d   1      53.686  30.715  52.696  0.00  0.00    -0.165 F 
ATOM     20  F   UNL d   1      52.189  30.728  53.447  0.00  0.00    -0.165 F 
ENDBRANCH   2  17
BRANCH   5  21
ATOM     21  C   UNL d   1      54.121  32.985  54.342  0.00  0.00     0.018 A 
ATOM     22  C   UNL d   1      53.952  32.943  55.157  0.00  0.00     0.002 A 
ATOM     23  C   UNL d   1      54.478  33.262  55.704  0.00  0.00     0.000 A 
ATOM     24  C   UNL d   1      55.181  33.628  55.443  0.00  0.00     0.000 A 
ATOM     25  C   UNL d   1      55.353  33.672  54.642  0.00  0.00     0.000 A 
ATOM     26  C   UNL d   1      54.811  33.343  54.078  0.00  0.00     0.002 A 
ENDBRANCH   5  21
TORSDOF 5
ENDMDL
MODEL 3
REMARK VINA RESULT:      -9.2      2.011      4.297
REMARK  5 active torsions:
REMARK  status: ('A' for Active; 'I' for Inactive)
REMARK    1  A    between atoms: S_10  and  C_1 
REMARK    2  A    between atoms: C_2  and  C_3 
REMARK    3  A    between atoms: C_13  and  C_6 
REMARK       I    between atoms: N_8  and  C_9 
REMARK    4  A    between atoms: C_9  and  C_11 
REMARK    5  A    between atoms: C_11  and  S_10 
ROOT
ATOM      1  C   UNL d   1      53.036  33.535  53.403  0.00  0.00     0.194 A 
ATOM      2  C   UNL d   1      52.811  34.862  53.905  0.00  0.00     0.156 A 
ATOM      3  N   UNL d   1      53.278  34.183  53.865  0.00  0.00    -0.217 NA
ATOM      4  N   UNL d   1      52.342  33.572  52.995  0.00  0.00    -0.221 NA
ATOM      5  C   UNL d   1      51.873  34.258  53.038  0.00  0.00     0.085 A 
ATOM      6  C   UNL d   1      52.117  34.899  53.496  0.00  0.00     0.042 A 
ENDROOT
BRANCH   1   7
ATOM      7  S   UNL d   1      53.515  32.851  53.368  0.00  0.00    -0.043 SA
BRANCH   7   8
ATOM      8  C   UNL d   1      53.175  32.098  53.368  0.00  0.00     0.099 C 
BRANCH   8   9
ATOM      9  C   UNL d   1      53.622  31.442  53.594  0.00  0.00     0.272 C 
ATOM     10  N   UNL d   1      53.290  30.680  53.565  0.00  0.00    -0.267 N 
ATOM     11  C   UNL d   1      52.511  30.580  53.308  0.00  0.00     0.110 A 
ATOM     12  C   UNL d   1      53.736  30.038  53.790  0.00  0.00     0.110 A 
ATOM     13  C   UNL d   1      52.178  29.839  53.277  0.00  0.00     0.142 A 
ATOM     14  O   UNL d   1      52.625  29.179  53.504  0.00  0.00    -0.300 OA
ATOM     15  C   UNL d   1      53.405  29.278  53.761  0.00  0.00     0.142 A 
ATOM     16  O   UNL d   1      54.409  31.543  53.854  0.00  0.00    -0.266 OA
ENDBRANCH   8   9
ENDBRANCH   7   8
ENDBRANCH   1   7
BRANCH   2  17
ATOM     17  C   UNL d   1      53.068  35.490  54.365  0.00  0.00     0.435 C 
ATOM     18  F   UNL d   1      53.333  36.133  54.827  0.00  0.00    -0.165 F 
ATOM     19  F   UNL d   1      53.345  35.862  53.667  0.00  0.00    -0.165 F 
ATOM     20  F   UNL d   1      52.791  35.115  55.059  0.00  0.00    -0.165 F 
ENDBRANCH   2  17
BRANCH   5  21
ATOM     21  C   UNL d   1      51.155  34.296  52.615  0.00  0.00     0.018 A 
ATOM     22  C   UNL d   1      50.431  34.364  53.025  0.00  0.00     0.002 A 
ATOM     23  C   UNL d   1      49.724  34.402  52.608  0.00  0.00     0.000 A 
ATOM     24  C   UNL d   1      49.727  34.372  51.775  0.00  0.00     0.000 A 
ATOM     25  C   UNL d   1      50.435  34.306  51.365  0.00  0.00     0.000 A 
ATOM     26  C   UNL d   1      51.165  34.267  51.794  0.00  0.00     0.002 A 
ENDBRANCH   5  21
TORSDOF 5
ENDMDL
MODEL 4
REMARK VINA RESULT:      -9.2      1.564      2.161
REMARK  5 active torsions:
REMARK  status: ('A' for Active; 'I' for Inactive)
REMARK    1  A    between atoms: S_10  and  C_1 
REMARK    2  A    between atoms: C_2  and  C_3 
REMARK    3  A    between atoms: C_13  and  C_6 
REMARK       I    between atoms: N_8  and  C_9 
REMARK    4  A    between atoms: C_9  and  C_11 
REMARK    5  A    between atoms: C_11  and  S_10 
ROOT
ATOM      1  C   UNL d   1      51.433  33.999  52.751  0.00  0.00     0.194 A 
ATOM      2  C   UNL d   1      52.512  34.552  53.521  0.00  0.00     0.156 A 
ATOM      3  N   UNL d   1      51.810  34.653  53.100  0.00  0.00    -0.217 NA
ATOM      4  N   UNL d   1      51.756  33.265  52.825  0.00  0.00    -0.221 NA
ATOM      5  C   UNL d   1      52.464  33.166  53.250  0.00  0.00     0.085 A 
ATOM      6  C   UNL d   1      52.835  33.817  53.595  0.00  0.00     0.042 A 
ENDROOT
BRANCH   1   7
ATOM      7  S   UNL d   1      50.722  34.111  52.326  0.00  0.00    -0.043 SA
BRANCH   7   8
ATOM      8  C   UNL d   1      50.094  34.535  52.659  0.00  0.00     0.099 C 
BRANCH   8   9
ATOM      9  C   UNL d   1      49.427  34.708  52.206  0.00  0.00     0.272 C 
ATOM     10  N   UNL d   1      48.829  35.198  52.513  0.00  0.00    -0.267 N 
ATOM     11  C   UNL d   1      48.905  35.511  53.275  0.00  0.00     0.110 A 
ATOM     12  C   UNL d   1      48.174  35.366  52.061  0.00  0.00     0.110 A 
ATOM     13  C   UNL d   1      48.326  35.991  53.584  0.00  0.00     0.142 A 
ATOM     14  O   UNL d   1      47.654  36.167  53.130  0.00  0.00    -0.300 OA
ATOM     15  C   UNL d   1      47.578  35.854  52.368  0.00  0.00     0.142 A 
ATOM     16  O   UNL d   1      49.351  34.393  51.436  0.00  0.00    -0.266 OA
ENDBRANCH   8   9
ENDBRANCH   7   8
ENDBRANCH   1   7
BRANCH   2  17
ATOM     17  C   UNL d   1      52.868  35.209  53.858  0.00  0.00     0.435 C 
ATOM     18  F   UNL d   1      53.234  35.881  54.193  0.00  0.00    -0.165 F 
ATOM     19  F   UNL d   1      53.251  35.352  53.126  0.00  0.00    -0.165 F 
ATOM     20  F   UNL d   1      52.483  35.064  54.586  0.00  0.00    -0.165 F 
ENDBRANCH   2  17
BRANCH   5  21
ATOM     21  C   UNL d   1      52.799  32.405  53.327  0.00  0.00     0.018 A 
ATOM     22  C   UNL d   1      53.383  32.261  53.905  0.00  0.00     0.002 A 
ATOM     23  C   UNL d   1      53.713  31.512  53.981  0.00  0.00     0.000 A 
ATOM     24  C   UNL d   1      53.464  30.894  53.479  0.00  0.00     0.000 A 
ATOM     25  C   UNL d   1      52.890  31.028  52.908  0.00  0.00     0.000 A 
ATOM     26  C   UNL d   1      52.550  31.801  52.830  0.00  0.00     0.002 A 
ENDBRANCH   5  21
TORSDOF 5
ENDMDL
MODEL 5
REMARK VINA RESULT:      -8.3      2.356      4.556
REMARK  5 active torsions:
REMARK  status: ('A' for Active; 'I' for Inactive)
REMARK    1  A    between atoms: S_10  and  C_1 
REMARK    2  A    between atoms: C_2  and  C_3 
REMARK    3  A    between atoms: C_13  and  C_6 
REMARK       I    between atoms: N_8  and  C_9 
REMARK    4  A    between atoms: C_9  and  C_11 
REMARK    5  A    between atoms: C_11  and  S_10 
ROOT
ATOM      1  C   UNL d   1      52.792  32.207  53.144  0.00  0.00     0.194 A 
ATOM      2  C   UNL d   1      52.277  33.547  53.102  0.00  0.00     0.156 A 
ATOM      3  N   UNL d   1      52.223  32.754  52.881  0.00  0.00    -0.217 NA
ATOM      4  N   UNL d   1      53.396  32.454  53.617  0.00  0.00    -0.221 NA
ATOM      5  C   UNL d   1      53.447  33.254  53.838  0.00  0.00     0.085 A 
ATOM      6  C   UNL d   1      52.881  33.794  53.575  0.00  0.00     0.042 A 
ENDROOT
BRANCH   1   7
ATOM      7  S   UNL d   1      52.730  31.406  52.915  0.00  0.00    -0.043 SA
BRANCH   7   8
ATOM      8  C   UNL d   1      52.685  30.807  53.484  0.00  0.00     0.099 C 
BRANCH   8   9
ATOM      9  C   UNL d   1      52.944  30.045  53.303  0.00  0.00     0.272 C 
ATOM     10  N   UNL d   1      53.108  29.504  53.913  0.00  0.00    -0.267 N 
ATOM     11  C   UNL d   1      53.009  29.732  54.702  0.00  0.00     0.110 A 
ATOM     12  C   UNL d   1      53.364  28.754  53.729  0.00  0.00     0.110 A 
ATOM     13  C   UNL d   1      53.166  29.210  55.306  0.00  0.00     0.142 A 
ATOM     14  O   UNL d   1      53.428  28.443  55.127  0.00  0.00    -0.300 OA
ATOM     15  C   UNL d   1      53.527  28.215  54.338  0.00  0.00     0.142 A 
ATOM     16  O   UNL d   1      53.044  29.815  52.507  0.00  0.00    -0.266 OA
ENDBRANCH   8   9
ENDBRANCH   7   8
ENDBRANCH   1   7
BRANCH   2  17
ATOM     17  C   UNL d   1      51.706  34.071  52.832  0.00  0.00     0.435 C 
ATOM     18  F   UNL d   1      51.120  34.601  52.563  0.00  0.00    -0.165 F 
ATOM     19  F   UNL d   1      51.188  33.779  53.423  0.00  0.00    -0.165 F 
ATOM     20  F   UNL d   1      52.227  34.358  52.244  0.00  0.00    -0.165 F 
ENDBRANCH   2  17
BRANCH   5  21
ATOM     21  C   UNL d   1      54.073  33.510  54.328  0.00  0.00     0.018 A 
ATOM     22  C   UNL d   1      53.917  33.760  55.109  0.00  0.00     0.002 A 
ATOM     23  C   UNL d   1      54.534  34.012  55.591  0.00  0.00     0.000 A 
ATOM     24  C   UNL d   1      55.316  34.018  55.301  0.00  0.00     0.000 A 
ATOM     25  C   UNL d   1      55.476  33.774  54.534  0.00  0.00     0.000 A 
ATOM     26  C   UNL d   1      54.840  33.514  54.036  0.00  0.00     0.002 A 
ENDBRANCH   5  21
TORSDOF 5
ENDMDL
MODEL 6
REMARK VINA RESULT:      -7.3      2.112      3.318
REMARK  5 active torsions:
REMARK  status: ('A' for Active; 'I' for Inactive)
REMARK    1  A    between atoms: S_10  and  C_1 
REMARK    2  A    between atoms: C_2  and  C_3 
REMARK    3  A    between atoms: C_13  and  C_6 
REMARK       I    between atoms: N_8  and  C_9 
REMARK    4  A    between atoms: C_9  and  C_11 
REMARK    5  A    between atoms: C_11  and  S_10 
ROOT
ATOM      1  C   UNL d   1      51.204  33.819  52.530  0.00  0.00     0.194 A 
ATOM      2  C   UNL d   1      52.029  32.695  52.875  0.00  0.00     0.156 A 
ATOM      3  N   UNL d   1      51.402  33.015  52.445  0.00  0.00    -0.217 NA
ATOM      4  N   UNL d   1      51.627  34.284  53.035  0.00  0.00    -0.221 NA
ATOM      5  C   UNL d   1      52.258  33.957  53.466  0.00  0.00     0.085 A 
ATOM      6  C   UNL d   1      52.452  33.160  53.379  0.00  0.00     0.042 A 
ENDROOT
BRANCH   1   7
ATOM      7  S   UNL d   1      50.568  34.136  52.091  0.00  0.00    -0.043 SA
BRANCH   7   8
ATOM      8  C   UNL d   1      49.942  34.519  52.472  0.00  0.00     0.099 C 
BRANCH   8   9
ATOM      9  C   UNL d   1      49.271  34.739  52.046  0.00  0.00     0.272 C 
ATOM     10  N   UNL d   1      48.698  35.232  52.393  0.00  0.00    -0.267 N 
ATOM     11  C   UNL d   1      48.803  35.501  53.168  0.00  0.00     0.110 A 
ATOM     12  C   UNL d   1      48.038  35.445  51.967  0.00  0.00     0.110 A 
ATOM     13  C   UNL d   1      48.248  35.984  53.516  0.00  0.00     0.142 A 
ATOM     14  O   UNL d   1      47.572  36.206  53.089  0.00  0.00    -0.300 OA
ATOM     15  C   UNL d   1      47.468  35.937  52.314  0.00  0.00     0.142 A 
ATOM     16  O   UNL d   1      49.165  34.467  51.263  0.00  0.00    -0.266 OA
ENDBRANCH   8   9
ENDBRANCH   7   8
ENDBRANCH   1   7
BRANCH   2  17
ATOM     17  C   UNL d   1      52.208  31.901  52.776  0.00  0.00     0.435 C 
ATOM     18  F   UNL d   1      52.397  31.094  52.671  0.00  0.00    -0.165 F 
ATOM     19  F   UNL d   1      52.835  32.126  52.267  0.00  0.00    -0.165 F 
ATOM     20  F   UNL d   1      51.582  31.681  53.285  0.00  0.00    -0.165 F 
ENDBRANCH   2  17
BRANCH   5  21
ATOM     21  C   UNL d   1      52.697  34.439  53.989  0.00  0.00     0.018 A 
ATOM     22  C   UNL d   1      52.846  35.237  53.796  0.00  0.00     0.002 A 
ATOM     23  C   UNL d   1      53.277  35.711  54.310  0.00  0.00     0.000 A 
ATOM     24  C   UNL d   1      53.566  35.396  55.027  0.00  0.00     0.000 A 
ATOM     25  C   UNL d   1      53.423  34.612  55.223  0.00  0.00     0.000 A 
ATOM     26  C   UNL d   1      52.978  34.123  54.692  0.00  0.00     0.002 A 
ENDBRANCH   5  21
TORSDOF 5
ENDMDL
