MODEL 1
REMARK VINA RESULT:      -4.8      0.000      0.000
REMARK  8 active torsions:
REMARK  status: ('A' for Active; 'I' for Inactive)
REMARK    1  A    between atoms: C_4  and  C_1 
REMARK    2  A    between atoms: C_10  and  C_2 
REMARK    3  A    between atoms: C_15  and  C_9 
REMARK    4  A    between atoms: O_21  and  C_10 
REMARK    5  A    between atoms: O_22  and  C_15 
REMARK    6  A    between atoms: C_24  and  C_17 
REMARK    7  A    between atoms: C_25  and  O_21 
REMARK    8  A    between atoms: C_26  and  O_22 
ROOT
ATOM      1  C   UNL d   1     -39.944  15.132  20.189  0.00  0.00     0.090 A 
ATOM      2  C   UNL d   1     -40.685  14.826  20.001  0.00  0.00     0.168 A 
ATOM      3  C   UNL d   1     -39.400  15.288  19.589  0.00  0.00     0.201 A 
ATOM      4  C   UNL d   1     -39.597  15.137  18.808  0.00  0.00     0.062 A 
ATOM      5  O   UNL d   1     -40.882  14.675  19.214  0.00  0.00    -0.301 OA
ATOM      6  C   UNL d   1     -40.339  14.831  18.620  0.00  0.00     0.106 A 
ATOM      7  C   UNL d   1     -39.060  15.293  18.236  0.00  0.00     0.008 A 
ATOM      8  C   UNL d   1     -40.542  14.680  17.861  0.00  0.00     0.067 A 
ATOM      9  C   UNL d   1     -39.998  14.836  17.261  0.00  0.00     0.198 A 
ATOM     10  C   UNL d   1     -39.256  15.142  17.449  0.00  0.00     0.039 A 
ATOM     11  O   UNL d   1     -38.658  15.594  19.776  0.00  0.00    -0.286 OA
ATOM     12  O   UNL d   1     -40.208  14.677  16.442  0.00  0.00    -0.286 OA
ENDROOT
BRANCH   1  13
ATOM     13  C   UNL d   1     -39.741  15.283  20.949  0.00  0.00     0.105 A 
ATOM     14  O   UNL d   1     -39.253  14.804  21.367  0.00  0.00    -0.302 OA
ATOM     15  C   UNL d   1     -39.159  15.122  22.136  0.00  0.00     0.163 A 
ATOM     16  C   UNL d   1     -39.612  15.818  22.172  0.00  0.00     0.032 A 
ATOM     17  C   UNL d   1     -39.977  15.917  21.423  0.00  0.00     0.027 A 
BRANCH  15  18
ATOM     18  C   UNL d   1     -38.689  14.792  22.758  0.00  0.00     0.323 C 
ATOM     19  O   UNL d   1     -38.227  15.268  23.232  0.00  0.00    -0.257 OA
BRANCH  18  20
ATOM     20  O   UNL d   1     -38.695  13.964  22.892  0.00  0.00    -0.270 OA
BRANCH  20  21
ATOM     21  C   UNL d   1     -38.244  13.636  23.493  0.00  0.00     0.126 C 
ATOM     22  C   UNL d   1     -38.253  12.837  23.640  0.00  0.00     0.029 C 
ENDBRANCH  20  21
ENDBRANCH  18  20
ENDBRANCH  15  18
ENDBRANCH   1  13
BRANCH   2  23
ATOM     23  C   UNL d   1     -41.250  14.661  20.591  0.00  0.00     0.323 C 
ATOM     24  O   UNL d   1     -41.646  15.295  20.952  0.00  0.00    -0.257 OA
BRANCH  23  25
ATOM     25  O   UNL d   1     -41.420  13.889  20.820  0.00  0.00    -0.270 OA
BRANCH  25  26
ATOM     26  C   UNL d   1     -42.208  13.659  20.937  0.00  0.00     0.126 C 
ATOM     27  C   UNL d   1     -42.376  12.975  21.366  0.00  0.00     0.029 C 
ENDBRANCH  25  26
ENDBRANCH  23  25
ENDBRANCH   2  23
BRANCH  10  28
ATOM     28  C   UNL d   1     -38.705  15.298  16.822  0.00  0.00     0.003 C 
ATOM     29  C   UNL d   1     -38.095  14.771  16.649  0.00  0.00     0.000 C 
ENDBRANCH  10  28
TORSDOF 8
ENDMDL
MODEL 2
REMARK VINA RESULT:      -3.4      5.662      8.611
REMARK  8 active torsions:
REMARK  status: ('A' for Active; 'I' for Inactive)
REMARK    1  A    between atoms: C_4  and  C_1 
REMARK    2  A    between atoms: C_10  and  C_2 
REMARK    3  A    between atoms: C_15  and  C_9 
REMARK    4  A    between atoms: O_21  and  C_10 
REMARK    5  A    between atoms: O_22  and  C_15 
REMARK    6  A    between atoms: C_24  and  C_17 
REMARK    7  A    between atoms: C_25  and  O_21 
REMARK    8  A    between atoms: C_26  and  O_22 
ROOT
ATOM      1  C   UNL d   1     -47.049  12.840  22.634  0.00  0.00     0.090 A 
ATOM      2  C   UNL d   1     -47.064  12.175  23.121  0.00  0.00     0.168 A 
ATOM      3  C   UNL d   1     -47.757  13.174  22.374  0.00  0.00     0.201 A 
ATOM      4  C   UNL d   1     -48.473  12.845  22.600  0.00  0.00     0.062 A 
ATOM      5  O   UNL d   1     -47.786  11.845  23.347  0.00  0.00    -0.301 OA
ATOM      6  C   UNL d   1     -48.487  12.180  23.086  0.00  0.00     0.106 A 
ATOM      7  C   UNL d   1     -49.151  13.179  22.340  0.00  0.00     0.008 A 
ATOM      8  C   UNL d   1     -49.180  11.851  23.313  0.00  0.00     0.067 A 
ATOM      9  C   UNL d   1     -49.888  12.186  23.052  0.00  0.00     0.198 A 
ATOM     10  C   UNL d   1     -49.873  12.851  22.565  0.00  0.00     0.039 A 
ATOM     11  O   UNL d   1     -47.742  13.839  21.887  0.00  0.00    -0.286 OA
ATOM     12  O   UNL d   1     -50.638  11.838  23.291  0.00  0.00    -0.286 OA
ENDROOT
BRANCH   1  13
ATOM     13  C   UNL d   1     -46.355  13.169  22.408  0.00  0.00     0.105 A 
ATOM     14  O   UNL d   1     -45.827  12.784  21.944  0.00  0.00    -0.302 OA
ATOM     15  C   UNL d   1     -45.168  13.284  21.816  0.00  0.00     0.163 A 
ATOM     16  C   UNL d   1     -45.314  13.994  22.223  0.00  0.00     0.032 A 
ATOM     17  C   UNL d   1     -46.062  13.919  22.595  0.00  0.00     0.027 A 
BRANCH  15  18
ATOM     18  C   UNL d   1     -44.482  13.096  21.356  0.00  0.00     0.323 C 
ATOM     19  O   UNL d   1     -44.523  12.559  20.744  0.00  0.00    -0.257 OA
BRANCH  18  20
ATOM     20  O   UNL d   1     -43.749  13.465  21.528  0.00  0.00    -0.270 OA
BRANCH  20  21
ATOM     21  C   UNL d   1     -43.064  13.229  21.146  0.00  0.00     0.126 C 
ATOM     22  C   UNL d   1     -42.331  13.372  21.465  0.00  0.00     0.029 C 
ENDBRANCH  20  21
ENDBRANCH  18  20
ENDBRANCH  15  18
ENDBRANCH   1  13
BRANCH   2  23
ATOM     23  C   UNL d   1     -46.362  11.821  23.395  0.00  0.00     0.323 C 
ATOM     24  O   UNL d   1     -45.761  12.308  23.697  0.00  0.00    -0.257 OA
BRANCH  23  25
ATOM     25  O   UNL d   1     -46.254  11.006  23.373  0.00  0.00    -0.270 OA
BRANCH  25  26
ATOM     26  C   UNL d   1     -45.567  10.672  23.698  0.00  0.00     0.126 C 
ATOM     27  C   UNL d   1     -45.374   9.889  23.529  0.00  0.00     0.029 C 
ENDBRANCH  25  26
ENDBRANCH  23  25
ENDBRANCH   2  23
BRANCH  10  28
ATOM     28  C   UNL d   1     -50.609  13.185  22.304  0.00  0.00     0.003 C 
ATOM     29  C   UNL d   1     -50.762  13.306  21.503  0.00  0.00     0.000 C 
ENDBRANCH  10  28
TORSDOF 8
ENDMDL
MODEL 3
REMARK VINA RESULT:      -2.9      5.616      8.405
REMARK  8 active torsions:
REMARK  status: ('A' for Active; 'I' for Inactive)
REMARK    1  A    between atoms: C_4  and  C_1 
REMARK    2  A    between atoms: C_10  and  C_2 
REMARK    3  A    between atoms: C_15  and  C_9 
REMARK    4  A    between atoms: O_21  and  C_10 
REMARK    5  A    between atoms: O_22  and  C_15 
REMARK    6  A    between atoms: C_24  and  C_17 
REMARK    7  A    between atoms: C_25  and  O_21 
REMARK    8  A    between atoms: C_26  and  O_22 
ROOT
ATOM      1  C   UNL d   1     -46.791  13.453  22.564  0.00  0.00     0.090 A 
ATOM      2  C   UNL d   1     -46.925  12.718  22.914  0.00  0.00     0.168 A 
ATOM      3  C   UNL d   1     -46.046  13.633  22.261  0.00  0.00     0.201 A 
ATOM      4  C   UNL d   1     -45.440  13.083  22.306  0.00  0.00     0.062 A 
ATOM      5  O   UNL d   1     -46.314  12.166  22.959  0.00  0.00    -0.301 OA
ATOM      6  C   UNL d   1     -45.575  12.349  22.656  0.00  0.00     0.106 A 
ATOM      7  C   UNL d   1     -44.723  13.271  22.008  0.00  0.00     0.008 A 
ATOM      8  C   UNL d   1     -44.991  11.803  22.706  0.00  0.00     0.067 A 
ATOM      9  C   UNL d   1     -44.246  11.985  22.402  0.00  0.00     0.198 A 
ATOM     10  C   UNL d   1     -44.112  12.719  22.052  0.00  0.00     0.039 A 
ATOM     11  O   UNL d   1     -45.912  14.367  21.911  0.00  0.00    -0.286 OA
ATOM     12  O   UNL d   1     -43.612  11.404  22.451  0.00  0.00    -0.286 OA
ENDROOT
BRANCH   1  13
ATOM     13  C   UNL d   1     -47.376  13.997  22.515  0.00  0.00     0.105 A 
ATOM     14  O   UNL d   1     -47.991  13.924  22.006  0.00  0.00    -0.302 OA
ATOM     15  C   UNL d   1     -48.496  14.585  22.098  0.00  0.00     0.163 A 
ATOM     16  C   UNL d   1     -48.164  15.069  22.687  0.00  0.00     0.032 A 
ATOM     17  C   UNL d   1     -47.459  14.697  22.948  0.00  0.00     0.027 A 
BRANCH  15  18
ATOM     18  C   UNL d   1     -49.211  14.730  21.668  0.00  0.00     0.323 C 
ATOM     19  O   UNL d   1     -49.421  15.486  21.447  0.00  0.00    -0.257 OA
BRANCH  18  20
ATOM     20  O   UNL d   1     -49.713  14.090  21.465  0.00  0.00    -0.270 OA
BRANCH  20  21
ATOM     21  C   UNL d   1     -50.525  14.151  21.557  0.00  0.00     0.126 C 
ATOM     22  C   UNL d   1     -51.031  13.606  21.230  0.00  0.00     0.029 C 
ENDBRANCH  20  21
ENDBRANCH  18  20
ENDBRANCH  15  18
ENDBRANCH   1  13
BRANCH   2  23
ATOM     23  C   UNL d   1     -47.670  12.515  23.227  0.00  0.00     0.323 C 
ATOM     24  O   UNL d   1     -48.069  13.069  23.698  0.00  0.00    -0.257 OA
BRANCH  23  25
ATOM     25  O   UNL d   1     -48.013  11.782  23.079  0.00  0.00    -0.270 OA
BRANCH  25  26
ATOM     26  C   UNL d   1     -48.606  11.495  23.583  0.00  0.00     0.126 C 
ATOM     27  C   UNL d   1     -49.208  11.023  23.279  0.00  0.00     0.029 C 
ENDBRANCH  25  26
ENDBRANCH  23  25
ENDBRANCH   2  23
BRANCH  10  28
ATOM     28  C   UNL d   1     -43.340  12.892  21.743  0.00  0.00     0.003 C 
ATOM     29  C   UNL d   1     -43.214  12.975  20.933  0.00  0.00     0.000 C 
ENDBRANCH  10  28
TORSDOF 8
ENDMDL
MODEL 4
REMARK VINA RESULT:      -2.7      5.977      8.845
REMARK  8 active torsions:
REMARK  status: ('A' for Active; 'I' for Inactive)
REMARK    1  A    between atoms: C_4  and  C_1 
REMARK    2  A    between atoms: C_10  and  C_2 
REMARK    3  A    between atoms: C_15  and  C_9 
REMARK    4  A    between atoms: O_21  and  C_10 
REMARK    5  A    between atoms: O_22  and  C_15 
REMARK    6  A    between atoms: C_24  and  C_17 
REMARK    7  A    between atoms: C_25  and  O_21 
REMARK    8  A    between atoms: C_26  and  O_22 
ROOT
ATOM      1  C   UNL d   1     -47.250  12.958  22.707  0.00  0.00     0.090 A 
ATOM      2  C   UNL d   1     -47.225  13.781  22.724  0.00  0.00     0.168 A 
ATOM      3  C   UNL d   1     -46.578  12.531  22.492  0.00  0.00     0.201 A 
ATOM      4  C   UNL d   1     -45.887  12.925  22.295  0.00  0.00     0.062 A 
ATOM      5  O   UNL d   1     -46.529  14.176  22.525  0.00  0.00    -0.301 OA
ATOM      6  C   UNL d   1     -45.863  13.749  22.312  0.00  0.00     0.106 A 
ATOM      7  C   UNL d   1     -45.243  12.499  22.089  0.00  0.00     0.008 A 
ATOM      8  C   UNL d   1     -45.194  14.145  22.122  0.00  0.00     0.067 A 
ATOM      9  C   UNL d   1     -44.522  13.717  21.907  0.00  0.00     0.198 A 
ATOM     10  C   UNL d   1     -44.546  12.893  21.890  0.00  0.00     0.039 A 
ATOM     11  O   UNL d   1     -46.603  11.707  22.476  0.00  0.00    -0.286 OA
ATOM     12  O   UNL d   1     -43.798  14.135  21.701  0.00  0.00    -0.286 OA
ENDROOT
BRANCH   1  13
ATOM     13  C   UNL d   1     -47.920  12.562  22.897  0.00  0.00     0.105 A 
ATOM     14  O   UNL d   1     -48.555  12.531  22.410  0.00  0.00    -0.302 OA
ATOM     15  C   UNL d   1     -49.154  12.076  22.777  0.00  0.00     0.163 A 
ATOM     16  C   UNL d   1     -48.859  11.829  23.514  0.00  0.00     0.032 A 
ATOM     17  C   UNL d   1     -48.082  12.136  23.588  0.00  0.00     0.027 A 
BRANCH  15  18
ATOM     18  C   UNL d   1     -49.917  11.903  22.454  0.00  0.00     0.323 C 
ATOM     19  O   UNL d   1     -50.447  11.434  22.859  0.00  0.00    -0.257 OA
BRANCH  18  20
ATOM     20  O   UNL d   1     -50.136  12.216  21.708  0.00  0.00    -0.270 OA
BRANCH  20  21
ATOM     21  C   UNL d   1     -50.873  12.557  21.598  0.00  0.00     0.126 C 
ATOM     22  C   UNL d   1     -51.033  13.022  20.952  0.00  0.00     0.029 C 
ENDBRANCH  20  21
ENDBRANCH  18  20
ENDBRANCH  15  18
ENDBRANCH   1  13
BRANCH   2  23
ATOM     23  C   UNL d   1     -47.892  14.232  22.938  0.00  0.00     0.323 C 
ATOM     24  O   UNL d   1     -48.211  14.136  23.698  0.00  0.00    -0.257 OA
BRANCH  23  25
ATOM     25  O   UNL d   1     -48.236  14.766  22.414  0.00  0.00    -0.270 OA
BRANCH  25  26
ATOM     26  C   UNL d   1     -48.727  15.369  22.704  0.00  0.00     0.126 C 
ATOM     27  C   UNL d   1     -49.046  15.922  22.183  0.00  0.00     0.029 C 
ENDBRANCH  25  26
ENDBRANCH  23  25
ENDBRANCH   2  23
BRANCH  10  28
ATOM     28  C   UNL d   1     -43.848  12.466  21.667  0.00  0.00     0.003 C 
ATOM     29  C   UNL d   1     -43.517  11.898  22.166  0.00  0.00     0.000 C 
ENDBRANCH  10  28
TORSDOF 8
ENDMDL
MODEL 5
REMARK VINA RESULT:      -2.6      5.791      8.593
REMARK  8 active torsions:
REMARK  status: ('A' for Active; 'I' for Inactive)
REMARK    1  A    between atoms: C_4  and  C_1 
REMARK    2  A    between atoms: C_10  and  C_2 
REMARK    3  A    between atoms: C_15  and  C_9 
REMARK    4  A    between atoms: O_21  and  C_10 
REMARK    5  A    between atoms: O_22  and  C_15 
REMARK    6  A    between atoms: C_24  and  C_17 
REMARK    7  A    between atoms: C_25  and  O_21 
REMARK    8  A    between atoms: C_26  and  O_22 
ROOT
ATOM      1  C   UNL d   1     -47.146  13.483  22.761  0.00  0.00     0.090 A 
ATOM      2  C   UNL d   1     -47.378  12.795  23.151  0.00  0.00     0.168 A 
ATOM      3  C   UNL d   1     -47.708  14.052  22.561  0.00  0.00     0.201 A 
ATOM      4  C   UNL d   1     -48.496  13.934  22.751  0.00  0.00     0.062 A 
ATOM      5  O   UNL d   1     -48.173  12.678  23.341  0.00  0.00    -0.301 OA
ATOM      6  C   UNL d   1     -48.729  13.246  23.141  0.00  0.00     0.106 A 
ATOM      7  C   UNL d   1     -49.031  14.494  22.552  0.00  0.00     0.008 A 
ATOM      8  C   UNL d   1     -49.496  13.120  23.331  0.00  0.00     0.067 A 
ATOM      9  C   UNL d   1     -50.058  13.690  23.131  0.00  0.00     0.198 A 
ATOM     10  C   UNL d   1     -49.825  14.378  22.741  0.00  0.00     0.039 A 
ATOM     11  O   UNL d   1     -47.476  14.740  22.171  0.00  0.00    -0.286 OA
ATOM     12  O   UNL d   1     -50.885  13.562  23.332  0.00  0.00    -0.286 OA
ENDROOT
BRANCH   1  13
ATOM     13  C   UNL d   1     -46.378  13.608  22.571  0.00  0.00     0.105 A 
ATOM     14  O   UNL d   1     -45.995  13.175  22.016  0.00  0.00    -0.302 OA
ATOM     15  C   UNL d   1     -45.207  13.450  21.957  0.00  0.00     0.163 A 
ATOM     16  C   UNL d   1     -45.122  14.073  22.501  0.00  0.00     0.032 A 
ATOM     17  C   UNL d   1     -45.860  14.170  22.887  0.00  0.00     0.027 A 
BRANCH  15  18
ATOM     18  C   UNL d   1     -44.611  13.147  21.438  0.00  0.00     0.323 C 
ATOM     19  O   UNL d   1     -44.811  12.805  20.726  0.00  0.00    -0.257 OA
BRANCH  18  20
ATOM     20  O   UNL d   1     -43.802  13.197  21.655  0.00  0.00    -0.270 OA
BRANCH  20  21
ATOM     21  C   UNL d   1     -43.220  12.888  21.167  0.00  0.00     0.126 C 
ATOM     22  C   UNL d   1     -42.435  13.054  21.289  0.00  0.00     0.029 C 
ENDBRANCH  20  21
ENDBRANCH  18  20
ENDBRANCH  15  18
ENDBRANCH   1  13
BRANCH   2  23
ATOM     23  C   UNL d   1     -46.828  12.207  23.362  0.00  0.00     0.323 C 
ATOM     24  O   UNL d   1     -46.102  12.440  23.690  0.00  0.00    -0.257 OA
BRANCH  23  25
ATOM     25  O   UNL d   1     -46.989  11.408  23.252  0.00  0.00    -0.270 OA
BRANCH  25  26
ATOM     26  C   UNL d   1     -46.580  10.840  23.697  0.00  0.00     0.126 C 
ATOM     27  C   UNL d   1     -46.436  10.095  23.377  0.00  0.00     0.029 C 
ENDBRANCH  25  26
ENDBRANCH  23  25
ENDBRANCH   2  23
BRANCH  10  28
ATOM     28  C   UNL d   1     -50.414  14.956  22.542  0.00  0.00     0.003 C 
ATOM     29  C   UNL d   1     -50.372  15.382  21.837  0.00  0.00     0.000 C 
ENDBRANCH  10  28
TORSDOF 8
ENDMDL
