MODEL 1
REMARK VINA RESULT:      -7.6      0.000      0.000
REMARK  5 active torsions:
REMARK  status: ('A' for Active; 'I' for Inactive)
REMARK    1  A    between atoms: C_13  and  C_5 
REMARK    2  A    between atoms: C_16  and  C_13 
REMARK    3  A    between atoms: C_19  and  C_16 
REMARK    4  A    between atoms: C_17  and  C_18 
REMARK    5  A    between atoms: C_18  and  C_19 
ROOT
ATOM      1  C   UNL d   1     -49.403  12.737  22.895  0.00  0.00     0.111 A 
ATOM      2  C   UNL d   1     -49.457  14.175  22.999  0.00  0.00     0.062 A 
ATOM      3  C   UNL d   1     -50.101  12.681  23.306  0.00  0.00     0.213 A 
ATOM      4  C   UNL d   1     -50.192  14.099  23.430  0.00  0.00     0.105 A 
ATOM      5  C   UNL d   1     -49.069  13.496  22.735  0.00  0.00     0.018 A 
ATOM      6  O   UNL d   1     -50.513  13.390  23.585  0.00  0.00    -0.287 OA
ATOM      7  C   UNL d   1     -49.015  12.058  22.631  0.00  0.00     0.105 C 
ATOM      8  C   UNL d   1     -49.151  14.920  22.854  0.00  0.00     0.198 A 
ATOM      9  N   UNL d   1     -48.617  11.364  22.362  0.00  0.00    -0.191 NA
ATOM     10  N   UNL d   1     -50.457  11.910  23.479  0.00  0.00    -0.120 N 
ATOM     11  O   UNL d   1     -48.429  14.967  22.429  0.00  0.00    -0.286 OA
ATOM     12  C   UNL d   1     -50.585  14.794  23.698  0.00  0.00     0.025 A 
ATOM     13  C   UNL d   1     -49.544  15.598  23.121  0.00  0.00     0.042 A 
ATOM     14  C   UNL d   1     -50.260  15.541  23.542  0.00  0.00     0.005 A 
ENDROOT
BRANCH   5  15
ATOM     15  C   UNL d   1     -48.375  13.552  22.327  0.00  0.00     0.001 C 
BRANCH  15  16
ATOM     16  C   UNL d   1     -47.665  13.383  22.680  0.00  0.00     0.000 C 
BRANCH  16  17
ATOM     17  C   UNL d   1     -46.926  13.399  22.250  0.00  0.00     0.000 C 
BRANCH  17  18
ATOM     18  C   UNL d   1     -46.221  13.337  22.662  0.00  0.00     0.000 C 
BRANCH  18  19
ATOM     19  C   UNL d   1     -45.518  13.456  22.250  0.00  0.00     0.000 C 
ATOM     20  C   UNL d   1     -44.980  12.857  22.190  0.00  0.00     0.000 C 
ENDBRANCH  18  19
ENDBRANCH  17  18
ENDBRANCH  16  17
ENDBRANCH  15  16
ENDBRANCH   5  15
TORSDOF 5
ENDMDL
MODEL 2
REMARK VINA RESULT:      -7.4      1.502      2.325
REMARK  5 active torsions:
REMARK  status: ('A' for Active; 'I' for Inactive)
REMARK    1  A    between atoms: C_13  and  C_5 
REMARK    2  A    between atoms: C_16  and  C_13 
REMARK    3  A    between atoms: C_19  and  C_16 
REMARK    4  A    between atoms: C_17  and  C_18 
REMARK    5  A    between atoms: C_18  and  C_19 
ROOT
ATOM      1  C   UNL d   1     -48.898  14.191  22.725  0.00  0.00     0.111 A 
ATOM      2  C   UNL d   1     -49.032  12.842  23.216  0.00  0.00     0.062 A 
ATOM      3  C   UNL d   1     -49.697  14.219  22.582  0.00  0.00     0.213 A 
ATOM      4  C   UNL d   1     -49.872  12.887  23.061  0.00  0.00     0.105 A 
ATOM      5  C   UNL d   1     -48.553  13.492  23.048  0.00  0.00     0.018 A 
ATOM      6  O   UNL d   1     -50.206  13.540  22.757  0.00  0.00    -0.287 OA
ATOM      7  C   UNL d   1     -48.418  14.841  22.556  0.00  0.00     0.105 C 
ATOM      8  C   UNL d   1     -48.718  12.154  23.530  0.00  0.00     0.198 A 
ATOM      9  N   UNL d   1     -47.927  15.506  22.383  0.00  0.00    -0.191 NA
ATOM     10  N   UNL d   1     -50.067  14.929  22.251  0.00  0.00    -0.120 N 
ATOM     11  O   UNL d   1     -47.891  12.136  23.673  0.00  0.00    -0.286 OA
ATOM     12  C   UNL d   1     -50.359  12.222  23.234  0.00  0.00     0.025 A 
ATOM     13  C   UNL d   1     -49.203  11.505  23.698  0.00  0.00     0.042 A 
ATOM     14  C   UNL d   1     -50.023  11.534  23.552  0.00  0.00     0.005 A 
ENDROOT
BRANCH   5  15
ATOM     15  C   UNL d   1     -47.759  13.464  23.189  0.00  0.00     0.001 C 
BRANCH  15  16
ATOM     16  C   UNL d   1     -47.226  13.394  22.581  0.00  0.00     0.000 C 
BRANCH  16  17
ATOM     17  C   UNL d   1     -46.381  13.389  22.713  0.00  0.00     0.000 C 
BRANCH  17  18
ATOM     18  C   UNL d   1     -45.882  13.146  22.111  0.00  0.00     0.000 C 
BRANCH  18  19
ATOM     19  C   UNL d   1     -45.080  13.320  22.175  0.00  0.00     0.000 C 
ATOM     20  C   UNL d   1     -44.541  12.903  21.742  0.00  0.00     0.000 C 
ENDBRANCH  18  19
ENDBRANCH  17  18
ENDBRANCH  16  17
ENDBRANCH  15  16
ENDBRANCH   5  15
TORSDOF 5
ENDMDL
MODEL 3
REMARK VINA RESULT:      -7.3      1.719      2.443
REMARK  5 active torsions:
REMARK  status: ('A' for Active; 'I' for Inactive)
REMARK    1  A    between atoms: C_13  and  C_5 
REMARK    2  A    between atoms: C_16  and  C_13 
REMARK    3  A    between atoms: C_19  and  C_16 
REMARK    4  A    between atoms: C_17  and  C_18 
REMARK    5  A    between atoms: C_18  and  C_19 
ROOT
ATOM      1  C   UNL d   1     -48.366  12.507  23.058  0.00  0.00     0.111 A 
ATOM      2  C   UNL d   1     -47.392  13.568  23.004  0.00  0.00     0.062 A 
ATOM      3  C   UNL d   1     -48.892  12.968  22.645  0.00  0.00     0.213 A 
ATOM      4  C   UNL d   1     -47.956  14.042  22.570  0.00  0.00     0.105 A 
ATOM      5  C   UNL d   1     -47.600  12.807  23.244  0.00  0.00     0.018 A 
ATOM      6  O   UNL d   1     -48.680  13.768  22.390  0.00  0.00    -0.287 OA
ATOM      7  C   UNL d   1     -48.575  11.744  23.298  0.00  0.00     0.105 C 
ATOM      8  C   UNL d   1     -46.653  13.878  23.174  0.00  0.00     0.198 A 
ATOM      9  N   UNL d   1     -48.788  10.966  23.543  0.00  0.00    -0.191 NA
ATOM     10  N   UNL d   1     -49.683  12.675  22.446  0.00  0.00    -0.120 N 
ATOM     11  O   UNL d   1     -46.118  13.393  23.601  0.00  0.00    -0.286 OA
ATOM     12  C   UNL d   1     -47.741  14.819  22.326  0.00  0.00     0.025 A 
ATOM     13  C   UNL d   1     -46.449  14.643  22.931  0.00  0.00     0.042 A 
ATOM     14  C   UNL d   1     -46.988  15.116  22.508  0.00  0.00     0.005 A 
ENDROOT
BRANCH   5  15
ATOM     15  C   UNL d   1     -47.078  12.348  23.654  0.00  0.00     0.001 C 
BRANCH  15  16
ATOM     16  C   UNL d   1     -46.593  11.820  23.273  0.00  0.00     0.000 C 
BRANCH  16  17
ATOM     17  C   UNL d   1     -46.098  11.267  23.698  0.00  0.00     0.000 C 
BRANCH  17  18
ATOM     18  C   UNL d   1     -45.415  10.986  23.344  0.00  0.00     0.000 C 
BRANCH  18  19
ATOM     19  C   UNL d   1     -45.066  10.309  23.654  0.00  0.00     0.000 C 
ATOM     20  C   UNL d   1     -44.264  10.221  23.631  0.00  0.00     0.000 C 
ENDBRANCH  18  19
ENDBRANCH  17  18
ENDBRANCH  16  17
ENDBRANCH  15  16
ENDBRANCH   5  15
TORSDOF 5
ENDMDL
MODEL 4
REMARK VINA RESULT:      -7.1      1.748      2.424
REMARK  5 active torsions:
REMARK  status: ('A' for Active; 'I' for Inactive)
REMARK    1  A    between atoms: C_13  and  C_5 
REMARK    2  A    between atoms: C_16  and  C_13 
REMARK    3  A    between atoms: C_19  and  C_16 
REMARK    4  A    between atoms: C_17  and  C_18 
REMARK    5  A    between atoms: C_18  and  C_19 
ROOT
ATOM      1  C   UNL d   1     -48.548  13.853  22.878  0.00  0.00     0.111 A 
ATOM      2  C   UNL d   1     -49.481  12.802  23.203  0.00  0.00     0.062 A 
ATOM      3  C   UNL d   1     -49.118  14.408  23.039  0.00  0.00     0.213 A 
ATOM      4  C   UNL d   1     -50.071  13.399  23.369  0.00  0.00     0.105 A 
ATOM      5  C   UNL d   1     -48.727  13.032  22.960  0.00  0.00     0.018 A 
ATOM      6  O   UNL d   1     -49.912  14.174  23.294  0.00  0.00    -0.287 OA
ATOM      7  C   UNL d   1     -47.793  14.083  22.635  0.00  0.00     0.105 C 
ATOM      8  C   UNL d   1     -49.675  12.011  23.289  0.00  0.00     0.198 A 
ATOM      9  N   UNL d   1     -47.022  14.318  22.387  0.00  0.00    -0.191 NA
ATOM     10  N   UNL d   1     -48.951  15.256  22.960  0.00  0.00    -0.120 N 
ATOM     11  O   UNL d   1     -49.079  11.445  23.121  0.00  0.00    -0.286 OA
ATOM     12  C   UNL d   1     -50.839  13.162  23.616  0.00  0.00     0.025 A 
ATOM     13  C   UNL d   1     -50.433  11.786  23.533  0.00  0.00     0.042 A 
ATOM     14  C   UNL d   1     -51.018  12.356  23.698  0.00  0.00     0.005 A 
ENDROOT
BRANCH   5  15
ATOM     15  C   UNL d   1     -48.160  12.480  22.801  0.00  0.00     0.001 C 
BRANCH  15  16
ATOM     16  C   UNL d   1     -47.544  12.350  23.312  0.00  0.00     0.000 C 
BRANCH  16  17
ATOM     17  C   UNL d   1     -46.874  11.861  23.105  0.00  0.00     0.000 C 
BRANCH  17  18
ATOM     18  C   UNL d   1     -46.470  11.462  23.695  0.00  0.00     0.000 C 
BRANCH  18  19
ATOM     19  C   UNL d   1     -45.705  11.203  23.537  0.00  0.00     0.000 C 
ATOM     20  C   UNL d   1     -45.496  10.440  23.698  0.00  0.00     0.000 C 
ENDBRANCH  18  19
ENDBRANCH  17  18
ENDBRANCH  16  17
ENDBRANCH  15  16
ENDBRANCH   5  15
TORSDOF 5
ENDMDL
MODEL 5
REMARK VINA RESULT:      -5.4      9.744     10.565
REMARK  5 active torsions:
REMARK  status: ('A' for Active; 'I' for Inactive)
REMARK    1  A    between atoms: C_13  and  C_5 
REMARK    2  A    between atoms: C_16  and  C_13 
REMARK    3  A    between atoms: C_19  and  C_16 
REMARK    4  A    between atoms: C_17  and  C_18 
REMARK    5  A    between atoms: C_18  and  C_19 
ROOT
ATOM      1  C   UNL d   1     -39.041  13.836  17.669  0.00  0.00     0.111 A 
ATOM      2  C   UNL d   1     -40.123  14.789  17.676  0.00  0.00     0.062 A 
ATOM      3  C   UNL d   1     -38.894  14.009  16.889  0.00  0.00     0.213 A 
ATOM      4  C   UNL d   1     -39.956  14.960  16.855  0.00  0.00     0.105 A 
ATOM      5  C   UNL d   1     -39.666  14.230  18.076  0.00  0.00     0.018 A 
ATOM      6  O   UNL d   1     -39.370  14.594  16.464  0.00  0.00    -0.287 OA
ATOM      7  C   UNL d   1     -38.583  13.277  18.069  0.00  0.00     0.105 C 
ATOM      8  C   UNL d   1     -40.734  15.182  18.052  0.00  0.00     0.198 A 
ATOM      9  N   UNL d   1     -38.116  12.706  18.478  0.00  0.00    -0.191 NA
ATOM     10  N   UNL d   1     -38.255  13.613  16.456  0.00  0.00    -0.120 N 
ATOM     11  O   UNL d   1     -40.878  14.997  18.858  0.00  0.00    -0.286 OA
ATOM     12  C   UNL d   1     -40.424  15.531  16.450  0.00  0.00     0.025 A 
ATOM     13  C   UNL d   1     -41.190  15.742  17.647  0.00  0.00     0.042 A 
ATOM     14  C   UNL d   1     -41.039  15.920  16.847  0.00  0.00     0.005 A 
ENDROOT
BRANCH   5  15
ATOM     15  C   UNL d   1     -39.812  14.058  18.851  0.00  0.00     0.001 C 
BRANCH  15  16
ATOM     16  C   UNL d   1     -39.331  14.338  19.441  0.00  0.00     0.000 C 
BRANCH  16  17
ATOM     17  C   UNL d   1     -39.477  14.170  20.267  0.00  0.00     0.000 C 
BRANCH  17  18
ATOM     18  C   UNL d   1     -39.028  14.547  20.838  0.00  0.00     0.000 C 
BRANCH  18  19
ATOM     19  C   UNL d   1     -39.092  14.288  21.617  0.00  0.00     0.000 C 
ATOM     20  C   UNL d   1     -38.826  14.755  22.220  0.00  0.00     0.000 C 
ENDBRANCH  18  19
ENDBRANCH  17  18
ENDBRANCH  16  17
ENDBRANCH  15  16
ENDBRANCH   5  15
TORSDOF 5
ENDMDL
