MODEL 1
REMARK VINA RESULT:      23.5      0.000      0.000
REMARK  3 active torsions:
REMARK  status: ('A' for Active; 'I' for Inactive)
REMARK    1  A    between atoms: N_11  and  C_1 
REMARK    2  A    between atoms: N_5  and  C_4 
REMARK    3  A    between atoms: C_7  and  C_10 
REMARK       I    between atoms: C_10  and  N_12 
ROOT
ATOM      1  C   UNL d   1      44.752 -14.051  44.385  0.00  0.00     0.288 C 
ATOM      2  N   UNL d   1      45.545 -16.346  43.883  0.00  0.00    -0.281 N 
ATOM      3  N   UNL d   1      45.020 -14.820  44.214  0.00  0.00    -0.267 N 
ATOM      4  C   UNL d   1      45.857 -15.708  43.479  0.00  0.00     0.101 A 
ATOM      5  C   UNL d   1      44.965 -16.223  44.458  0.00  0.00     0.101 A 
ATOM      6  C   UNL d   1      45.601 -14.944  43.638  0.00  0.00     0.102 A 
ATOM      7  C   UNL d   1      44.696 -15.461  44.630  0.00  0.00     0.102 A 
ATOM      8  O   UNL d   1      44.177 -13.928  44.955  0.00  0.00    -0.264 OA
ENDROOT
BRANCH   2   9
ATOM      9  C   UNL d   1      45.802 -17.110  43.723  0.00  0.00     0.179 A 
ATOM     10  N   UNL d   1      45.948 -17.422  42.971  0.00  0.00    -0.222 NA
ATOM     11  C   UNL d   1      46.195 -18.201  43.056  0.00  0.00     0.089 A 
ATOM     12  C   UNL d   1      46.411 -18.768  42.514  0.00  0.00     0.018 A 
ATOM     13  C   UNL d   1      46.203 -18.374  43.863  0.00  0.00     0.050 A 
ATOM     14  C   UNL d   1      46.638 -19.515  42.764  0.00  0.00     0.002 A 
ATOM     15  C   UNL d   1      46.403 -18.594  41.708  0.00  0.00     0.002 C 
ATOM     16  C   UNL d   1      46.645 -19.688  43.570  0.00  0.00     0.001 A 
ATOM     17  C   UNL d   1      46.426 -19.111  44.118  0.00  0.00     0.007 A 
ATOM     18  C   UNL d   1      46.434 -19.285  44.921  0.00  0.00     0.001 C 
ATOM     19  S   UNL d   1      45.963 -17.711  44.276  0.00  0.00    -0.048 SA
ENDBRANCH   2   9
BRANCH   1  20
ATOM     20  C   UNL d   1      45.076 -13.415  43.969  0.00  0.00     0.158 A 
ATOM     21  O   UNL d   1      45.089 -13.323  43.143  0.00  0.00    -0.281 OA
ATOM     22  C   UNL d   1      45.470 -12.602  42.983  0.00  0.00     0.228 A 
ATOM     23  C   UNL d   1      45.682 -12.267  43.704  0.00  0.00     0.051 A 
ATOM     24  C   UNL d   1      45.437 -12.772  44.309  0.00  0.00     0.034 A 
BRANCH  22  25
ATOM     25  N   UNL d   1      45.614 -12.273  42.235  0.00  0.00    -0.089 N 
ATOM     26  O   UNL d   1      44.967 -12.116  41.720  0.00  0.00    -0.530 OA
ATOM     27  O   UNL d   1      46.377 -12.101  41.991  0.00  0.00    -0.530 OA
ENDBRANCH  22  25
ENDBRANCH   1  20
TORSDOF 3
ENDMDL
