MODEL 1
REMARK VINA RESULT:      22.5      0.000      0.000
REMARK  5 active torsions:
REMARK  status: ('A' for Active; 'I' for Inactive)
REMARK    1  A    between atoms: N_7  and  C_1 
REMARK    2  A    between atoms: C_6  and  N_2 
REMARK    3  A    between atoms: C_11  and  C_6 
REMARK    4  A    between atoms: C_12  and  N_7 
REMARK    5  A    between atoms: C_13  and  C_12 
ROOT
ATOM      1  C   UNL d   1     -57.394 -98.872 -44.347  0.00  0.00     0.735 A 
ATOM      2  N   UNL d   1     -58.139 -98.808 -43.987  0.00  0.00    -0.138 N 
ATOM      3  N   UNL d   1     -57.500 -98.909 -45.169  0.00  0.00    -0.059 NA
ATOM      4  C   UNL d   1     -58.709 -98.806 -44.585  0.00  0.00     0.100 A 
ATOM      5  C   UNL d   1     -58.310 -98.869 -45.315  0.00  0.00     0.116 A 
ATOM      6  C   UNL d   1     -59.532 -98.756 -44.568  0.00  0.00     0.020 A 
ATOM      7  C   UNL d   1     -58.748 -98.880 -46.017  0.00  0.00     0.021 A 
ATOM      8  C   UNL d   1     -59.961 -98.767 -45.270  0.00  0.00     0.002 A 
ATOM      9  C   UNL d   1     -59.570 -98.829 -45.999  0.00  0.00     0.002 A 
ENDROOT
BRANCH   1  10
ATOM     10  N   UNL d   1     -56.667 -98.895 -43.956  0.00  0.00    -0.056 NA
BRANCH  10  11
ATOM     11  C   UNL d   1     -56.038 -99.327 -44.266  0.00  0.00     0.163 C 
BRANCH  11  12
ATOM     12  C   UNL d   1     -55.275 -99.228 -43.977  0.00  0.00     0.255 C 
ATOM     13  O   UNL d   1     -54.892 -99.849 -43.594  0.00  0.00    -0.281 OA
ENDBRANCH  11  12
ENDBRANCH  10  11
ENDBRANCH   1  10
BRANCH   2  14
ATOM     14  C   UNL d   1     -58.282 -98.757 -43.178  0.00  0.00     0.098 C 
BRANCH  14  15
ATOM     15  C   UNL d   1     -59.041 -98.920 -42.881  0.00  0.00     0.018 C 
ATOM     16  C   UNL d   1     -59.642 -99.153 -43.388  0.00  0.00     0.002 C 
ATOM     17  C   UNL d   1     -59.187 -98.846 -42.071  0.00  0.00     0.002 C 
ENDBRANCH  14  15
ENDBRANCH   2  14
TORSDOF 5
ENDMDL
MODEL 2
REMARK VINA RESULT:      24.2      0.677      2.097
REMARK  5 active torsions:
REMARK  status: ('A' for Active; 'I' for Inactive)
REMARK    1  A    between atoms: N_7  and  C_1 
REMARK    2  A    between atoms: C_6  and  N_2 
REMARK    3  A    between atoms: C_11  and  C_6 
REMARK    4  A    between atoms: C_12  and  N_7 
REMARK    5  A    between atoms: C_13  and  C_12 
ROOT
ATOM      1  C   UNL d   1     -57.342 -98.789 -44.558  0.00  0.00     0.735 A 
ATOM      2  N   UNL d   1     -58.088 -98.833 -44.916  0.00  0.00    -0.138 N 
ATOM      3  N   UNL d   1     -57.445 -98.755 -43.735  0.00  0.00    -0.059 NA
ATOM      4  C   UNL d   1     -58.657 -98.827 -44.316  0.00  0.00     0.100 A 
ATOM      5  C   UNL d   1     -58.254 -98.778 -43.587  0.00  0.00     0.116 A 
ATOM      6  C   UNL d   1     -59.481 -98.858 -44.331  0.00  0.00     0.020 A 
ATOM      7  C   UNL d   1     -58.690 -98.762 -42.884  0.00  0.00     0.021 A 
ATOM      8  C   UNL d   1     -59.907 -98.842 -43.628  0.00  0.00     0.002 A 
ATOM      9  C   UNL d   1     -59.514 -98.793 -42.899  0.00  0.00     0.002 A 
ENDROOT
BRANCH   1  10
ATOM     10  N   UNL d   1     -56.616 -98.780 -44.951  0.00  0.00    -0.056 NA
BRANCH  10  11
ATOM     11  C   UNL d   1     -55.910 -98.801 -44.527  0.00  0.00     0.163 C 
BRANCH  11  12
ATOM     12  C   UNL d   1     -55.455 -99.485 -44.497  0.00  0.00     0.255 C 
ATOM     13  O   UNL d   1     -55.080 -99.766 -45.175  0.00  0.00    -0.281 OA
ENDBRANCH  11  12
ENDBRANCH  10  11
ENDBRANCH   1  10
BRANCH   2  14
ATOM     14  C   UNL d   1     -58.235 -98.876 -45.725  0.00  0.00     0.098 C 
BRANCH  14  15
ATOM     15  C   UNL d   1     -58.938 -99.223 -46.000  0.00  0.00     0.018 C 
ATOM     16  C   UNL d   1     -59.624 -98.777 -46.058  0.00  0.00     0.002 C 
ATOM     17  C   UNL d   1     -58.943-100.021 -46.215  0.00  0.00     0.002 C 
ENDBRANCH  14  15
ENDBRANCH   2  14
TORSDOF 5
ENDMDL
