MODEL 1
REMARK VINA RESULT:      -5.2      0.000      0.000
REMARK  5 active torsions:
REMARK  status: ('A' for Active; 'I' for Inactive)
REMARK    1  A    between atoms: C_14  and  N_1 
REMARK    2  A    between atoms: C_13  and  C_3 
REMARK    3  A    between atoms: C_4  and  S_11 
REMARK    4  A    between atoms: S_11  and  C_13 
REMARK    5  A    between atoms: C_15  and  C_14 
ROOT
ATOM      1  S   UNL d   1      57.748   0.336  30.743  0.00  0.00    -0.058 SA
ENDROOT
BRANCH   1   2
ATOM      2  C   UNL d   1      57.234   0.119  31.339  0.00  0.00     0.141 A 
ATOM      3  N   UNL d   1      57.031  -0.659  31.535  0.00  0.00    -0.232 NA
ATOM      4  C   UNL d   1      56.504  -0.626  32.161  0.00  0.00     0.088 A 
ATOM      5  C   UNL d   1      56.109  -1.202  32.594  0.00  0.00     0.020 A 
ATOM      6  C   UNL d   1      56.385   0.171  32.348  0.00  0.00     0.049 A 
ATOM      7  C   UNL d   1      55.609  -1.003  33.197  0.00  0.00     0.002 A 
ATOM      8  C   UNL d   1      55.491  -0.206  33.385  0.00  0.00     0.001 A 
ATOM      9  C   UNL d   1      55.872   0.386  32.968  0.00  0.00     0.008 A 
ATOM     10  S   UNL d   1      56.840   0.618  31.835  0.00  0.00    -0.060 SA
ENDBRANCH   1   2
BRANCH   1  11
ATOM     11  C   UNL d   1      58.139  -0.253  30.310  0.00  0.00     0.077 C 
BRANCH  11  12
ATOM     12  C   UNL d   1      58.732  -0.038  29.784  0.00  0.00     0.178 A 
ATOM     13  N   UNL d   1      59.187  -0.611  29.447  0.00  0.00    -0.264 N 
ATOM     14  C   UNL d   1      59.726  -0.230  28.951  0.00  0.00     0.227 A 
ATOM     15  N   UNL d   1      59.582   0.554  29.002  0.00  0.00    -0.117 NA
ATOM     16  S   UNL d   1      60.344  -0.586  28.455  0.00  0.00    -0.036 SA
ATOM     17  N   UNL d   1      58.984   0.682  29.502  0.00  0.00    -0.127 NA
BRANCH  13  18
ATOM     18  C   UNL d   1      59.152  -1.460  29.555  0.00  0.00     0.084 C 
BRANCH  18  19
ATOM     19  C   UNL d   1      58.900  -1.936  28.920  0.00  0.00     0.019 C 
ATOM     20  C   UNL d   1      58.876  -2.765  29.006  0.00  0.00     0.002 C 
ENDBRANCH  18  19
ENDBRANCH  13  18
ENDBRANCH  11  12
ENDBRANCH   1  11
TORSDOF 5
ENDMDL
MODEL 2
REMARK VINA RESULT:      -2.6      1.153      4.419
REMARK  5 active torsions:
REMARK  status: ('A' for Active; 'I' for Inactive)
REMARK    1  A    between atoms: C_14  and  N_1 
REMARK    2  A    between atoms: C_13  and  C_3 
REMARK    3  A    between atoms: C_4  and  S_11 
REMARK    4  A    between atoms: S_11  and  C_13 
REMARK    5  A    between atoms: C_15  and  C_14 
ROOT
ATOM      1  S   UNL d   1      57.718   0.285  30.899  0.00  0.00    -0.058 SA
ENDROOT
BRANCH   1   2
ATOM      2  C   UNL d   1      58.161  -0.095  30.329  0.00  0.00     0.141 A 
ATOM      3  N   UNL d   1      57.984  -0.834  29.999  0.00  0.00    -0.232 NA
ATOM      4  C   UNL d   1      58.569  -1.006  29.453  0.00  0.00     0.088 A 
ATOM      5  C   UNL d   1      58.700  -1.646  28.953  0.00  0.00     0.020 A 
ATOM      6  C   UNL d   1      59.103  -0.375  29.447  0.00  0.00     0.049 A 
ATOM      7  C   UNL d   1      59.340  -1.668  28.460  0.00  0.00     0.002 A 
ATOM      8  C   UNL d   1      59.874  -1.037  28.455  0.00  0.00     0.001 A 
ATOM      9  C   UNL d   1      59.765  -0.389  28.943  0.00  0.00     0.008 A 
ATOM     10  S   UNL d   1      58.841   0.178  29.991  0.00  0.00    -0.060 SA
ENDBRANCH   1   2
BRANCH   1  11
ATOM     11  C   UNL d   1      57.351  -0.161  31.492  0.00  0.00     0.077 C 
BRANCH  11  12
ATOM     12  C   UNL d   1      57.345   0.121  32.263  0.00  0.00     0.178 A 
ATOM     13  N   UNL d   1      56.730  -0.068  32.748  0.00  0.00    -0.264 N 
ATOM     14  C   UNL d   1      56.879   0.291  33.476  0.00  0.00     0.227 A 
ATOM     15  N   UNL d   1      57.572   0.682  33.411  0.00  0.00    -0.117 NA
ATOM     16  S   UNL d   1      56.394   0.267  34.196  0.00  0.00    -0.036 SA
ATOM     17  N   UNL d   1      57.863   0.587  32.683  0.00  0.00    -0.127 NA
BRANCH  13  18
ATOM     18  C   UNL d   1      56.039  -0.544  32.580  0.00  0.00     0.084 C 
BRANCH  18  19
ATOM     19  C   UNL d   1      55.914  -1.241  33.019  0.00  0.00     0.019 C 
ATOM     20  C   UNL d   1      55.190  -1.651  32.953  0.00  0.00     0.002 C 
ENDBRANCH  18  19
ENDBRANCH  13  18
ENDBRANCH  11  12
ENDBRANCH   1  11
TORSDOF 5
ENDMDL
MODEL 3
REMARK VINA RESULT:      -2.3      1.214      4.621
REMARK  5 active torsions:
REMARK  status: ('A' for Active; 'I' for Inactive)
REMARK    1  A    between atoms: C_14  and  N_1 
REMARK    2  A    between atoms: C_13  and  C_3 
REMARK    3  A    between atoms: C_4  and  S_11 
REMARK    4  A    between atoms: S_11  and  C_13 
REMARK    5  A    between atoms: C_15  and  C_14 
ROOT
ATOM      1  S   UNL d   1      57.400  -0.288  30.703  0.00  0.00    -0.058 SA
ENDROOT
BRANCH   1   2
ATOM      2  C   UNL d   1      58.088  -0.246  30.266  0.00  0.00     0.141 A 
ATOM      3  N   UNL d   1      58.377  -0.844  29.771  0.00  0.00    -0.232 NA
ATOM      4  C   UNL d   1      59.076  -0.574  29.442  0.00  0.00     0.088 A 
ATOM      5  C   UNL d   1      59.614  -0.905  28.916  0.00  0.00     0.020 A 
ATOM      6  C   UNL d   1      59.215   0.187  29.734  0.00  0.00     0.049 A 
ATOM      7  C   UNL d   1      60.273  -0.501  28.681  0.00  0.00     0.002 A 
ATOM      8  C   UNL d   1      60.412   0.260  28.973  0.00  0.00     0.001 A 
ATOM      9  C   UNL d   1      59.891   0.612  29.498  0.00  0.00     0.008 A 
ATOM     10  S   UNL d   1      58.600   0.376  30.240  0.00  0.00    -0.060 SA
ENDBRANCH   1   2
BRANCH   1  11
ATOM     11  C   UNL d   1      57.444  -0.288  31.530  0.00  0.00     0.077 C 
BRANCH  11  12
ATOM     12  C   UNL d   1      56.807  -0.567  31.967  0.00  0.00     0.178 A 
ATOM     13  N   UNL d   1      56.669  -0.265  32.701  0.00  0.00    -0.264 N 
ATOM     14  C   UNL d   1      56.002  -0.649  32.998  0.00  0.00     0.227 A 
ATOM     15  N   UNL d   1      55.759  -1.167  32.441  0.00  0.00    -0.117 NA
ATOM     16  S   UNL d   1      55.613  -0.534  33.767  0.00  0.00    -0.036 SA
ATOM     17  N   UNL d   1      56.238  -1.127  31.815  0.00  0.00    -0.127 NA
BRANCH  13  18
ATOM     18  C   UNL d   1      57.104   0.339  33.125  0.00  0.00     0.084 C 
BRANCH  18  19
ATOM     19  C   UNL d   1      57.500   0.130  33.827  0.00  0.00     0.019 C 
ATOM     20  C   UNL d   1      57.999   0.682  34.204  0.00  0.00     0.002 C 
ENDBRANCH  18  19
ENDBRANCH  13  18
ENDBRANCH  11  12
ENDBRANCH   1  11
TORSDOF 5
ENDMDL
