MODEL 1
REMARK VINA RESULT:       3.4      0.000      0.000
REMARK  10 active torsions:
REMARK  status: ('A' for Active; 'I' for Inactive)
REMARK    1  A    between atoms: C_5  and  C_1 
REMARK    2  A    between atoms: N_6  and  C_2 
REMARK    3  A    between atoms: C_7  and  C_5 
REMARK    4  A    between atoms: C_8  and  C_5 
REMARK    5  A    between atoms: O_13  and  C_7 
REMARK    6  A    between atoms: C_20  and  N_12 
REMARK    7  A    between atoms: C_19  and  O_13 
REMARK    8  A    between atoms: C_23  and  C_19 
REMARK    9  A    between atoms: C_24  and  C_23 
REMARK   10  A    between atoms: C_25  and  C_23 
ROOT
ATOM      1  C   UNL d   1      32.368  18.242 -23.778  0.00  0.00     0.122 A 
ATOM      2  C   UNL d   1      32.690  18.372 -23.033  0.00  0.00     0.166 A 
ATOM      3  N   UNL d   1      32.976  17.732 -22.606  0.00  0.00    -0.225 NA
ATOM      4  N   UNL d   1      32.333  17.481 -24.093  0.00  0.00    -0.241 NA
ATOM      5  C   UNL d   1      32.945  16.976 -22.909  0.00  0.00     0.101 A 
ATOM      6  C   UNL d   1      32.620  16.850 -23.659  0.00  0.00     0.099 A 
ATOM      7  C   UNL d   1      33.234  16.338 -22.475  0.00  0.00     0.021 A 
ATOM      8  C   UNL d   1      32.587  16.093 -23.967  0.00  0.00     0.021 A 
ATOM      9  C   UNL d   1      33.198  15.576 -22.790  0.00  0.00     0.002 A 
ATOM     10  C   UNL d   1      32.876  15.455 -23.533  0.00  0.00     0.002 A 
ENDROOT
BRANCH   1  11
ATOM     11  C   UNL d   1      32.074  18.879 -24.224  0.00  0.00     0.105 C 
BRANCH  11  12
ATOM     12  C   UNL d   1      31.266  18.942 -24.391  0.00  0.00     0.303 C 
ATOM     13  O   UNL d   1      30.965  19.669 -24.602  0.00  0.00    -0.259 OA
BRANCH  12  14
ATOM     14  O   UNL d   1      30.794  18.280 -24.342  0.00  0.00    -0.271 OA
BRANCH  14  15
ATOM     15  C   UNL d   1      30.255  17.777 -24.696  0.00  0.00     0.126 C 
BRANCH  15  16
ATOM     16  C   UNL d   1      29.519  17.680 -24.362  0.00  0.00     0.025 C 
BRANCH  16  17
ATOM     17  C   UNL d   1      29.452  17.453 -23.588  0.00  0.00     0.002 C 
ATOM     18  C   UNL d   1      28.705  17.388 -23.239  0.00  0.00     0.000 C 
ENDBRANCH  16  17
BRANCH  16  19
ATOM     19  C   UNL d   1      28.848  17.816 -24.816  0.00  0.00     0.002 C 
ATOM     20  C   UNL d   1      28.395  17.191 -25.096  0.00  0.00     0.000 C 
ENDBRANCH  16  19
ENDBRANCH  15  16
ENDBRANCH  14  15
ENDBRANCH  12  14
ENDBRANCH  11  12
BRANCH  11  21
ATOM     21  C   UNL d   1      32.600  19.458 -24.505  0.00  0.00     0.129 C 
ATOM     22  N   UNL d   1      32.329  20.153 -25.096  0.00  0.00    -0.146 N 
ENDBRANCH  11  21
ENDBRANCH   1  11
BRANCH   2  23
ATOM     23  N   UNL d   1      32.722  19.132 -22.725  0.00  0.00    -0.285 N 
ATOM     24  C   UNL d   1      32.284  19.326 -22.062  0.00  0.00     0.101 A 
ATOM     25  C   UNL d   1      32.321  20.092 -21.758  0.00  0.00     0.100 A 
ATOM     26  N   UNL d   1      32.799  20.659 -22.123  0.00  0.00    -0.300 N 
ATOM     27  C   UNL d   1      33.240  20.460 -22.791  0.00  0.00     0.100 A 
ATOM     28  C   UNL d   1      33.201  19.700 -23.090  0.00  0.00     0.101 A 
BRANCH  26  29
ATOM     29  C   UNL d   1      32.834  21.430 -21.813  0.00  0.00     0.080 C 
ATOM     30  C   UNL d   1      32.318  22.006 -22.105  0.00  0.00     0.021 C 
ENDBRANCH  26  29
ENDBRANCH   2  23
TORSDOF 10
ENDMDL
