MODEL 1
REMARK VINA RESULT:      16.3      0.000      0.000
REMARK  3 active torsions:
REMARK  status: ('A' for Active; 'I' for Inactive)
REMARK    1  A    between atoms: C_2  and  N_1 
REMARK    2  A    between atoms: O_14  and  C_5 
REMARK    3  A    between atoms: O_15  and  C_12 
ROOT
ATOM      1  C   UNL d   1      13.898  12.317  -2.066  0.00  0.00     0.092 A 
ATOM      2  C   UNL d   1      14.070  13.054  -2.376  0.00  0.00     0.112 A 
ATOM      3  C   UNL d   1      13.782  13.264  -3.121  0.00  0.00     0.050 A 
ATOM      4  C   UNL d   1      13.442  11.779  -2.486  0.00  0.00     0.022 A 
ATOM      5  C   UNL d   1      13.323  12.724  -3.544  0.00  0.00     0.096 A 
ATOM      6  C   UNL d   1      13.154  11.981  -3.225  0.00  0.00     0.026 A 
ENDROOT
BRANCH   1   7
ATOM      7  N   UNL d   1      14.187  12.105  -1.318  0.00  0.00    -0.240 N 
ATOM      8  C   UNL d   1      13.746  11.982  -0.635  0.00  0.00     0.267 A 
ATOM      9  C   UNL d   1      14.253  11.783  -0.028  0.00  0.00     0.066 A 
ATOM     10  O   UNL d   1      12.922  12.050  -0.576  0.00  0.00    -0.267 OA
ATOM     11  C   UNL d   1      15.027  11.779  -0.328  0.00  0.00     0.066 A 
ATOM     12  C   UNL d   1      14.986  11.979  -1.127  0.00  0.00     0.267 A 
ATOM     13  O   UNL d   1      15.672  12.045  -1.677  0.00  0.00    -0.267 OA
ENDBRANCH   1   7
BRANCH   2  14
ATOM     14  O   UNL d   1      14.531  13.597  -1.951  0.00  0.00    -0.327 OA
ATOM     15  C   UNL d   1      14.634  14.368  -2.233  0.00  0.00     0.181 C 
ENDBRANCH   2  14
BRANCH   5  16
ATOM     16  O   UNL d   1      13.031  12.930  -4.296  0.00  0.00    -0.328 OA
ATOM     17  C   UNL d   1      12.820  12.343  -4.838  0.00  0.00     0.181 C 
ENDBRANCH   5  16
TORSDOF 3
ENDMDL
MODEL 2
REMARK VINA RESULT:      17.4      1.105      1.763
REMARK  3 active torsions:
REMARK  status: ('A' for Active; 'I' for Inactive)
REMARK    1  A    between atoms: C_2  and  N_1 
REMARK    2  A    between atoms: O_14  and  C_5 
REMARK    3  A    between atoms: O_15  and  C_12 
ROOT
ATOM      1  C   UNL d   1      14.403  12.683  -1.602  0.00  0.00     0.092 A 
ATOM      2  C   UNL d   1      13.863  12.085  -1.461  0.00  0.00     0.112 A 
ATOM      3  C   UNL d   1      13.416  11.780  -2.085  0.00  0.00     0.050 A 
ATOM      4  C   UNL d   1      14.509  12.986  -2.356  0.00  0.00     0.022 A 
ATOM      5  C   UNL d   1      13.522  12.084  -2.845  0.00  0.00     0.096 A 
ATOM      6  C   UNL d   1      14.069  12.688  -2.979  0.00  0.00     0.026 A 
ENDROOT
BRANCH   1   7
ATOM      7  N   UNL d   1      14.852  12.990  -0.975  0.00  0.00    -0.240 N 
ATOM      8  C   UNL d   1      14.753  13.718  -0.608  0.00  0.00     0.267 A 
ATOM      9  C   UNL d   1      15.315  13.794  -0.021  0.00  0.00     0.066 A 
ATOM     10  O   UNL d   1      14.177  14.282  -0.804  0.00  0.00    -0.267 OA
ATOM     11  C   UNL d   1      15.777  13.105  -0.015  0.00  0.00     0.066 A 
ATOM     12  C   UNL d   1      15.490  12.607  -0.606  0.00  0.00     0.267 A 
ATOM     13  O   UNL d   1      15.809  11.809  -0.807  0.00  0.00    -0.267 OA
ENDBRANCH   1   7
BRANCH   2  14
ATOM     14  O   UNL d   1      13.756  11.779  -0.698  0.00  0.00    -0.327 OA
ATOM     15  C   UNL d   1      13.014  11.812  -0.335  0.00  0.00     0.181 C 
ENDBRANCH   2  14
BRANCH   5  16
ATOM     16  O   UNL d   1      13.074  11.780  -3.478  0.00  0.00    -0.328 OA
ATOM     17  C   UNL d   1      12.843  12.272  -4.101  0.00  0.00     0.181 C 
ENDBRANCH   5  16
TORSDOF 3
ENDMDL
