MODEL 1
REMARK VINA RESULT:      10.6      0.000      0.000
REMARK  3 active torsions:
REMARK  status: ('A' for Active; 'I' for Inactive)
REMARK    1  A    between atoms: S_6  and  C_1 
REMARK    2  A    between atoms: C_9  and  S_6 
REMARK    3  A    between atoms: C_7  and  C_9 
ROOT
ATOM      1  C   UNL d   1      58.662  49.707  50.663  0.00  0.00     0.137 A 
ATOM      2  N   UNL d   1      57.961  49.706  51.089  0.00  0.00    -0.232 NA
ATOM      3  S   UNL d   1      58.482  49.708  49.866  0.00  0.00    -0.060 SA
ATOM      4  C   UNL d   1      57.343  49.706  50.561  0.00  0.00     0.088 A 
ATOM      5  C   UNL d   1      57.670  49.708  49.796  0.00  0.00     0.049 A 
ATOM      6  C   UNL d   1      56.535  49.706  50.660  0.00  0.00     0.020 A 
ATOM      7  C   UNL d   1      57.180  49.708  49.147  0.00  0.00     0.008 A 
ATOM      8  C   UNL d   1      56.354  49.707  49.235  0.00  0.00     0.001 A 
ATOM      9  C   UNL d   1      56.035  49.706  49.983  0.00  0.00     0.002 A 
ENDROOT
BRANCH   1  10
ATOM     10  S   UNL d   1      59.405  49.707  51.001  0.00  0.00    -0.077 SA
BRANCH  10  11
ATOM     11  C   UNL d   1      60.065  49.671  50.496  0.00  0.00     0.161 C 
BRANCH  11  12
ATOM     12  C   UNL d   1      60.799  49.425  50.800  0.00  0.00     0.197 C 
ATOM     13  O   UNL d   1      61.026  49.629  51.579  0.00  0.00    -0.647 OA
ATOM     14  O   UNL d   1      61.301  48.982  50.338  0.00  0.00    -0.647 OA
ENDBRANCH  11  12
ENDBRANCH  10  11
ENDBRANCH   1  10
TORSDOF 3
ENDMDL
