MODEL 1
REMARK VINA RESULT:      -1.2      0.000      0.000
REMARK  2 active torsions:
REMARK  status: ('A' for Active; 'I' for Inactive)
REMARK    1  A    between atoms: N_4  and  C_2 
REMARK       I    between atoms: C_3  and  N_4 
REMARK    2  A    between atoms: C_5  and  C_3 
ROOT
ATOM      1  C   UNL d   1     -43.412-122.228 -50.037  0.00  0.00     0.282 C 
ATOM      2  N   UNL d   1     -43.241-122.033 -50.823  0.00  0.00    -0.182 NA
ATOM      3  O   UNL d   1     -44.151-122.031 -49.723  0.00  0.00    -0.265 OA
ENDROOT
BRANCH   1   4
ATOM      4  C   UNL d   1     -42.841-122.617 -49.581  0.00  0.00     0.069 A 
ATOM      5  C   UNL d   1     -42.992-123.381 -49.328  0.00  0.00     0.063 A 
ATOM      6  C   UNL d   1     -42.426-123.774 -48.872  0.00  0.00     0.023 A 
ATOM      7 CL   UNL d   1     -43.692-123.762 -49.517  0.00  0.00    -0.082 Cl
ATOM      8  C   UNL d   1     -41.718-123.394 -48.679  0.00  0.00     0.059 A 
ATOM      9  C   UNL d   1     -41.579-122.630 -48.938  0.00  0.00     0.012 A 
ATOM     10 CL   UNL d   1     -41.147-123.798 -48.216  0.00  0.00    -0.082 Cl
ATOM     11  C   UNL d   1     -42.147-122.248 -49.390  0.00  0.00     0.006 A 
ENDBRANCH   1   4
BRANCH   2  12
ATOM     12  C   UNL d   1     -42.508-122.227 -51.142  0.00  0.00     0.204 A 
ATOM     13  N   UNL d   1     -42.341-122.899 -51.595  0.00  0.00    -0.203 NA
ATOM     14  C   UNL d   1     -41.535-122.879 -51.806  0.00  0.00     0.174 A 
ATOM     15  S   UNL d   1     -41.219-122.186 -51.474  0.00  0.00    -0.018 SA
ATOM     16  S   UNL d   1     -41.133-123.440 -52.257  0.00  0.00    -0.050 SA
ATOM     17  S   UNL d   1     -41.833-121.767 -51.050  0.00  0.00    -0.010 SA
ENDBRANCH   2  12
TORSDOF 2
ENDMDL
MODEL 2
REMARK VINA RESULT:       0.9      2.343      3.222
REMARK  2 active torsions:
REMARK  status: ('A' for Active; 'I' for Inactive)
REMARK    1  A    between atoms: N_4  and  C_2 
REMARK       I    between atoms: C_3  and  N_4 
REMARK    2  A    between atoms: C_5  and  C_3 
ROOT
ATOM      1  C   UNL d   1     -41.617-123.303 -52.107  0.00  0.00     0.282 C 
ATOM      2  N   UNL d   1     -41.849-123.817 -51.502  0.00  0.00    -0.182 NA
ATOM      3  O   UNL d   1     -41.509-123.600 -52.871  0.00  0.00    -0.265 OA
ENDROOT
BRANCH   1   4
ATOM      4  C   UNL d   1     -41.499-122.502 -51.937  0.00  0.00     0.069 A 
ATOM      5  C   UNL d   1     -41.646-121.948 -52.522  0.00  0.00     0.063 A 
ATOM      6  C   UNL d   1     -41.529-121.147 -52.356  0.00  0.00     0.023 A 
ATOM      7 CL   UNL d   1     -41.906-122.173 -53.264  0.00  0.00    -0.082 Cl
ATOM      8  C   UNL d   1     -41.267-120.916 -51.608  0.00  0.00     0.059 A 
ATOM      9  C   UNL d   1     -41.123-121.479 -51.031  0.00  0.00     0.012 A 
ATOM     10 CL   UNL d   1     -41.150-120.101 -51.446  0.00  0.00    -0.082 Cl
ATOM     11  C   UNL d   1     -41.242-122.272 -51.205  0.00  0.00     0.006 A 
ENDBRANCH   1   4
BRANCH   2  12
ATOM     12  C   UNL d   1     -41.959-123.530 -50.740  0.00  0.00     0.204 A 
ATOM     13  N   UNL d   1     -42.680-123.289 -50.414  0.00  0.00    -0.203 NA
ATOM     14  C   UNL d   1     -42.543-123.037 -49.631  0.00  0.00     0.174 A 
ATOM     15  S   UNL d   1     -41.730-123.129 -49.490  0.00  0.00    -0.018 SA
ATOM     16  S   UNL d   1     -43.108-122.752 -49.103  0.00  0.00    -0.050 SA
ATOM     17  S   UNL d   1     -41.352-123.443 -50.192  0.00  0.00    -0.010 SA
ENDBRANCH   2  12
TORSDOF 2
ENDMDL
MODEL 3
REMARK VINA RESULT:       1.1      1.327      1.987
REMARK  2 active torsions:
REMARK  status: ('A' for Active; 'I' for Inactive)
REMARK    1  A    between atoms: N_4  and  C_2 
REMARK       I    between atoms: C_3  and  N_4 
REMARK    2  A    between atoms: C_5  and  C_3 
ROOT
ATOM      1  C   UNL d   1     -41.724-123.188 -49.463  0.00  0.00     0.282 C 
ATOM      2  N   UNL d   1     -41.147-123.420 -50.008  0.00  0.00    -0.182 NA
ATOM      3  O   UNL d   1     -41.614-123.358 -48.661  0.00  0.00    -0.265 OA
ENDROOT
BRANCH   1   4
ATOM      4  C   UNL d   1     -42.400-122.792 -49.730  0.00  0.00     0.069 A 
ATOM      5  C   UNL d   1     -43.135-123.116 -49.570  0.00  0.00     0.063 A 
ATOM      6  C   UNL d   1     -43.813-122.724 -49.834  0.00  0.00     0.023 A 
ATOM      7 CL   UNL d   1     -43.210-123.817 -49.155  0.00  0.00    -0.082 Cl
ATOM      8  C   UNL d   1     -43.742-122.016 -50.253  0.00  0.00     0.059 A 
ATOM      9  C   UNL d   1     -43.001-121.703 -50.407  0.00  0.00     0.012 A 
ATOM     10 CL   UNL d   1     -44.434-121.623 -50.519  0.00  0.00    -0.082 Cl
ATOM     11  C   UNL d   1     -42.334-122.099 -50.141  0.00  0.00     0.006 A 
ENDBRANCH   1   4
BRANCH   2  12
ATOM     12  C   UNL d   1     -41.249-123.255 -50.807  0.00  0.00     0.204 A 
ATOM     13  N   UNL d   1     -41.490-123.797 -51.385  0.00  0.00    -0.203 NA
ATOM     14  C   UNL d   1     -41.522-123.401 -52.118  0.00  0.00     0.174 A 
ATOM     15  S   UNL d   1     -41.297-122.614 -51.974  0.00  0.00    -0.018 SA
ATOM     16  S   UNL d   1     -41.735-123.730 -52.843  0.00  0.00    -0.050 SA
ATOM     17  S   UNL d   1     -41.123-122.515 -51.142  0.00  0.00    -0.010 SA
ENDBRANCH   2  12
TORSDOF 2
ENDMDL
MODEL 4
REMARK VINA RESULT:       1.3      2.339      3.182
REMARK  2 active torsions:
REMARK  status: ('A' for Active; 'I' for Inactive)
REMARK    1  A    between atoms: N_4  and  C_2 
REMARK       I    between atoms: C_3  and  N_4 
REMARK    2  A    between atoms: C_5  and  C_3 
ROOT
ATOM      1  C   UNL d   1     -41.475-123.409 -50.379  0.00  0.00     0.282 C 
ATOM      2  N   UNL d   1     -41.123-123.684 -49.684  0.00  0.00    -0.182 NA
ATOM      3  O   UNL d   1     -41.127-123.586 -51.107  0.00  0.00    -0.265 OA
ENDROOT
BRANCH   1   4
ATOM      4  C   UNL d   1     -42.170-122.961 -50.333  0.00  0.00     0.069 A 
ATOM      5  C   UNL d   1     -42.157-122.185 -50.594  0.00  0.00     0.063 A 
ATOM      6  C   UNL d   1     -42.848-121.734 -50.550  0.00  0.00     0.023 A 
ATOM      7 CL   UNL d   1     -41.475-121.850 -50.898  0.00  0.00    -0.082 Cl
ATOM      8  C   UNL d   1     -43.539-122.068 -50.244  0.00  0.00     0.059 A 
ATOM      9  C   UNL d   1     -43.539-122.845 -49.986  0.00  0.00     0.012 A 
ATOM     10 CL   UNL d   1     -44.237-121.604 -50.202  0.00  0.00    -0.082 Cl
ATOM     11  C   UNL d   1     -42.848-123.285 -50.034  0.00  0.00     0.006 A 
ENDBRANCH   1   4
BRANCH   2  12
ATOM     12  C   UNL d   1     -41.463-123.512 -48.955  0.00  0.00     0.204 A 
ATOM     13  N   UNL d   1     -41.136-123.025 -48.372  0.00  0.00    -0.203 NA
ATOM     14  C   UNL d   1     -41.661-123.001 -47.725  0.00  0.00     0.174 A 
ATOM     15  S   UNL d   1     -42.308-123.480 -47.926  0.00  0.00    -0.018 SA
ATOM     16  S   UNL d   1     -41.554-122.582 -47.024  0.00  0.00    -0.050 SA
ATOM     17  S   UNL d   1     -42.189-123.809 -48.708  0.00  0.00    -0.010 SA
ENDBRANCH   2  12
TORSDOF 2
ENDMDL
MODEL 5
REMARK VINA RESULT:       1.5      2.113      2.782
REMARK  2 active torsions:
REMARK  status: ('A' for Active; 'I' for Inactive)
REMARK    1  A    between atoms: N_4  and  C_2 
REMARK       I    between atoms: C_3  and  N_4 
REMARK    2  A    between atoms: C_5  and  C_3 
ROOT
ATOM      1  C   UNL d   1     -43.438-122.271 -49.803  0.00  0.00     0.282 C 
ATOM      2  N   UNL d   1     -43.396-122.330 -48.979  0.00  0.00    -0.182 NA
ATOM      3  O   UNL d   1     -44.056-121.844 -50.147  0.00  0.00    -0.265 OA
ENDROOT
BRANCH   1   4
ATOM      4  C   UNL d   1     -42.860-122.641 -50.266  0.00  0.00     0.069 A 
ATOM      5  C   UNL d   1     -42.360-122.175 -50.719  0.00  0.00     0.063 A 
ATOM      6  C   UNL d   1     -41.782-122.539 -51.184  0.00  0.00     0.023 A 
ATOM      7 CL   UNL d   1     -42.423-121.359 -50.718  0.00  0.00    -0.082 Cl
ATOM      8  C   UNL d   1     -41.715-123.362 -51.187  0.00  0.00     0.059 A 
ATOM      9  C   UNL d   1     -42.221-123.817 -50.730  0.00  0.00     0.012 A 
ATOM     10 CL   UNL d   1     -41.126-123.726 -51.661  0.00  0.00    -0.082 Cl
ATOM     11  C   UNL d   1     -42.792-123.447 -50.272  0.00  0.00     0.006 A 
ENDBRANCH   1   4
BRANCH   2  12
ATOM     12  C   UNL d   1     -42.783-122.753 -48.629  0.00  0.00     0.204 A 
ATOM     13  N   UNL d   1     -42.275-122.469 -48.041  0.00  0.00    -0.203 NA
ATOM     14  C   UNL d   1     -41.738-123.076 -47.845  0.00  0.00     0.174 A 
ATOM     15  S   UNL d   1     -41.929-123.728 -48.322  0.00  0.00    -0.018 SA
ATOM     16  S   UNL d   1     -41.134-123.033 -47.284  0.00  0.00    -0.050 SA
ATOM     17  S   UNL d   1     -42.594-123.529 -48.824  0.00  0.00    -0.010 SA
ENDBRANCH   2  12
TORSDOF 2
ENDMDL
