MODEL 1
REMARK VINA RESULT:      20.5      0.000      0.000
REMARK  1 active torsions:
REMARK  status: ('A' for Active; 'I' for Inactive)
REMARK    1  A    between atoms: C_10  and  C_5 
ROOT
ATOM      1  C   UNL d   1      13.678  12.167  -2.751  0.00  0.00     0.118 A 
ATOM      2  C   UNL d   1      13.755  12.954  -2.936  0.00  0.00     0.088 A 
ATOM      3  N   UNL d   1      13.947  11.885  -2.004  0.00  0.00    -0.219 NA
ATOM      4  C   UNL d   1      14.100  13.454  -2.373  0.00  0.00     0.303 A 
ATOM      5  C   UNL d   1      14.284  12.397  -1.466  0.00  0.00     0.162 A 
ATOM      6  O   UNL d   1      14.360  13.180  -1.653  0.00  0.00    -0.259 OA
ATOM      7  S   UNL d   1      13.316  11.781  -3.404  0.00  0.00    -0.068 SA
ATOM      8  C   UNL d   1      13.448  13.061  -3.689  0.00  0.00     0.013 A 
ATOM      9  C   UNL d   1      13.189  12.356  -3.959  0.00  0.00     0.031 A 
ATOM     10  O   UNL d   1      14.196  14.264  -2.526  0.00  0.00    -0.259 OA
ATOM     11  C   UNL d   1      13.383  13.739  -4.147  0.00  0.00     0.001 A 
ATOM     12  C   UNL d   1      12.846  12.264  -4.703  0.00  0.00     0.006 A 
ATOM     13  C   UNL d   1      13.034  13.654  -4.909  0.00  0.00     0.000 A 
ATOM     14  C   UNL d   1      12.777  12.960  -5.181  0.00  0.00     0.001 A 
ENDROOT
BRANCH   5  15
ATOM     15  C   UNL d   1      14.542  12.080  -0.730  0.00  0.00     0.058 C 
ATOM     16  C   UNL d   1      15.296  12.377  -0.889  0.00  0.00     0.008 C 
ATOM     17  C   UNL d   1      14.825  11.783  -0.018  0.00  0.00     0.008 C 
ATOM     18  C   UNL d   1      13.788  11.781  -0.566  0.00  0.00     0.008 C 
ENDBRANCH   5  15
TORSDOF 1
ENDMDL
