MODEL 1
REMARK VINA RESULT:      73.6      0.000      0.000
REMARK  5 active torsions:
REMARK  status: ('A' for Active; 'I' for Inactive)
REMARK    1  A    between atoms: C_12  and  N_3 
REMARK    2  A    between atoms: C_11  and  C_5 
REMARK       I    between atoms: N_16  and  C_11 
REMARK    3  A    between atoms: C_15  and  C_12 
REMARK    4  A    between atoms: C_26  and  N_16 
REMARK    5  A    between atoms: C_27  and  C_26 
ROOT
ATOM      1  C   UNL d   1      13.997  14.158  -2.860  0.00  0.00     0.155 A 
ATOM      2  C   UNL d   1      13.998  14.478  -3.631  0.00  0.00     0.091 A 
ATOM      3  N   UNL d   1      14.304  14.598  -2.239  0.00  0.00    -0.272 N 
ATOM      4  N   UNL d   1      13.689  13.407  -2.733  0.00  0.00    -0.210 NA
ATOM      5  C   UNL d   1      14.613  15.672  -3.135  0.00  0.00     0.094 A 
ATOM      6  C   UNL d   1      14.613  15.354  -2.371  0.00  0.00     0.175 A 
ATOM      7  C   UNL d   1      13.691  14.041  -4.260  0.00  0.00     0.269 A 
ATOM      8  N   UNL d   1      13.383  13.284  -4.119  0.00  0.00    -0.258 N 
ATOM      9  C   UNL d   1      13.384  12.970  -3.353  0.00  0.00     0.152 A 
ATOM     10  C   UNL d   1      14.305  15.231  -3.765  0.00  0.00     0.016 A 
ATOM     11  N   UNL d   1      14.919  15.791  -1.743  0.00  0.00    -0.128 N 
ATOM     12  C   UNL d   1      13.077  12.850  -4.755  0.00  0.00     0.084 A 
ATOM     13  O   UNL d   1      13.688  14.351  -5.027  0.00  0.00    -0.266 OA
ATOM     14  C   UNL d   1      13.075  12.217  -3.228  0.00  0.00     0.038 A 
ATOM     15  C   UNL d   1      12.771  12.097  -4.612  0.00  0.00     0.019 A 
ATOM     16  C   UNL d   1      12.770  11.780  -3.848  0.00  0.00     0.005 A 
ENDROOT
BRANCH   5  17
ATOM     17  C   UNL d   1      14.921  16.425  -3.269  0.00  0.00     0.282 C 
ATOM     18  N   UNL d   1      14.865  16.765  -4.019  0.00  0.00    -0.206 NA
ATOM     19  O   UNL d   1      15.285  16.840  -2.653  0.00  0.00    -0.265 OA
BRANCH  18  20
ATOM     20  C   UNL d   1      15.174  17.524  -4.158  0.00  0.00     0.102 C 
BRANCH  20  21
ATOM     21  C   UNL d   1      14.820  18.021  -4.714  0.00  0.00     0.019 A 
ATOM     22  C   UNL d   1      14.882  18.842  -4.635  0.00  0.00     0.002 A 
ATOM     23  C   UNL d   1      14.528  19.338  -5.191  0.00  0.00     0.000 A 
ATOM     24  C   UNL d   1      14.110  19.015  -5.828  0.00  0.00     0.000 A 
ATOM     25  C   UNL d   1      14.049  18.193  -5.903  0.00  0.00     0.000 A 
ATOM     26  C   UNL d   1      13.756  19.511  -6.384  0.00  0.00     0.000 C 
ATOM     27  C   UNL d   1      14.403  17.697  -5.348  0.00  0.00     0.002 A 
ENDBRANCH  20  21
ENDBRANCH  18  20
ENDBRANCH   5  17
BRANCH   3  28
ATOM     28  C   UNL d   1      14.303  14.280  -1.475  0.00  0.00     0.107 C 
BRANCH  28  29
ATOM     29  C   UNL d   1      14.828  13.675  -1.278  0.00  0.00     0.118 A 
ATOM     30  O   UNL d   1      15.522  13.280  -1.458  0.00  0.00    -0.304 OA
ATOM     31  C   UNL d   1      15.636  12.680  -0.908  0.00  0.00     0.123 A 
ATOM     32  C   UNL d   1      15.004  12.702  -0.378  0.00  0.00     0.029 A 
ATOM     33  C   UNL d   1      14.503  13.316  -0.605  0.00  0.00     0.028 A 
ENDBRANCH  28  29
ENDBRANCH   3  28
TORSDOF 5
ENDMDL
MODEL 2
REMARK VINA RESULT:      74.3      1.226      3.020
REMARK  5 active torsions:
REMARK  status: ('A' for Active; 'I' for Inactive)
REMARK    1  A    between atoms: C_12  and  N_3 
REMARK    2  A    between atoms: C_11  and  C_5 
REMARK       I    between atoms: N_16  and  C_11 
REMARK    3  A    between atoms: C_15  and  C_12 
REMARK    4  A    between atoms: C_26  and  N_16 
REMARK    5  A    between atoms: C_27  and  C_26 
ROOT
ATOM      1  C   UNL d   1      13.958  14.815  -3.206  0.00  0.00     0.155 A 
ATOM      2  C   UNL d   1      14.366  15.531  -3.341  0.00  0.00     0.091 A 
ATOM      3  N   UNL d   1      13.513  14.483  -3.809  0.00  0.00    -0.272 N 
ATOM      4  N   UNL d   1      14.008  14.454  -2.470  0.00  0.00    -0.210 NA
ATOM      5  C   UNL d   1      13.870  15.560  -4.684  0.00  0.00     0.094 A 
ATOM      6  C   UNL d   1      13.465  14.851  -4.550  0.00  0.00     0.175 A 
ATOM      7  C   UNL d   1      14.816  15.871  -2.738  0.00  0.00     0.269 A 
ATOM      8  N   UNL d   1      14.858  15.495  -2.001  0.00  0.00    -0.258 N 
ATOM      9  C   UNL d   1      14.452  14.786  -1.870  0.00  0.00     0.152 A 
ATOM     10  C   UNL d   1      14.320  15.900  -4.077  0.00  0.00     0.016 A 
ATOM     11  N   UNL d   1      13.016  14.512  -5.152  0.00  0.00    -0.128 N 
ATOM     12  C   UNL d   1      15.311  15.841  -1.399  0.00  0.00     0.084 A 
ATOM     13  O   UNL d   1      15.223  16.579  -2.865  0.00  0.00    -0.266 OA
ATOM     14  C   UNL d   1      14.503  14.424  -1.131  0.00  0.00     0.038 A 
ATOM     15  C   UNL d   1      15.351  15.466  -0.665  0.00  0.00     0.019 A 
ATOM     16  C   UNL d   1      14.947  14.757  -0.531  0.00  0.00     0.005 A 
ENDROOT
BRANCH   5  17
ATOM     17  C   UNL d   1      13.824  15.929  -5.420  0.00  0.00     0.282 C 
ATOM     18  N   UNL d   1      13.787  16.752  -5.467  0.00  0.00    -0.206 NA
ATOM     19  O   UNL d   1      13.814  15.474  -6.111  0.00  0.00    -0.265 OA
BRANCH  18  20
ATOM     20  C   UNL d   1      13.741  17.127  -6.208  0.00  0.00     0.102 C 
BRANCH  20  21
ATOM     21  C   UNL d   1      13.640  17.944  -6.253  0.00  0.00     0.019 A 
ATOM     22  C   UNL d   1      12.882  18.263  -6.344  0.00  0.00     0.002 A 
ATOM     23  C   UNL d   1      12.781  19.081  -6.389  0.00  0.00     0.000 A 
ATOM     24  C   UNL d   1      13.438  19.583  -6.343  0.00  0.00     0.000 A 
ATOM     25  C   UNL d   1      14.194  19.260  -6.253  0.00  0.00     0.000 A 
ATOM     26  C   UNL d   1      13.337  20.400  -6.389  0.00  0.00     0.000 C 
ATOM     27  C   UNL d   1      14.295  18.443  -6.207  0.00  0.00     0.002 A 
ENDBRANCH  20  21
ENDBRANCH  18  20
ENDBRANCH   5  17
BRANCH   3  28
ATOM     28  C   UNL d   1      13.108  13.774  -3.675  0.00  0.00     0.107 C 
BRANCH  28  29
ATOM     29  C   UNL d   1      13.276  13.109  -4.135  0.00  0.00     0.118 A 
ATOM     30  O   UNL d   1      13.617  12.812  -4.817  0.00  0.00    -0.304 OA
ATOM     31  C   UNL d   1      13.516  11.996  -4.830  0.00  0.00     0.123 A 
ATOM     32  C   UNL d   1      13.107  11.782  -4.146  0.00  0.00     0.029 A 
ATOM     33  C   UNL d   1      12.957  12.469  -3.715  0.00  0.00     0.028 A 
ENDBRANCH  28  29
ENDBRANCH   3  28
TORSDOF 5
ENDMDL
