MODEL 1
REMARK VINA RESULT:       5.6      0.000      0.000
REMARK  5 active torsions:
REMARK  status: ('A' for Active; 'I' for Inactive)
REMARK    1  A    between atoms: N_2  and  C_1 
REMARK    2  A    between atoms: N_3  and  C_1 
REMARK       I    between atoms: C_4  and  N_2 
REMARK    3  A    between atoms: C_15  and  C_4 
REMARK    4  A    between atoms: O_17  and  C_9 
REMARK    5  A    between atoms: O_18  and  C_10 
ROOT
ATOM      1  N   UNL d   1     -42.028-122.947 -50.917  0.00  0.00    -0.281 N 
ATOM      2  C   UNL d   1     -42.238-123.175 -49.513  0.00  0.00     0.020 A 
ATOM      3  C   UNL d   1     -42.431-123.325 -50.302  0.00  0.00     0.082 A 
ATOM      4  C   UNL d   1     -41.628-122.635 -49.339  0.00  0.00     0.005 A 
ATOM      5  C   UNL d   1     -42.636-123.548 -48.897  0.00  0.00     0.028 A 
ATOM      6  C   UNL d   1     -42.435-123.391 -48.115  0.00  0.00     0.116 A 
ATOM      7  C   UNL d   1     -41.831-122.857 -47.942  0.00  0.00     0.116 A 
ATOM      8  C   UNL d   1     -41.428-122.479 -48.552  0.00  0.00     0.026 A 
ATOM      9  C   UNL d   1     -41.415-122.404 -50.741  0.00  0.00     0.082 A 
ATOM     10  C   UNL d   1     -41.216-122.250 -49.946  0.00  0.00     0.019 A 
ENDROOT
BRANCH   1  11
ATOM     11  C   UNL d   1     -42.227-123.102 -51.707  0.00  0.00     0.209 C 
ATOM     12  S   UNL d   1     -42.644-123.788 -51.897  0.00  0.00    -0.038 SA
BRANCH  11  13
ATOM     13  N   UNL d   1     -42.008-122.571 -52.298  0.00  0.00    -0.180 NA
ATOM     14  C   UNL d   1     -42.071-122.792 -53.092  0.00  0.00     0.281 C 
ATOM     15  O   UNL d   1     -42.353-123.542 -53.289  0.00  0.00    -0.265 OA
BRANCH  14  16
ATOM     16  C   UNL d   1     -41.850-122.257 -53.684  0.00  0.00     0.058 A 
ATOM     17  C   UNL d   1     -42.126-121.483 -53.652  0.00  0.00     0.005 A 
ATOM     18  C   UNL d   1     -41.910-120.947 -54.238  0.00  0.00     0.000 A 
ATOM     19  C   UNL d   1     -41.417-121.189 -54.853  0.00  0.00     0.000 A 
ATOM     20  C   UNL d   1     -41.141-121.972 -54.881  0.00  0.00     0.000 A 
ATOM     21  C   UNL d   1     -41.362-122.505 -54.290  0.00  0.00     0.005 A 
ENDBRANCH  14  16
ENDBRANCH  11  13
ENDBRANCH   1  11
BRANCH   6  22
ATOM     22  O   UNL d   1     -42.838-123.769 -47.505  0.00  0.00    -0.326 OA
ATOM     23  C   UNL d   1     -42.500-123.817 -46.754  0.00  0.00     0.181 C 
ENDBRANCH   6  22
BRANCH   7  24
ATOM     24  O   UNL d   1     -41.632-122.701 -47.152  0.00  0.00    -0.326 OA
ATOM     25  C   UNL d   1     -41.181-122.040 -46.962  0.00  0.00     0.181 C 
ENDBRANCH   7  24
TORSDOF 5
ENDMDL
