MODEL 1
REMARK VINA RESULT:      12.0      0.000      0.000
REMARK  5 active torsions:
REMARK  status: ('A' for Active; 'I' for Inactive)
REMARK       I    between atoms: C_7  and  N_1 
REMARK    1  A    between atoms: C_11  and  C_3 
REMARK    2  A    between atoms: C_14  and  C_5 
REMARK    3  A    between atoms: C_18  and  C_7 
REMARK    4  A    between atoms: C_17  and  O_19 
REMARK    5  A    between atoms: O_19  and  C_18 
ROOT
ATOM      1  N   UNL d   1     -41.727-121.588 -52.195  0.00  0.00    -0.193 N 
ATOM      2  N   UNL d   1     -41.624-120.854 -51.832  0.00  0.00    -0.162 NA
ATOM      3  C   UNL d   1     -41.477-120.301 -52.430  0.00  0.00     0.109 A 
ATOM      4  C   UNL d   1     -41.645-121.485 -53.010  0.00  0.00     0.088 A 
ATOM      5  C   UNL d   1     -41.491-120.688 -53.148  0.00  0.00     0.041 A 
ATOM      6  C   UNL d   1     -41.886-122.338 -51.888  0.00  0.00     0.305 C 
ATOM      7  O   UNL d   1     -41.962-122.984 -52.396  0.00  0.00    -0.263 OA
ENDROOT
BRANCH   4   8
ATOM      8  C   UNL d   1     -41.700-122.051 -53.607  0.00  0.00     0.018 A 
ATOM      9  C   UNL d   1     -41.131-122.640 -53.663  0.00  0.00     0.004 A 
ATOM     10  C   UNL d   1     -41.184-123.211 -54.262  0.00  0.00     0.030 A 
ATOM     11  C   UNL d   1     -41.802-123.182 -54.791  0.00  0.00     0.140 A 
ATOM     12  C   UNL d   1     -42.377-122.586 -54.732  0.00  0.00     0.030 A 
ATOM     13  F   UNL d   1     -41.852-123.755 -55.389  0.00  0.00    -0.204 F 
ATOM     14  C   UNL d   1     -42.324-122.025 -54.143  0.00  0.00     0.004 A 
ENDBRANCH   4   8
BRANCH   6  15
ATOM     15  C   UNL d   1     -41.968-122.441 -51.073  0.00  0.00     0.185 C 
BRANCH  15  16
ATOM     16  O   UNL d   1     -42.106-123.194 -50.765  0.00  0.00    -0.300 OA
BRANCH  16  17
ATOM     17  C   UNL d   1     -42.598-123.287 -50.110  0.00  0.00     0.100 A 
ATOM     18  C   UNL d   1     -42.271-123.359 -49.355  0.00  0.00     0.029 A 
ATOM     19  C   UNL d   1     -42.763-123.452 -48.699  0.00  0.00     0.059 A 
ATOM     20  C   UNL d   1     -41.456-123.337 -49.259  0.00  0.00     0.021 A 
ATOM     21  C   UNL d   1     -42.440-123.523 -47.948  0.00  0.00     0.265 A 
ATOM     22  C   UNL d   1     -43.582-123.473 -48.799  0.00  0.00     0.005 A 
ATOM     23  O   UNL d   1     -42.932-123.616 -47.293  0.00  0.00    -0.267 OA
ATOM     24  N   UNL d   1     -41.621-123.502 -47.849  0.00  0.00    -0.270 N 
ATOM     25  C   UNL d   1     -41.129-123.409 -48.504  0.00  0.00     0.083 A 
ATOM     26  C   UNL d   1     -41.295-123.575 -47.085  0.00  0.00     0.102 C 
ATOM     27  C   UNL d   1     -43.909-123.401 -49.553  0.00  0.00     0.002 A 
ATOM     28  C   UNL d   1     -43.417-123.308 -50.208  0.00  0.00     0.025 A 
ENDBRANCH  16  17
ENDBRANCH  15  16
ENDBRANCH   6  15
BRANCH   3  29
ATOM     29  C   UNL d   1     -41.346-119.508 -52.284  0.00  0.00     0.049 A 
ATOM     30  S   UNL d   1     -41.298-119.180 -51.519  0.00  0.00    -0.085 SA
ATOM     31  C   UNL d   1     -41.164-118.379 -51.599  0.00  0.00     0.035 A 
ATOM     32  C   UNL d   1     -41.127-118.200 -52.401  0.00  0.00     0.007 A 
ATOM     33  C   UNL d   1     -41.239-118.894 -52.825  0.00  0.00     0.009 A 
ENDBRANCH   3  29
TORSDOF 5
ENDMDL
MODEL 2
REMARK VINA RESULT:      12.7      1.648      2.966
REMARK  5 active torsions:
REMARK  status: ('A' for Active; 'I' for Inactive)
REMARK       I    between atoms: C_7  and  N_1 
REMARK    1  A    between atoms: C_11  and  C_3 
REMARK    2  A    between atoms: C_14  and  C_5 
REMARK    3  A    between atoms: C_18  and  C_7 
REMARK    4  A    between atoms: C_17  and  O_19 
REMARK    5  A    between atoms: O_19  and  C_18 
ROOT
ATOM      1  N   UNL d   1     -41.549-121.958 -52.608  0.00  0.00    -0.193 N 
ATOM      2  N   UNL d   1     -41.591-122.545 -53.186  0.00  0.00    -0.162 NA
ATOM      3  C   UNL d   1     -41.498-122.175 -53.921  0.00  0.00     0.109 A 
ATOM      4  C   UNL d   1     -41.433-121.234 -52.985  0.00  0.00     0.088 A 
ATOM      5  C   UNL d   1     -41.402-121.374 -53.796  0.00  0.00     0.041 A 
ATOM      6  C   UNL d   1     -41.604-121.991 -51.784  0.00  0.00     0.305 C 
ATOM      7  O   UNL d   1     -41.541-121.299 -51.339  0.00  0.00    -0.263 OA
ENDROOT
BRANCH   4   8
ATOM      8  C   UNL d   1     -41.356-120.485 -52.646  0.00  0.00     0.018 A 
ATOM      9  C   UNL d   1     -41.413-119.817 -53.118  0.00  0.00     0.004 A 
ATOM     10  C   UNL d   1     -41.337-119.064 -52.781  0.00  0.00     0.030 A 
ATOM     11  C   UNL d   1     -41.205-118.994 -51.981  0.00  0.00     0.140 A 
ATOM     12  C   UNL d   1     -41.147-119.671 -51.504  0.00  0.00     0.030 A 
ATOM     13  F   UNL d   1     -41.129-118.237 -51.646  0.00  0.00    -0.204 F 
ATOM     14  C   UNL d   1     -41.223-120.411 -51.837  0.00  0.00     0.004 A 
ENDBRANCH   4   8
BRANCH   6  15
ATOM     15  C   UNL d   1     -41.720-122.715 -51.407  0.00  0.00     0.185 C 
BRANCH  15  16
ATOM     16  O   UNL d   1     -41.541-122.796 -50.606  0.00  0.00    -0.300 OA
BRANCH  16  17
ATOM     17  C   UNL d   1     -42.091-123.135 -50.093  0.00  0.00     0.100 A 
ATOM     18  C   UNL d   1     -41.952-123.134 -49.279  0.00  0.00     0.029 A 
ATOM     19  C   UNL d   1     -42.502-123.472 -48.766  0.00  0.00     0.059 A 
ATOM     20  C   UNL d   1     -41.265-122.795 -48.983  0.00  0.00     0.021 A 
ATOM     21  C   UNL d   1     -42.365-123.472 -47.956  0.00  0.00     0.265 A 
ATOM     22  C   UNL d   1     -43.191-123.812 -49.066  0.00  0.00     0.005 A 
ATOM     23  O   UNL d   1     -42.915-123.811 -47.443  0.00  0.00    -0.267 OA
ATOM     24  N   UNL d   1     -41.676-123.133 -47.656  0.00  0.00    -0.270 N 
ATOM     25  C   UNL d   1     -41.125-122.794 -48.169  0.00  0.00     0.083 A 
ATOM     26  C   UNL d   1     -41.539-123.134 -46.833  0.00  0.00     0.102 C 
ATOM     27  C   UNL d   1     -43.331-123.813 -49.880  0.00  0.00     0.002 A 
ATOM     28  C   UNL d   1     -42.781-123.474 -50.393  0.00  0.00     0.025 A 
ENDBRANCH  16  17
ENDBRANCH  15  16
ENDBRANCH   6  15
BRANCH   3  29
ATOM     29  C   UNL d   1     -41.507-122.579 -54.630  0.00  0.00     0.049 A 
ATOM     30  S   UNL d   1     -41.234-123.362 -54.721  0.00  0.00    -0.085 SA
ATOM     31  C   UNL d   1     -41.333-123.572 -55.503  0.00  0.00     0.035 A 
ATOM     32  C   UNL d   1     -41.664-122.934 -55.904  0.00  0.00     0.007 A 
ATOM     33  C   UNL d   1     -41.772-122.322 -55.368  0.00  0.00     0.009 A 
ENDBRANCH   3  29
TORSDOF 5
ENDMDL
