MODEL 1
REMARK VINA RESULT:      18.7      0.000      0.000
REMARK  1 active torsions:
REMARK  status: ('A' for Active; 'I' for Inactive)
REMARK    1  A    between atoms: C_6  and  C_1 
ROOT
ATOM      1  C   UNL d   1     -51.630  25.550  33.330  0.00  0.00     0.111 A 
ATOM      2  N   UNL d   1     -52.450  25.594  33.335  0.00  0.00    -0.239 NA
ATOM      3  S   UNL d   1     -51.413  24.762  33.321  0.00  0.00    -0.066 SA
ATOM      4  C   UNL d   1     -52.749  24.819  33.328  0.00  0.00     0.088 A 
ATOM      5  C   UNL d   1     -52.109  24.301  33.320  0.00  0.00     0.049 A 
ATOM      6  C   UNL d   1     -53.516  24.521  33.329  0.00  0.00     0.020 A 
ATOM      7  C   UNL d   1     -52.236  23.487  33.313  0.00  0.00     0.008 A 
ATOM      8  C   UNL d   1     -53.004  23.189  33.314  0.00  0.00     0.001 A 
ATOM      9  C   UNL d   1     -53.643  23.707  33.322  0.00  0.00     0.002 A 
ENDROOT
BRANCH   1  10
ATOM     10  C   UNL d   1     -51.138  26.220  33.334  0.00  0.00     0.024 A 
ATOM     11  C   UNL d   1     -50.317  26.134  33.365  0.00  0.00     0.004 A 
ATOM     12  C   UNL d   1     -49.834  26.805  33.369  0.00  0.00     0.021 A 
ATOM     13  C   UNL d   1     -50.169  27.565  33.342  0.00  0.00     0.103 A 
ATOM     14  C   UNL d   1     -50.991  27.643  33.311  0.00  0.00     0.021 A 
ATOM     15  N   UNL d   1     -49.680  28.235  33.346  0.00  0.00    -0.148 N 
ATOM     16  C   UNL d   1     -51.475  26.972  33.307  0.00  0.00     0.004 A 
ENDBRANCH   1  10
TORSDOF 1
ENDMDL
