MODEL 1
REMARK VINA RESULT:      -5.1      0.000      0.000
REMARK  4 active torsions:
REMARK  status: ('A' for Active; 'I' for Inactive)
REMARK    1  A    between atoms: N_2  and  S_1 
REMARK    2  A    between atoms: C_4  and  C_3 
REMARK       I    between atoms: N_9  and  C_4 
REMARK    3  A    between atoms: C_15  and  N_9 
REMARK    4  A    between atoms: C_10  and  C_15 
ROOT
ATOM      1  N   UNL d   1     -41.726-122.714 -50.860  0.00  0.00    -0.233 N 
ATOM      2  C   UNL d   1     -41.447-122.403 -52.220  0.00  0.00     0.076 A 
ATOM      3  C   UNL d   1     -41.741-122.921 -51.658  0.00  0.00     0.096 A 
ATOM      4  C   UNL d   1     -41.417-121.987 -50.628  0.00  0.00     0.091 A 
ATOM      5  C   UNL d   1     -41.136-121.672 -51.990  0.00  0.00     0.008 A 
ATOM      6  C   UNL d   1     -41.123-121.468 -51.195  0.00  0.00     0.020 A 
ENDROOT
BRANCH   2   7
ATOM      7  C   UNL d   1     -41.462-122.612 -53.021  0.00  0.00     0.281 C 
ATOM      8  O   UNL d   1     -41.138-123.326 -53.267  0.00  0.00    -0.265 OA
ATOM      9  N   UNL d   1     -41.803-122.104 -53.575  0.00  0.00    -0.206 NA
BRANCH   9  10
ATOM     10  C   UNL d   1     -41.815-122.316 -54.364  0.00  0.00     0.102 C 
BRANCH  10  11
ATOM     11  C   UNL d   1     -42.327-121.925 -54.880  0.00  0.00     0.021 C 
ATOM     12  C   UNL d   1     -42.194-121.956 -55.695  0.00  0.00     0.002 C 
ENDBRANCH  10  11
ENDBRANCH   9  10
ENDBRANCH   2   7
BRANCH   1  13
ATOM     13  S   UNL d   1     -42.021-123.236 -50.294  0.00  0.00     0.252 S 
ATOM     14  O   UNL d   1     -41.265-123.548 -50.187  0.00  0.00    -0.204 OA
ATOM     15  O   UNL d   1     -42.775-122.925 -50.400  0.00  0.00    -0.204 OA
ATOM     16  C   UNL d   1     -42.317-123.758 -49.728  0.00  0.00     0.164 C 
ENDBRANCH   1  13
TORSDOF 4
ENDMDL
MODEL 2
REMARK VINA RESULT:      -3.4      1.503      2.212
REMARK  4 active torsions:
REMARK  status: ('A' for Active; 'I' for Inactive)
REMARK    1  A    between atoms: N_2  and  S_1 
REMARK    2  A    between atoms: C_4  and  C_3 
REMARK       I    between atoms: N_9  and  C_4 
REMARK    3  A    between atoms: C_15  and  N_9 
REMARK    4  A    between atoms: C_10  and  C_15 
ROOT
ATOM      1  N   UNL d   1     -42.075-123.093 -49.147  0.00  0.00    -0.233 N 
ATOM      2  C   UNL d   1     -42.012-122.572 -50.470  0.00  0.00     0.076 A 
ATOM      3  C   UNL d   1     -41.640-122.912 -49.824  0.00  0.00     0.096 A 
ATOM      4  C   UNL d   1     -42.882-122.934 -49.121  0.00  0.00     0.091 A 
ATOM      5  C   UNL d   1     -42.822-122.411 -50.447  0.00  0.00     0.008 A 
ATOM      6  C   UNL d   1     -43.253-122.593 -49.772  0.00  0.00     0.020 A 
ENDROOT
BRANCH   2   7
ATOM      7  C   UNL d   1     -41.574-122.390 -51.148  0.00  0.00     0.281 C 
ATOM      8  O   UNL d   1     -41.123-121.703 -51.176  0.00  0.00    -0.265 OA
ATOM      9  N   UNL d   1     -41.588-122.898 -51.799  0.00  0.00    -0.206 NA
BRANCH   9  10
ATOM     10  C   UNL d   1     -41.153-122.713 -52.465  0.00  0.00     0.102 C 
BRANCH  10  11
ATOM     11  C   UNL d   1     -41.133-123.244 -53.096  0.00  0.00     0.021 C 
ATOM     12  C   UNL d   1     -41.275-122.977 -53.866  0.00  0.00     0.002 C 
ENDBRANCH  10  11
ENDBRANCH   9  10
ENDBRANCH   2   7
BRANCH   1  13
ATOM     13  S   UNL d   1     -41.701-123.435 -48.497  0.00  0.00     0.252 S 
ATOM     14  O   UNL d   1     -42.234-123.057 -47.993  0.00  0.00    -0.204 OA
ATOM     15  O   UNL d   1     -41.171-123.811 -48.999  0.00  0.00    -0.204 OA
ATOM     16  C   UNL d   1     -41.327-123.776 -47.846  0.00  0.00     0.164 C 
ENDBRANCH   1  13
TORSDOF 4
ENDMDL
