MODEL 1
REMARK VINA RESULT:      -4.6      0.000      0.000
REMARK  4 active torsions:
REMARK  status: ('A' for Active; 'I' for Inactive)
REMARK    1  A    between atoms: N_2  and  S_1 
REMARK    2  A    between atoms: C_5  and  S_1 
REMARK    3  A    between atoms: O_16  and  C_11 
REMARK    4  A    between atoms: C_19  and  O_16 
ROOT
ATOM      1  C   UNL d   1      57.604   0.064  31.445  0.00  0.00     0.107 A 
ATOM      2  C   UNL d   1      57.636  -0.424  30.781  0.00  0.00     0.040 A 
ATOM      3  C   UNL d   1      58.266  -0.359  30.250  0.00  0.00     0.128 A 
ATOM      4  C   UNL d   1      58.863   0.193  30.382  0.00  0.00     0.163 A 
ATOM      5  C   UNL d   1      58.202   0.617  31.577  0.00  0.00     0.015 A 
ATOM      6  C   UNL d   1      58.831   0.682  31.046  0.00  0.00     0.032 A 
ATOM      7  F   UNL d   1      59.492   0.258  29.851  0.00  0.00    -0.202 F 
ENDROOT
BRANCH   1   8
ATOM      8  S   UNL d   1      56.975  -0.000  31.976  0.00  0.00     0.286 S 
ATOM      9  O   UNL d   1      57.506   0.023  32.608  0.00  0.00    -0.198 OA
ATOM     10  O   UNL d   1      56.444  -0.024  31.344  0.00  0.00    -0.198 OA
BRANCH   8  11
ATOM     11  N   UNL d   1      56.346  -0.065  32.507  0.00  0.00    -0.152 N 
ATOM     12  N   UNL d   1      55.934   0.558  32.853  0.00  0.00    -0.155 NA
ATOM     13  C   UNL d   1      55.354   0.248  33.343  0.00  0.00     0.104 A 
ATOM     14  C   UNL d   1      54.813   0.682  33.799  0.00  0.00     0.022 C 
ATOM     15  C   UNL d   1      55.404  -0.576  33.303  0.00  0.00     0.041 A 
ATOM     16  C   UNL d   1      56.014  -0.769  32.788  0.00  0.00     0.096 A 
ATOM     17  C   UNL d   1      56.259  -1.530  32.583  0.00  0.00     0.022 C 
ENDBRANCH   8  11
ENDBRANCH   1   8
BRANCH   3  18
ATOM     18  O   UNL d   1      58.298  -0.847  29.587  0.00  0.00    -0.303 OA
BRANCH  18  19
ATOM     19  C   UNL d   1      58.609  -1.616  29.648  0.00  0.00     0.123 C 
ATOM     20  C   UNL d   1      58.469  -2.168  29.053  0.00  0.00     0.029 C 
ENDBRANCH  18  19
ENDBRANCH   3  18
TORSDOF 4
ENDMDL
MODEL 2
REMARK VINA RESULT:      -3.1      1.937      3.916
REMARK  4 active torsions:
REMARK  status: ('A' for Active; 'I' for Inactive)
REMARK    1  A    between atoms: N_2  and  S_1 
REMARK    2  A    between atoms: C_5  and  S_1 
REMARK    3  A    between atoms: O_16  and  C_11 
REMARK    4  A    between atoms: C_19  and  O_16 
ROOT
ATOM      1  C   UNL d   1      57.611  -0.171  31.279  0.00  0.00     0.107 A 
ATOM      2  C   UNL d   1      56.931  -0.546  31.554  0.00  0.00     0.040 A 
ATOM      3  C   UNL d   1      56.587  -0.308  32.267  0.00  0.00     0.128 A 
ATOM      4  C   UNL d   1      56.923   0.304  32.704  0.00  0.00     0.163 A 
ATOM      5  C   UNL d   1      57.948   0.442  31.716  0.00  0.00     0.015 A 
ATOM      6  C   UNL d   1      57.604   0.679  32.429  0.00  0.00     0.032 A 
ATOM      7  F   UNL d   1      56.580   0.542  33.417  0.00  0.00    -0.202 F 
ENDROOT
BRANCH   1   8
ATOM      8  S   UNL d   1      57.955  -0.408  30.566  0.00  0.00     0.286 S 
ATOM      9  O   UNL d   1      58.591   0.100  30.704  0.00  0.00    -0.198 OA
ATOM     10  O   UNL d   1      57.318  -0.917  30.429  0.00  0.00    -0.198 OA
BRANCH   8  11
ATOM     11  N   UNL d   1      58.298  -0.646  29.854  0.00  0.00    -0.152 N 
ATOM     12  N   UNL d   1      58.532  -1.410  29.655  0.00  0.00    -0.155 NA
ATOM     13  C   UNL d   1      58.845  -1.400  28.898  0.00  0.00     0.104 A 
ATOM     14  C   UNL d   1      59.147  -2.052  28.483  0.00  0.00     0.022 C 
ATOM     15  C   UNL d   1      58.808  -0.622  28.621  0.00  0.00     0.041 A 
ATOM     16  C   UNL d   1      58.471  -0.158  29.209  0.00  0.00     0.096 A 
ATOM     17  C   UNL d   1      58.328   0.654  29.168  0.00  0.00     0.022 C 
ENDBRANCH   8  11
ENDBRANCH   1   8
BRANCH   3  18
ATOM     18  O   UNL d   1      55.907  -0.683  32.543  0.00  0.00    -0.303 OA
BRANCH  18  19
ATOM     19  C   UNL d   1      55.960  -1.427  32.911  0.00  0.00     0.123 C 
ATOM     20  C   UNL d   1      55.282  -1.793  33.203  0.00  0.00     0.029 C 
ENDBRANCH  18  19
ENDBRANCH   3  18
TORSDOF 4
ENDMDL
