MODEL 1
REMARK VINA RESULT:       8.8      0.000      0.000
REMARK  2 active torsions:
REMARK  status: ('A' for Active; 'I' for Inactive)
REMARK       I    between atoms: N_2  and  C_1 
REMARK       I    between atoms: N_4  and  C_1 
REMARK    1  A    between atoms: C_3  and  N_2 
REMARK    2  A    between atoms: C_7  and  N_4 
ROOT
ATOM      1  C   UNL d   1      13.639  12.154  -2.643  0.00  0.00     0.370 C 
ATOM      2  N   UNL d   1      13.662  11.780  -1.902  0.00  0.00    -0.172 NA
ATOM      3  N   UNL d   1      13.143  11.834  -3.236  0.00  0.00    -0.191 NA
ATOM      4  O   UNL d   1      14.073  12.805  -2.805  0.00  0.00    -0.242 OA
ENDROOT
BRANCH   2   5
ATOM      5  C   UNL d   1      14.150  12.093  -1.316  0.00  0.00     0.167 A 
ATOM      6  N   UNL d   1      14.985  12.155  -1.427  0.00  0.00    -0.225 NA
ATOM      7  C   UNL d   1      15.458  12.468  -0.836  0.00  0.00     0.101 A 
ATOM      8  C   UNL d   1      15.109  12.723  -0.130  0.00  0.00     0.021 A 
ATOM      9  C   UNL d   1      14.292  12.661  -0.025  0.00  0.00     0.005 A 
ATOM     10  C   UNL d   1      13.827  12.352  -0.609  0.00  0.00     0.039 A 
ENDBRANCH   2   5
BRANCH   3  11
ATOM     11  C   UNL d   1      13.111  12.195  -3.974  0.00  0.00     0.086 A 
ATOM     12  C   UNL d   1      12.812  12.945  -4.046  0.00  0.00     0.019 A 
ATOM     13  C   UNL d   1      12.783  13.304  -4.795  0.00  0.00     0.002 A 
ATOM     14  C   UNL d   1      13.063  12.889  -5.470  0.00  0.00     0.000 A 
ATOM     15  C   UNL d   1      13.358  12.142  -5.387  0.00  0.00     0.002 A 
ATOM     16  C   UNL d   1      13.392  11.779  -4.653  0.00  0.00     0.019 A 
ENDBRANCH   3  11
TORSDOF 2
ENDMDL
MODEL 2
REMARK VINA RESULT:       9.4      0.442      3.862
REMARK  2 active torsions:
REMARK  status: ('A' for Active; 'I' for Inactive)
REMARK       I    between atoms: N_2  and  C_1 
REMARK       I    between atoms: N_4  and  C_1 
REMARK    1  A    between atoms: C_3  and  N_2 
REMARK    2  A    between atoms: C_7  and  N_4 
ROOT
ATOM      1  C   UNL d   1      13.618  12.136  -2.510  0.00  0.00     0.370 C 
ATOM      2  N   UNL d   1      13.106  11.835  -3.090  0.00  0.00    -0.172 NA
ATOM      3  N   UNL d   1      13.616  11.779  -1.753  0.00  0.00    -0.191 NA
ATOM      4  O   UNL d   1      14.108  12.750  -2.653  0.00  0.00    -0.242 OA
ENDROOT
BRANCH   2   5
ATOM      5  C   UNL d   1      13.106  12.184  -3.837  0.00  0.00     0.167 A 
ATOM      6  N   UNL d   1      13.420  11.781  -4.509  0.00  0.00    -0.225 NA
ATOM      7  C   UNL d   1      13.414  12.138  -5.246  0.00  0.00     0.101 A 
ATOM      8  C   UNL d   1      13.096  12.899  -5.325  0.00  0.00     0.021 A 
ATOM      9  C   UNL d   1      12.789  13.290  -4.665  0.00  0.00     0.005 A 
ATOM     10  C   UNL d   1      12.796  12.935  -3.938  0.00  0.00     0.039 A 
ENDBRANCH   2   5
BRANCH   3  11
ATOM     11  C   UNL d   1      14.118  12.068  -1.170  0.00  0.00     0.086 A 
ATOM     12  C   UNL d   1      13.836  12.581  -0.609  0.00  0.00     0.019 A 
ATOM     13  C   UNL d   1      14.350  12.869  -0.022  0.00  0.00     0.002 A 
ATOM     14  C   UNL d   1      15.155  12.627  -0.014  0.00  0.00     0.000 A 
ATOM     15  C   UNL d   1      15.424  12.116  -0.578  0.00  0.00     0.002 A 
ATOM     16  C   UNL d   1      14.926  11.826  -1.160  0.00  0.00     0.019 A 
ENDBRANCH   3  11
TORSDOF 2
ENDMDL
