MODEL 1
REMARK VINA RESULT:      47.7      0.000      0.000
REMARK  5 active torsions:
REMARK  status: ('A' for Active; 'I' for Inactive)
REMARK    1  A    between atoms: C_6  and  N_1 
REMARK    2  A    between atoms: C_7  and  C_2 
REMARK    3  A    between atoms: C_12  and  C_6 
REMARK    4  A    between atoms: C_11  and  C_7 
REMARK       I    between atoms: C_8  and  N_10 
REMARK    5  A    between atoms: N_10  and  C_11 
ROOT
ATOM      1  N   UNL d   1     -59.190 -98.914 -44.352  0.00  0.00    -0.289 N 
ATOM      2  C   UNL d   1     -58.378 -98.828 -44.516  0.00  0.00     0.149 A 
ATOM      3  N   UNL d   1     -57.978 -98.759 -43.796  0.00  0.00    -0.227 NA
ATOM      4  C   UNL d   1     -59.289 -98.898 -43.530  0.00  0.00     0.083 A 
ATOM      5  C   UNL d   1     -58.537 -98.802 -43.184  0.00  0.00     0.099 A 
ATOM      6  C   UNL d   1     -59.959 -98.958 -43.046  0.00  0.00     0.019 A 
ATOM      7  C   UNL d   1     -58.463 -98.768 -42.359  0.00  0.00     0.021 A 
ATOM      8  C   UNL d   1     -59.883 -98.923 -42.229  0.00  0.00     0.002 A 
ATOM      9  C   UNL d   1     -59.138 -98.828 -41.887  0.00  0.00     0.002 A 
ENDROOT
BRANCH   1  10
ATOM     10  C   UNL d   1     -59.794 -99.000 -44.909  0.00  0.00     0.082 C 
BRANCH  10  11
ATOM     11  C   UNL d   1     -59.619 -99.250 -45.674  0.00  0.00     0.018 A 
ATOM     12  C   UNL d   1     -59.794 -98.759 -46.312  0.00  0.00     0.002 A 
ATOM     13  C   UNL d   1     -59.620 -99.006 -47.086  0.00  0.00     0.000 A 
ATOM     14  C   UNL d   1     -59.276 -99.740 -47.198  0.00  0.00     0.000 A 
ATOM     15  C   UNL d   1     -59.101-100.232 -46.557  0.00  0.00     0.000 A 
ATOM     16  C   UNL d   1     -59.275 -99.982 -45.792  0.00  0.00     0.002 A 
ENDBRANCH  10  11
ENDBRANCH   1  10
BRANCH   2  17
ATOM     17  C   UNL d   1     -57.710 -98.768 -44.993  0.00  0.00     0.058 C 
BRANCH  17  18
ATOM     18  C   UNL d   1     -56.961 -98.840 -44.660  0.00  0.00     0.105 C 
BRANCH  18  19
ATOM     19  N   UNL d   1     -56.306 -98.950 -45.146  0.00  0.00    -0.206 NA
ATOM     20  C   UNL d   1     -55.550 -98.922 -44.831  0.00  0.00     0.280 C 
ATOM     21  O   UNL d   1     -55.448 -98.783 -44.024  0.00  0.00    -0.265 OA
ATOM     22  C   UNL d   1     -54.892 -99.032 -45.317  0.00  0.00     0.068 C 
ENDBRANCH  18  19
ENDBRANCH  17  18
ENDBRANCH   2  17
TORSDOF 5
ENDMDL
