MODEL 1
REMARK VINA RESULT:      -5.9      0.000      0.000
REMARK  1 active torsions:
REMARK  status: ('A' for Active; 'I' for Inactive)
REMARK       I    between atoms: N_3  and  C_1 
REMARK       I    between atoms: N_5  and  C_1 
REMARK       I    between atoms: C_2  and  N_4 
REMARK    1  A    between atoms: C_6  and  C_2 
ROOT
ATOM      1  C   UNL d   1      58.586   0.012  29.618  0.00  0.00     0.340 C 
ATOM      2  C   UNL d   1      57.327   0.263  32.660  0.00  0.00     0.265 C 
ATOM      3  N   UNL d   1      58.232   0.164  30.347  0.00  0.00    -0.254 N 
ATOM      4  N   UNL d   1      57.636   0.207  31.879  0.00  0.00    -0.269 N 
ATOM      5  N   UNL d   1      59.355   0.268  29.467  0.00  0.00    -0.253 N 
ATOM      6  O   UNL d   1      58.162  -0.402  29.036  0.00  0.00    -0.245 OA
ATOM      7  C   UNL d   1      57.472  -0.118  30.509  0.00  0.00     0.104 A 
ATOM      8  C   UNL d   1      58.686   0.489  30.964  0.00  0.00     0.104 A 
ATOM      9  C   UNL d   1      57.167  -0.107  31.292  0.00  0.00     0.102 A 
ATOM     10  C   UNL d   1      58.389   0.516  31.733  0.00  0.00     0.102 A 
ATOM     11  O   UNL d   1      57.785   0.587  33.269  0.00  0.00    -0.267 OA
ATOM     12  O   UNL d   1      60.992   0.525  29.266  0.00  0.00    -0.300 OA
ATOM     13  C   UNL d   1      59.874   0.426  30.154  0.00  0.00     0.111 C 
ATOM     14  C   UNL d   1      59.805  -0.140  28.841  0.00  0.00     0.111 C 
ATOM     15  C   UNL d   1      60.571   0.115  28.689  0.00  0.00     0.142 C 
ATOM     16  C   UNL d   1      60.646   0.682  29.999  0.00  0.00     0.142 C 
ENDROOT
BRANCH   2  17
ATOM     17  C   UNL d   1      56.570  -0.025  32.824  0.00  0.00     0.057 C 
ATOM     18  C   UNL d   1      56.045   0.453  33.265  0.00  0.00     0.011 C 
ATOM     19  C   UNL d   1      55.292   0.159  33.467  0.00  0.00     0.035 C 
ATOM     20 BR   UNL d   1      54.716   0.679  33.768  0.00  0.00    -0.049 Br
ATOM     21  C   UNL d   1      55.122  -0.642  33.367  0.00  0.00     0.007 C 
ATOM     22  C   UNL d   1      55.704  -1.153  33.066  0.00  0.00     0.001 C 
ATOM     23  C   UNL d   1      56.452  -0.860  32.866  0.00  0.00     0.005 C 
ENDBRANCH   2  17
TORSDOF 1
ENDMDL
MODEL 2
REMARK VINA RESULT:      -4.2      2.037      4.809
REMARK  1 active torsions:
REMARK  status: ('A' for Active; 'I' for Inactive)
REMARK       I    between atoms: N_3  and  C_1 
REMARK       I    between atoms: N_5  and  C_1 
REMARK       I    between atoms: C_2  and  N_4 
REMARK    1  A    between atoms: C_6  and  C_2 
ROOT
ATOM      1  C   UNL d   1      56.010  -0.619  32.861  0.00  0.00     0.340 C 
ATOM      2  C   UNL d   1      58.481   0.170  30.818  0.00  0.00     0.265 C 
ATOM      3  N   UNL d   1      56.673  -0.507  32.383  0.00  0.00    -0.254 N 
ATOM      4  N   UNL d   1      57.854  -0.045  31.337  0.00  0.00    -0.269 N 
ATOM      5  N   UNL d   1      55.989  -0.305  33.624  0.00  0.00    -0.253 N 
ATOM      6  O   UNL d   1      55.363  -1.050  32.569  0.00  0.00    -0.245 OA
ATOM      7  C   UNL d   1      56.683  -0.797  31.609  0.00  0.00     0.104 A 
ATOM      8  C   UNL d   1      57.278   0.005  32.635  0.00  0.00     0.104 A 
ATOM      9  C   UNL d   1      57.279  -0.556  31.068  0.00  0.00     0.102 A 
ATOM     10  C   UNL d   1      57.874   0.235  32.114  0.00  0.00     0.102 A 
ATOM     11  O   UNL d   1      59.079   0.682  31.075  0.00  0.00    -0.267 OA
ATOM     12  O   UNL d   1      55.826   0.565  35.039  0.00  0.00    -0.300 OA
ATOM     13  C   UNL d   1      56.518   0.368  33.802  0.00  0.00     0.111 C 
ATOM     14  C   UNL d   1      55.207  -0.175  33.988  0.00  0.00     0.111 C 
ATOM     15  C   UNL d   1      55.184   0.137  34.749  0.00  0.00     0.142 C 
ATOM     16  C   UNL d   1      56.494   0.681  34.567  0.00  0.00     0.142 C 
ENDROOT
BRANCH   2  17
ATOM     17  C   UNL d   1      58.487  -0.113  30.041  0.00  0.00     0.057 C 
ATOM     18  C   UNL d   1      59.002  -0.743  29.848  0.00  0.00     0.011 C 
ATOM     19  C   UNL d   1      59.043  -1.013  29.062  0.00  0.00     0.035 C 
ATOM     20 BR   UNL d   1      59.433  -1.729  28.893  0.00  0.00    -0.049 Br
ATOM     21  C   UNL d   1      58.699  -0.571  28.455  0.00  0.00     0.007 C 
ATOM     22  C   UNL d   1      58.313   0.143  28.632  0.00  0.00     0.001 C 
ATOM     23  C   UNL d   1      58.273   0.410  29.415  0.00  0.00     0.005 C 
ENDBRANCH   2  17
TORSDOF 1
ENDMDL
