MODEL 1
REMARK VINA RESULT:      -6.6      0.000      0.000
REMARK  5 active torsions:
REMARK  status: ('A' for Active; 'I' for Inactive)
REMARK    1  A    between atoms: N_5  and  S_1 
REMARK    2  A    between atoms: C_9  and  S_1 
REMARK    3  A    between atoms: C_2  and  N_4 
REMARK    4  A    between atoms: C_7  and  C_3 
REMARK       I    between atoms: N_4  and  C_6 
REMARK    5  A    between atoms: C_6  and  C_14 
ROOT
ATOM      1  C   UNL d   1     -46.141  13.321  22.401  0.00  0.00     0.104 A 
ATOM      2  C   UNL d   1     -47.616  14.028  22.621  0.00  0.00     0.058 A 
ATOM      3  C   UNL d   1     -46.209  14.012  22.851  0.00  0.00     0.013 A 
ATOM      4  C   UNL d   1     -46.811  12.989  22.064  0.00  0.00     0.013 A 
ATOM      5  C   UNL d   1     -46.946  14.360  22.958  0.00  0.00     0.005 A 
ATOM      6  C   UNL d   1     -47.547  13.336  22.170  0.00  0.00     0.005 A 
ENDROOT
BRANCH   2   7
ATOM      7  C   UNL d   1     -48.359  14.380  22.730  0.00  0.00     0.280 C 
ATOM      8  N   UNL d   1     -49.008  13.919  22.941  0.00  0.00    -0.201 NA
ATOM      9  O   UNL d   1     -48.434  15.183  22.625  0.00  0.00    -0.265 OA
BRANCH   8  10
ATOM     10  C   UNL d   1     -49.742  14.274  23.048  0.00  0.00     0.119 A 
ATOM     11  C   UNL d   1     -50.469  13.882  23.082  0.00  0.00     0.084 A 
ATOM     12  C   UNL d   1     -51.062  14.455  23.196  0.00  0.00     0.014 A 
ATOM     13  C   UNL d   1     -50.694  15.193  23.230  0.00  0.00     0.037 A 
ATOM     14  S   UNL d   1     -49.885  15.076  23.139  0.00  0.00    -0.067 SA
BRANCH  11  15
ATOM     15  C   UNL d   1     -50.594  13.071  23.017  0.00  0.00     0.299 C 
ATOM     16  O   UNL d   1     -50.568  12.600  23.698  0.00  0.00    -0.264 OA
ATOM     17  N   UNL d   1     -50.743  12.730  22.281  0.00  0.00    -0.102 N 
ENDBRANCH  11  15
ENDBRANCH   8  10
ENDBRANCH   2   7
BRANCH   1  18
ATOM     18  S   UNL d   1     -45.404  12.974  22.295  0.00  0.00     0.271 S 
ATOM     19  O   UNL d   1     -45.352  13.311  21.539  0.00  0.00    -0.200 OA
ATOM     20  O   UNL d   1     -45.453  12.639  23.042  0.00  0.00    -0.200 OA
BRANCH  18  21
ATOM     21  N   UNL d   1     -44.664  12.624  22.189  0.00  0.00    -0.229 N 
ATOM     22  C   UNL d   1     -44.440  11.981  22.653  0.00  0.00     0.092 A 
ATOM     23  C   UNL d   1     -43.696  11.631  22.545  0.00  0.00     0.020 A 
ATOM     24  C   UNL d   1     -43.185  11.925  21.977  0.00  0.00     0.003 A 
ATOM     25  C   UNL d   1     -43.406  12.571  21.509  0.00  0.00     0.020 A 
ATOM     26  C   UNL d   1     -44.142  12.919  21.614  0.00  0.00     0.092 A 
ENDBRANCH  18  21
ENDBRANCH   1  18
TORSDOF 5
ENDMDL
MODEL 2
REMARK VINA RESULT:      -5.6      1.118      5.537
REMARK  5 active torsions:
REMARK  status: ('A' for Active; 'I' for Inactive)
REMARK    1  A    between atoms: N_5  and  S_1 
REMARK    2  A    between atoms: C_9  and  S_1 
REMARK    3  A    between atoms: C_2  and  N_4 
REMARK    4  A    between atoms: C_7  and  C_3 
REMARK       I    between atoms: N_4  and  C_6 
REMARK    5  A    between atoms: C_6  and  C_14 
ROOT
ATOM      1  C   UNL d   1     -47.902  13.658  22.939  0.00  0.00     0.104 A 
ATOM      2  C   UNL d   1     -46.503  12.787  23.038  0.00  0.00     0.058 A 
ATOM      3  C   UNL d   1     -47.177  14.044  23.041  0.00  0.00     0.013 A 
ATOM      4  C   UNL d   1     -47.922  12.839  22.887  0.00  0.00     0.013 A 
ATOM      5  C   UNL d   1     -46.484  13.606  23.090  0.00  0.00     0.005 A 
ATOM      6  C   UNL d   1     -47.229  12.401  22.936  0.00  0.00     0.005 A 
ENDROOT
BRANCH   2   7
ATOM      7  C   UNL d   1     -45.802  12.347  23.087  0.00  0.00     0.280 C 
ATOM      8  N   UNL d   1     -45.204  12.460  22.531  0.00  0.00    -0.201 NA
ATOM      9  O   UNL d   1     -45.716  11.807  23.688  0.00  0.00    -0.265 OA
BRANCH   8  10
ATOM     10  C   UNL d   1     -44.511  12.021  22.585  0.00  0.00     0.119 A 
ATOM     11  C   UNL d   1     -43.832  12.129  22.126  0.00  0.00     0.084 A 
ATOM     12  C   UNL d   1     -43.269  11.566  22.365  0.00  0.00     0.014 A 
ATOM     13  C   UNL d   1     -43.607  11.116  22.970  0.00  0.00     0.037 A 
ATOM     14  S   UNL d   1     -44.369  11.399  23.100  0.00  0.00    -0.067 SA
BRANCH  11  15
ATOM     15  C   UNL d   1     -43.724  12.692  21.535  0.00  0.00     0.299 C 
ATOM     16  O   UNL d   1     -44.033  12.552  20.779  0.00  0.00    -0.264 OA
ATOM     17  N   UNL d   1     -43.311  13.388  21.692  0.00  0.00    -0.102 N 
ENDBRANCH  11  15
ENDBRANCH   8  10
ENDBRANCH   2   7
BRANCH   1  18
ATOM     18  S   UNL d   1     -48.595  14.097  22.891  0.00  0.00     0.271 S 
ATOM     19  O   UNL d   1     -48.995  13.515  23.326  0.00  0.00    -0.200 OA
ATOM     20  O   UNL d   1     -48.201  14.673  22.460  0.00  0.00    -0.200 OA
BRANCH  18  21
ATOM     21  N   UNL d   1     -49.291  14.537  22.842  0.00  0.00    -0.229 N 
ATOM     22  C   UNL d   1     -49.421  15.164  23.360  0.00  0.00     0.092 A 
ATOM     23  C   UNL d   1     -50.121  15.606  23.310  0.00  0.00     0.020 A 
ATOM     24  C   UNL d   1     -50.682  15.418  22.743  0.00  0.00     0.003 A 
ATOM     25  C   UNL d   1     -50.555  14.790  22.221  0.00  0.00     0.020 A 
ATOM     26  C   UNL d   1     -49.863  14.351  22.269  0.00  0.00     0.092 A 
ENDBRANCH  18  21
ENDBRANCH   1  18
TORSDOF 5
ENDMDL
MODEL 3
REMARK VINA RESULT:      -4.4      8.385      9.390
REMARK  5 active torsions:
REMARK  status: ('A' for Active; 'I' for Inactive)
REMARK    1  A    between atoms: N_5  and  S_1 
REMARK    2  A    between atoms: C_9  and  S_1 
REMARK    3  A    between atoms: C_2  and  N_4 
REMARK    4  A    between atoms: C_7  and  C_3 
REMARK       I    between atoms: N_4  and  C_6 
REMARK    5  A    between atoms: C_6  and  C_14 
ROOT
ATOM      1  C   UNL d   1     -40.036  14.849  18.823  0.00  0.00     0.104 A 
ATOM      2  C   UNL d   1     -39.337  14.302  20.215  0.00  0.00     0.058 A 
ATOM      3  C   UNL d   1     -40.044  14.041  19.003  0.00  0.00     0.013 A 
ATOM      4  C   UNL d   1     -39.678  15.377  19.340  0.00  0.00     0.013 A 
ATOM      5  C   UNL d   1     -39.694  13.774  19.697  0.00  0.00     0.005 A 
ATOM      6  C   UNL d   1     -39.329  15.110  20.034  0.00  0.00     0.005 A 
ENDROOT
BRANCH   2   7
ATOM      7  C   UNL d   1     -38.985  14.029  20.915  0.00  0.00     0.280 C 
ATOM      8  N   UNL d   1     -39.133  14.415  21.628  0.00  0.00    -0.201 NA
ATOM      9  O   UNL d   1     -38.496  13.381  20.884  0.00  0.00    -0.265 OA
BRANCH   8  10
ATOM     10  C   UNL d   1     -38.782  14.140  22.318  0.00  0.00     0.119 A 
ATOM     11  C   UNL d   1     -38.569  14.602  22.971  0.00  0.00     0.084 A 
ATOM     12  C   UNL d   1     -38.233  14.099  23.541  0.00  0.00     0.014 A 
ATOM     13  C   UNL d   1     -38.242  13.332  23.235  0.00  0.00     0.037 A 
ATOM     14  S   UNL d   1     -38.579  13.364  22.485  0.00  0.00    -0.067 SA
BRANCH  11  15
ATOM     15  C   UNL d   1     -38.669  15.415  23.049  0.00  0.00     0.299 C 
ATOM     16  O   UNL d   1     -39.428  15.722  23.179  0.00  0.00    -0.264 OA
ATOM     17  N   UNL d   1     -38.019  15.922  23.000  0.00  0.00    -0.102 N 
ENDBRANCH  11  15
ENDBRANCH   8  10
ENDBRANCH   2   7
BRANCH   1  18
ATOM     18  S   UNL d   1     -40.385  15.116  18.129  0.00  0.00     0.271 S 
ATOM     19  O   UNL d   1     -39.641  15.333  17.836  0.00  0.00    -0.200 OA
ATOM     20  O   UNL d   1     -41.123  14.902  18.417  0.00  0.00    -0.200 OA
BRANCH  18  21
ATOM     21  N   UNL d   1     -40.737  15.385  17.432  0.00  0.00    -0.229 N 
ATOM     22  C   UNL d   1     -40.310  15.385  16.727  0.00  0.00     0.092 A 
ATOM     23  C   UNL d   1     -40.665  15.655  16.028  0.00  0.00     0.020 A 
ATOM     24  C   UNL d   1     -41.439  15.921  16.040  0.00  0.00     0.003 A 
ATOM     25  C   UNL d   1     -41.871  15.922  16.745  0.00  0.00     0.020 A 
ATOM     26  C   UNL d   1     -41.522  15.655  17.439  0.00  0.00     0.092 A 
ENDBRANCH  18  21
ENDBRANCH   1  18
TORSDOF 5
ENDMDL
MODEL 4
REMARK VINA RESULT:      -4.4      8.766      9.558
REMARK  5 active torsions:
REMARK  status: ('A' for Active; 'I' for Inactive)
REMARK    1  A    between atoms: N_5  and  S_1 
REMARK    2  A    between atoms: C_9  and  S_1 
REMARK    3  A    between atoms: C_2  and  N_4 
REMARK    4  A    between atoms: C_7  and  C_3 
REMARK       I    between atoms: N_4  and  C_6 
REMARK    5  A    between atoms: C_6  and  C_14 
ROOT
ATOM      1  C   UNL d   1     -38.684  14.499  20.624  0.00  0.00     0.104 A 
ATOM      2  C   UNL d   1     -38.791  15.074  19.080  0.00  0.00     0.058 A 
ATOM      3  C   UNL d   1     -38.504  14.008  19.983  0.00  0.00     0.013 A 
ATOM      4  C   UNL d   1     -38.916  15.274  20.488  0.00  0.00     0.013 A 
ATOM      5  C   UNL d   1     -38.559  14.299  19.217  0.00  0.00     0.005 A 
ATOM      6  C   UNL d   1     -38.972  15.565  19.722  0.00  0.00     0.005 A 
ENDROOT
BRANCH   2   7
ATOM      7  C   UNL d   1     -38.846  15.365  18.306  0.00  0.00     0.280 C 
ATOM      8  N   UNL d   1     -39.469  15.130  17.820  0.00  0.00    -0.201 NA
ATOM      9  O   UNL d   1     -38.280  15.882  18.037  0.00  0.00    -0.265 OA
BRANCH   8  10
ATOM     10  C   UNL d   1     -39.518  15.422  17.053  0.00  0.00     0.119 A 
ATOM     11  C   UNL d   1     -40.214  15.535  16.621  0.00  0.00     0.084 A 
ATOM     12  C   UNL d   1     -40.006  15.839  15.875  0.00  0.00     0.014 A 
ATOM     13  C   UNL d   1     -39.183  15.910  15.855  0.00  0.00     0.037 A 
ATOM     14  S   UNL d   1     -38.890  15.653  16.579  0.00  0.00    -0.067 SA
BRANCH  11  15
ATOM     15  C   UNL d   1     -40.981  15.378  16.876  0.00  0.00     0.299 C 
ATOM     16  O   UNL d   1     -41.140  14.669  17.273  0.00  0.00    -0.264 OA
ATOM     17  N   UNL d   1     -41.586  15.922  16.738  0.00  0.00    -0.102 N 
ENDBRANCH  11  15
ENDBRANCH   8  10
ENDBRANCH   2   7
BRANCH   1  18
ATOM     18  S   UNL d   1     -38.629  14.208  21.391  0.00  0.00     0.271 S 
ATOM     19  O   UNL d   1     -38.894  14.936  21.687  0.00  0.00    -0.200 OA
ATOM     20  O   UNL d   1     -38.367  13.487  21.099  0.00  0.00    -0.200 OA
BRANCH  18  21
ATOM     21  N   UNL d   1     -38.573  13.915  22.160  0.00  0.00    -0.229 N 
ATOM     22  C   UNL d   1     -38.122  14.313  22.722  0.00  0.00     0.092 A 
ATOM     23  C   UNL d   1     -38.067  14.018  23.495  0.00  0.00     0.020 A 
ATOM     24  C   UNL d   1     -38.462  13.330  23.698  0.00  0.00     0.003 A 
ATOM     25  C   UNL d   1     -38.917  12.927  23.136  0.00  0.00     0.020 A 
ATOM     26  C   UNL d   1     -38.973  13.218  22.371  0.00  0.00     0.092 A 
ENDBRANCH  18  21
ENDBRANCH   1  18
TORSDOF 5
ENDMDL
MODEL 5
REMARK VINA RESULT:      -3.9      8.821     10.048
REMARK  5 active torsions:
REMARK  status: ('A' for Active; 'I' for Inactive)
REMARK    1  A    between atoms: N_5  and  S_1 
REMARK    2  A    between atoms: C_9  and  S_1 
REMARK    3  A    between atoms: C_2  and  N_4 
REMARK    4  A    between atoms: C_7  and  C_3 
REMARK       I    between atoms: N_4  and  C_6 
REMARK    5  A    between atoms: C_6  and  C_14 
ROOT
ATOM      1  C   UNL d   1     -38.353  14.585  18.145  0.00  0.00     0.104 A 
ATOM      2  C   UNL d   1     -38.372  14.985  19.747  0.00  0.00     0.058 A 
ATOM      3  C   UNL d   1     -37.943  14.122  18.695  0.00  0.00     0.013 A 
ATOM      4  C   UNL d   1     -38.769  15.245  18.401  0.00  0.00     0.013 A 
ATOM      5  C   UNL d   1     -37.955  14.325  19.491  0.00  0.00     0.005 A 
ATOM      6  C   UNL d   1     -38.782  15.448  19.196  0.00  0.00     0.005 A 
ENDROOT
BRANCH   2   7
ATOM      7  C   UNL d   1     -38.383  15.188  20.551  0.00  0.00     0.280 C 
ATOM      8  N   UNL d   1     -38.664  14.650  21.108  0.00  0.00    -0.201 NA
ATOM      9  O   UNL d   1     -38.114  15.920  20.777  0.00  0.00    -0.265 OA
BRANCH   8  10
ATOM     10  C   UNL d   1     -38.672  14.856  21.904  0.00  0.00     0.119 A 
ATOM     11  C   UNL d   1     -38.838  14.348  22.535  0.00  0.00     0.084 A 
ATOM     12  C   UNL d   1     -38.785  14.788  23.239  0.00  0.00     0.014 A 
ATOM     13  C   UNL d   1     -38.587  15.563  23.034  0.00  0.00     0.037 A 
ATOM     14  S   UNL d   1     -38.519  15.599  22.215  0.00  0.00    -0.067 SA
BRANCH  11  15
ATOM     15  C   UNL d   1     -39.023  13.547  22.485  0.00  0.00     0.299 C 
ATOM     16  O   UNL d   1     -38.423  12.984  22.579  0.00  0.00    -0.264 OA
ATOM     17  N   UNL d   1     -39.799  13.307  22.342  0.00  0.00    -0.102 N 
ENDBRANCH  11  15
ENDBRANCH   8  10
ENDBRANCH   2   7
BRANCH   1  18
ATOM     18  S   UNL d   1     -38.340  14.382  17.349  0.00  0.00     0.271 S 
ATOM     19  O   UNL d   1     -37.943  15.088  17.174  0.00  0.00    -0.200 OA
ATOM     20  O   UNL d   1     -38.734  13.683  17.521  0.00  0.00    -0.200 OA
BRANCH  18  21
ATOM     21  N   UNL d   1     -38.328  14.178  16.550  0.00  0.00    -0.229 N 
ATOM     22  C   UNL d   1     -38.281  13.386  16.326  0.00  0.00     0.092 A 
ATOM     23  C   UNL d   1     -38.269  13.182  15.522  0.00  0.00     0.020 A 
ATOM     24  C   UNL d   1     -38.304  13.769  14.952  0.00  0.00     0.003 A 
ATOM     25  C   UNL d   1     -38.352  14.565  15.172  0.00  0.00     0.020 A 
ATOM     26  C   UNL d   1     -38.364  14.769  15.967  0.00  0.00     0.092 A 
ENDBRANCH  18  21
ENDBRANCH   1  18
TORSDOF 5
ENDMDL
