MODEL 1
REMARK VINA RESULT:      78.9      0.000      0.000
REMARK  7 active torsions:
REMARK  status: ('A' for Active; 'I' for Inactive)
REMARK    1  A    between atoms: N_4  and  S_1 
REMARK    2  A    between atoms: C_2  and  N_4 
REMARK    3  A    between atoms: C_3  and  C_2 
REMARK    4  A    between atoms: N_5  and  C_3 
REMARK    5  A    between atoms: C_7  and  C_3 
REMARK    6  A    between atoms: C_9  and  N_6 
REMARK    7  A    between atoms: O_26  and  C_22 
ROOT
ATOM      1  N   UNL d   1      60.786  48.216  50.563  0.00  0.00    -0.300 N 
ATOM      2  N   UNL d   1      61.345  46.717  50.101  0.00  0.00    -0.301 N 
ATOM      3  C   UNL d   1      60.448  47.521  50.876  0.00  0.00     0.100 A 
ATOM      4  C   UNL d   1      61.399  48.143  50.023  0.00  0.00     0.100 A 
ATOM      5  C   UNL d   1      60.722  46.778  50.650  0.00  0.00     0.100 A 
ATOM      6  C   UNL d   1      61.680  47.407  49.790  0.00  0.00     0.100 A 
ENDROOT
BRANCH   1   7
ATOM      7  C   UNL d   1      60.511  48.954  50.791  0.00  0.00     0.089 C 
BRANCH   7   8
ATOM      8  C   UNL d   1      60.969  49.436  51.276  0.00  0.00     0.110 C 
ATOM      9  C   UNL d   1      61.733  49.645  51.046  0.00  0.00     0.023 C 
BRANCH   8  10
ATOM     10  N   UNL d   1      60.666  49.707  51.986  0.00  0.00    -0.161 NA
BRANCH  10  11
ATOM     11  S   UNL d   1      61.126  49.707  52.668  0.00  0.00     0.266 S 
ATOM     12  O   UNL d   1      60.408  49.707  53.085  0.00  0.00    -0.203 OA
ATOM     13  O   UNL d   1      61.125  49.706  53.495  0.00  0.00    -0.203 OA
ATOM     14  C   UNL d   1      61.869  49.706  52.319  0.00  0.00     0.165 C 
ENDBRANCH  10  11
ENDBRANCH   8  10
ENDBRANCH   7   8
BRANCH   7  15
ATOM     15  C   UNL d   1      59.774  49.215  50.534  0.00  0.00     0.047 A 
ATOM     16  S   UNL d   1      59.076  49.229  50.981  0.00  0.00    -0.085 SA
ATOM     17  C   UNL d   1      58.476  49.532  50.500  0.00  0.00     0.035 A 
ATOM     18  C   UNL d   1      58.787  49.707  49.765  0.00  0.00     0.007 A 
ATOM     19  C   UNL d   1      59.596  49.510  49.782  0.00  0.00     0.009 A 
ENDBRANCH   7  15
ENDBRANCH   1   7
BRANCH   2  20
ATOM     20  C   UNL d   1      61.620  45.970  49.874  0.00  0.00     0.064 A 
ATOM     21  C   UNL d   1      62.097  45.894  49.212  0.00  0.00     0.020 A 
ATOM     22  C   UNL d   1      62.370  45.145  48.987  0.00  0.00     0.026 A 
ATOM     23  C   UNL d   1      62.161  44.477  49.431  0.00  0.00     0.094 A 
ATOM     24  C   UNL d   1      61.677  44.572  50.098  0.00  0.00     0.026 A 
ATOM     25  C   UNL d   1      61.403  45.321  50.323  0.00  0.00     0.020 A 
BRANCH  23  26
ATOM     26  O   UNL d   1      62.431  43.723  49.211  0.00  0.00    -0.328 OA
ATOM     27  C   UNL d   1      62.321  43.097  49.734  0.00  0.00     0.181 C 
ENDBRANCH  23  26
ENDBRANCH   2  20
TORSDOF 7
ENDMDL
