MODEL 1
REMARK VINA RESULT:      -3.7      0.000      0.000
REMARK  5 active torsions:
REMARK  status: ('A' for Active; 'I' for Inactive)
REMARK    1  A    between atoms: N_2  and  S_1 
REMARK    2  A    between atoms: C_6  and  S_1 
REMARK       I    between atoms: C_3  and  N_4 
REMARK    3  A    between atoms: C_5  and  C_3 
REMARK    4  A    between atoms: C_11  and  O_13 
REMARK    5  A    between atoms: O_13  and  C_23 
ROOT
ATOM      1  S   UNL d   1      57.633  -0.578  30.650  0.00  0.00     0.271 S 
ATOM      2  O   UNL d   1      58.193  -1.173  30.797  0.00  0.00    -0.200 OA
ATOM      3  O   UNL d   1      57.589  -0.231  29.903  0.00  0.00    -0.200 OA
ENDROOT
BRANCH   1   4
ATOM      4  N   UNL d   1      58.220  -0.953  30.197  0.00  0.00    -0.226 N 
ATOM      5  C   UNL d   1      58.221  -1.775  30.119  0.00  0.00     0.111 A 
ATOM      6  C   UNL d   1      58.807  -2.142  29.668  0.00  0.00     0.103 A 
ATOM      7  N   UNL d   1      59.384  -1.694  29.302  0.00  0.00    -0.267 N 
ATOM      8  C   UNL d   1      59.970  -2.064  28.850  0.00  0.00     0.288 C 
ATOM      9  C   UNL d   1      59.390  -0.870  29.376  0.00  0.00     0.103 A 
ATOM     10  O   UNL d   1      60.561  -1.611  28.475  0.00  0.00    -0.264 OA
ATOM     11  C   UNL d   1      58.803  -0.499  29.828  0.00  0.00     0.111 A 
BRANCH   8  12
ATOM     12  C   UNL d   1      59.975  -2.890  28.769  0.00  0.00     0.156 A 
ATOM     13  O   UNL d   1      60.598  -3.401  28.975  0.00  0.00    -0.300 OA
ATOM     14  C   UNL d   1      60.362  -4.175  28.799  0.00  0.00     0.123 A 
ATOM     15  C   UNL d   1      59.592  -4.149  28.482  0.00  0.00     0.029 A 
ATOM     16  C   UNL d   1      59.357  -3.347  28.466  0.00  0.00     0.032 A 
ENDBRANCH   8  12
ENDBRANCH   1   4
BRANCH   1  17
ATOM     17  C   UNL d   1      57.121  -0.338  31.253  0.00  0.00     0.104 A 
ATOM     18  C   UNL d   1      56.917  -0.859  31.853  0.00  0.00     0.015 A 
ATOM     19  C   UNL d   1      56.407  -0.618  32.453  0.00  0.00     0.025 A 
ATOM     20  C   UNL d   1      56.103   0.146  32.451  0.00  0.00     0.100 A 
ATOM     21  C   UNL d   1      56.309   0.669  31.848  0.00  0.00     0.025 A 
ATOM     22  C   UNL d   1      56.817   0.426  31.251  0.00  0.00     0.015 A 
BRANCH  20  23
ATOM     23  O   UNL d   1      55.587   0.399  33.054  0.00  0.00    -0.307 OA
BRANCH  23  24
ATOM     24  C   UNL d   1      55.871   0.482  33.824  0.00  0.00     0.100 A 
ATOM     25  C   UNL d   1      55.347   0.597  34.445  0.00  0.00     0.023 A 
ATOM     26  C   UNL d   1      54.539   0.629  34.296  0.00  0.00     0.002 C 
ATOM     27  C   UNL d   1      55.626   0.682  35.221  0.00  0.00     0.002 A 
ATOM     28  C   UNL d   1      56.437   0.651  35.373  0.00  0.00     0.000 A 
ATOM     29  C   UNL d   1      56.962   0.535  34.745  0.00  0.00     0.002 A 
ATOM     30  C   UNL d   1      56.678   0.451  33.976  0.00  0.00     0.025 A 
ENDBRANCH  23  24
ENDBRANCH  20  23
ENDBRANCH   1  17
TORSDOF 5
ENDMDL
MODEL 2
REMARK VINA RESULT:      -2.4      1.624      6.263
REMARK  5 active torsions:
REMARK  status: ('A' for Active; 'I' for Inactive)
REMARK    1  A    between atoms: N_2  and  S_1 
REMARK    2  A    between atoms: C_6  and  S_1 
REMARK       I    between atoms: C_3  and  N_4 
REMARK    3  A    between atoms: C_5  and  C_3 
REMARK    4  A    between atoms: C_11  and  O_13 
REMARK    5  A    between atoms: O_13  and  C_23 
ROOT
ATOM      1  S   UNL d   1      57.474   0.243  31.615  0.00  0.00     0.271 S 
ATOM      2  O   UNL d   1      57.774   0.347  32.382  0.00  0.00    -0.200 OA
ATOM      3  O   UNL d   1      56.659   0.215  31.493  0.00  0.00    -0.200 OA
ENDROOT
BRANCH   1   4
ATOM      4  N   UNL d   1      57.135   0.335  32.368  0.00  0.00    -0.226 N 
ATOM      5  C   UNL d   1      56.314   0.353  32.453  0.00  0.00     0.111 A 
ATOM      6  C   UNL d   1      55.982   0.444  33.204  0.00  0.00     0.103 A 
ATOM      7  N   UNL d   1      56.465   0.516  33.859  0.00  0.00    -0.267 N 
ATOM      8  C   UNL d   1      56.130   0.608  34.610  0.00  0.00     0.288 C 
ATOM      9  C   UNL d   1      57.289   0.500  33.782  0.00  0.00     0.103 A 
ATOM     10  O   UNL d   1      56.619   0.682  35.282  0.00  0.00    -0.264 OA
ATOM     11  C   UNL d   1      57.624   0.408  33.030  0.00  0.00     0.111 A 
BRANCH   8  12
ATOM     12  C   UNL d   1      55.306   0.626  34.701  0.00  0.00     0.156 A 
ATOM     13  O   UNL d   1      54.745   0.681  34.088  0.00  0.00    -0.300 OA
ATOM     14  C   UNL d   1      53.991   0.681  34.431  0.00  0.00     0.123 A 
ATOM     15  C   UNL d   1      54.080   0.626  35.258  0.00  0.00     0.029 A 
ATOM     16  C   UNL d   1      54.899   0.592  35.419  0.00  0.00     0.032 A 
ENDBRANCH   8  12
ENDBRANCH   1   4
BRANCH   1  17
ATOM     17  C   UNL d   1      57.995   0.169  30.977  0.00  0.00     0.104 A 
ATOM     18  C   UNL d   1      58.792   0.341  31.074  0.00  0.00     0.015 A 
ATOM     19  C   UNL d   1      59.309   0.267  30.437  0.00  0.00     0.025 A 
ATOM     20  C   UNL d   1      59.027   0.021  29.705  0.00  0.00     0.100 A 
ATOM     21  C   UNL d   1      58.227  -0.152  29.610  0.00  0.00     0.025 A 
ATOM     22  C   UNL d   1      57.713  -0.077  30.246  0.00  0.00     0.015 A 
BRANCH  20  23
ATOM     23  O   UNL d   1      59.544  -0.057  29.056  0.00  0.00    -0.307 OA
BRANCH  23  24
ATOM     24  C   UNL d   1      59.942  -0.769  28.936  0.00  0.00     0.100 A 
ATOM     25  C   UNL d   1      60.724  -0.766  28.689  0.00  0.00     0.023 A 
ATOM     26  C   UNL d   1      61.108  -0.051  28.562  0.00  0.00     0.002 C 
ATOM     27  C   UNL d   1      61.130  -1.479  28.566  0.00  0.00     0.002 A 
ATOM     28  C   UNL d   1      60.746  -2.199  28.693  0.00  0.00     0.000 A 
ATOM     29  C   UNL d   1      59.957  -2.198  28.942  0.00  0.00     0.002 A 
ATOM     30  C   UNL d   1      59.560  -1.486  29.062  0.00  0.00     0.025 A 
ENDBRANCH  23  24
ENDBRANCH  20  23
ENDBRANCH   1  17
TORSDOF 5
ENDMDL
MODEL 3
REMARK VINA RESULT:      -1.3      1.190      6.178
REMARK  5 active torsions:
REMARK  status: ('A' for Active; 'I' for Inactive)
REMARK    1  A    between atoms: N_2  and  S_1 
REMARK    2  A    between atoms: C_6  and  S_1 
REMARK       I    between atoms: C_3  and  N_4 
REMARK    3  A    between atoms: C_5  and  C_3 
REMARK    4  A    between atoms: C_11  and  O_13 
REMARK    5  A    between atoms: O_13  and  C_23 
ROOT
ATOM      1  S   UNL d   1      57.765  -0.038  31.169  0.00  0.00     0.271 S 
ATOM      2  O   UNL d   1      57.073  -0.425  31.416  0.00  0.00    -0.200 OA
ATOM      3  O   UNL d   1      58.003   0.657  31.543  0.00  0.00    -0.200 OA
ENDROOT
BRANCH   1   4
ATOM      4  N   UNL d   1      57.191   0.105  31.753  0.00  0.00    -0.226 N 
ATOM      5  C   UNL d   1      57.411   0.142  32.548  0.00  0.00     0.111 A 
ATOM      6  C   UNL d   1      56.836   0.285  33.124  0.00  0.00     0.103 A 
ATOM      7  N   UNL d   1      56.055   0.388  32.908  0.00  0.00    -0.267 N 
ATOM      8  C   UNL d   1      55.482   0.531  33.487  0.00  0.00     0.288 C 
ATOM      9  C   UNL d   1      55.828   0.352  32.112  0.00  0.00     0.103 A 
ATOM     10  O   UNL d   1      54.684   0.637  33.270  0.00  0.00    -0.264 OA
ATOM     11  C   UNL d   1      56.402   0.209  31.533  0.00  0.00     0.111 A 
BRANCH   8  12
ATOM     12  C   UNL d   1      55.697   0.570  34.287  0.00  0.00     0.156 A 
ATOM     13  O   UNL d   1      56.472   0.616  34.586  0.00  0.00    -0.300 OA
ATOM     14  C   UNL d   1      56.426   0.643  35.412  0.00  0.00     0.123 A 
ATOM     15  C   UNL d   1      55.622   0.614  35.631  0.00  0.00     0.029 A 
ATOM     16  C   UNL d   1      55.175   0.569  34.927  0.00  0.00     0.032 A 
ENDBRANCH   8  12
ENDBRANCH   1   4
BRANCH   1  17
ATOM     17  C   UNL d   1      58.212  -0.353  30.548  0.00  0.00     0.104 A 
ATOM     18  C   UNL d   1      58.450  -1.137  30.568  0.00  0.00     0.015 A 
ATOM     19  C   UNL d   1      58.895  -1.449  29.949  0.00  0.00     0.025 A 
ATOM     20  C   UNL d   1      59.100  -0.972  29.311  0.00  0.00     0.100 A 
ATOM     21  C   UNL d   1      58.860  -0.184  29.292  0.00  0.00     0.025 A 
ATOM     22  C   UNL d   1      58.417   0.124  29.910  0.00  0.00     0.015 A 
BRANCH  20  23
ATOM     23  O   UNL d   1      59.551  -1.279  28.680  0.00  0.00    -0.307 OA
BRANCH  23  24
ATOM     24  C   UNL d   1      59.671  -2.093  28.624  0.00  0.00     0.100 A 
ATOM     25  C   UNL d   1      60.430  -2.391  28.535  0.00  0.00     0.023 A 
ATOM     26  C   UNL d   1      61.069  -1.876  28.502  0.00  0.00     0.002 C 
ATOM     27  C   UNL d   1      60.557  -3.208  28.478  0.00  0.00     0.002 A 
ATOM     28  C   UNL d   1      59.916  -3.729  28.511  0.00  0.00     0.000 A 
ATOM     29  C   UNL d   1      59.152  -3.424  28.600  0.00  0.00     0.002 A 
ATOM     30  C   UNL d   1      59.033  -2.611  28.656  0.00  0.00     0.025 A 
ENDBRANCH  23  24
ENDBRANCH  20  23
ENDBRANCH   1  17
TORSDOF 5
ENDMDL
