MODEL 1
REMARK VINA RESULT:      47.3      0.000      0.000
REMARK  5 active torsions:
REMARK  status: ('A' for Active; 'I' for Inactive)
REMARK    1  A    between atoms: O_4  and  C_1 
REMARK    2  A    between atoms: C_11  and  C_2 
REMARK    3  A    between atoms: C_5  and  O_4 
REMARK    4  A    between atoms: C_7  and  C_5 
REMARK    5  A    between atoms: N_10  and  C_11 
ROOT
ATOM      1  C   UNL d   1      14.421  13.454  -2.101  0.00  0.00     0.122 A 
ATOM      2  C   UNL d   1      14.399  14.286  -2.067  0.00  0.00     0.043 A 
ATOM      3  C   UNL d   1      14.652  13.018  -1.433  0.00  0.00     0.105 A 
ATOM      4  C   UNL d   1      14.860  13.422  -0.730  0.00  0.00     0.030 A 
ATOM      5  C   UNL d   1      14.834  14.255  -0.709  0.00  0.00     0.059 A 
ATOM      6  C   UNL d   1      14.597  14.670  -1.398  0.00  0.00     0.015 A 
ATOM      7  N   UNL d   1      14.675  12.213  -1.463  0.00  0.00    -0.242 NA
ATOM      8 CL   UNL d   1      15.036  14.647  -0.027  0.00  0.00    -0.082 Cl
ATOM      9  C   UNL d   1      15.087  13.013  -0.070  0.00  0.00     0.004 A 
ATOM     10  C   UNL d   1      14.908  11.791  -0.784  0.00  0.00     0.099 A 
ATOM     11  C   UNL d   1      15.107  12.176  -0.115  0.00  0.00     0.021 A 
ENDROOT
BRANCH   1  12
ATOM     12  O   UNL d   1      14.218  13.060  -2.787  0.00  0.00    -0.271 OA
BRANCH  12  13
ATOM     13  C   UNL d   1      13.456  12.804  -2.920  0.00  0.00     0.306 C 
ATOM     14  O   UNL d   1      12.930  12.797  -2.275  0.00  0.00    -0.258 OA
BRANCH  13  15
ATOM     15  C   UNL d   1      13.224  12.564  -3.661  0.00  0.00     0.093 A 
ATOM     16  S   UNL d   1      12.992  11.827  -3.854  0.00  0.00    -0.081 SA
ATOM     17  C   UNL d   1      12.803  11.820  -4.665  0.00  0.00     0.036 A 
ATOM     18  C   UNL d   1      12.926  12.565  -4.954  0.00  0.00     0.008 A 
ATOM     19  C   UNL d   1      13.199  13.042  -4.298  0.00  0.00     0.012 A 
ENDBRANCH  13  15
ENDBRANCH  12  13
ENDBRANCH   1  12
BRANCH   2  20
ATOM     20  C   UNL d   1      14.166  14.738  -2.739  0.00  0.00     0.082 C 
BRANCH  20  21
ATOM     21  N   UNL d   1      14.511  15.498  -2.864  0.00  0.00    -0.300 N 
ATOM     22  C   UNL d   1      14.598  16.000  -2.209  0.00  0.00     0.100 A 
ATOM     23  C   UNL d   1      14.932  16.741  -2.321  0.00  0.00     0.100 A 
ATOM     24  N   UNL d   1      15.177  16.978  -3.081  0.00  0.00    -0.299 N 
ATOM     25  C   UNL d   1      15.077  16.463  -3.697  0.00  0.00     0.100 A 
ATOM     26  C   UNL d   1      15.517  17.725  -3.213  0.00  0.00     0.100 C 
ATOM     27  C   UNL d   1      14.749  15.729  -3.606  0.00  0.00     0.100 A 
ENDBRANCH  20  21
ENDBRANCH   2  20
TORSDOF 5
ENDMDL
MODEL 2
REMARK VINA RESULT:      47.9      1.649      3.853
REMARK  5 active torsions:
REMARK  status: ('A' for Active; 'I' for Inactive)
REMARK    1  A    between atoms: O_4  and  C_1 
REMARK    2  A    between atoms: C_11  and  C_2 
REMARK    3  A    between atoms: C_5  and  O_4 
REMARK    4  A    between atoms: C_7  and  C_5 
REMARK    5  A    between atoms: N_10  and  C_11 
ROOT
ATOM      1  C   UNL d   1      14.062  14.227  -2.320  0.00  0.00     0.122 A 
ATOM      2  C   UNL d   1      13.709  13.981  -3.032  0.00  0.00     0.043 A 
ATOM      3  C   UNL d   1      14.402  14.984  -2.265  0.00  0.00     0.105 A 
ATOM      4  C   UNL d   1      14.384  15.492  -2.930  0.00  0.00     0.030 A 
ATOM      5  C   UNL d   1      14.027  15.234  -3.638  0.00  0.00     0.059 A 
ATOM      6  C   UNL d   1      13.691  14.465  -3.665  0.00  0.00     0.015 A 
ATOM      7  N   UNL d   1      14.745  15.225  -1.577  0.00  0.00    -0.242 NA
ATOM      8 CL   UNL d   1      14.009  15.726  -4.283  0.00  0.00    -0.082 Cl
ATOM      9  C   UNL d   1      14.710  16.231  -2.894  0.00  0.00     0.004 A 
ATOM     10  C   UNL d   1      15.081  15.985  -1.539  0.00  0.00     0.099 A 
ATOM     11  C   UNL d   1      15.064  16.469  -2.172  0.00  0.00     0.021 A 
ENDROOT
BRANCH   1  12
ATOM     12  O   UNL d   1      14.080  13.731  -1.671  0.00  0.00    -0.271 OA
BRANCH  12  13
ATOM     13  C   UNL d   1      14.688  13.201  -1.558  0.00  0.00     0.306 C 
ATOM     14  O   UNL d   1      15.337  13.236  -2.079  0.00  0.00    -0.258 OA
BRANCH  13  15
ATOM     15  C   UNL d   1      14.656  12.658  -0.955  0.00  0.00     0.093 A 
ATOM     16  S   UNL d   1      13.990  12.397  -0.606  0.00  0.00    -0.081 SA
ATOM     17  C   UNL d   1      14.205  11.847  -0.017  0.00  0.00     0.036 A 
ATOM     18  C   UNL d   1      15.011  11.785  -0.020  0.00  0.00     0.008 A 
ATOM     19  C   UNL d   1      15.297  12.313  -0.630  0.00  0.00     0.012 A 
ENDBRANCH  13  15
ENDBRANCH  12  13
ENDBRANCH   1  12
BRANCH   2  20
ATOM     20  C   UNL d   1      13.361  13.216  -3.099  0.00  0.00     0.082 C 
BRANCH  20  21
ATOM     21  N   UNL d   1      13.298  12.857  -3.860  0.00  0.00    -0.300 N 
ATOM     22  C   UNL d   1      12.935  13.290  -4.467  0.00  0.00     0.100 A 
ATOM     23  C   UNL d   1      12.870  12.948  -5.211  0.00  0.00     0.100 A 
ATOM     24  N   UNL d   1      13.165  12.180  -5.345  0.00  0.00    -0.299 N 
ATOM     25  C   UNL d   1      13.513  11.788  -4.730  0.00  0.00     0.100 A 
ATOM     26  C   UNL d   1      13.107  11.820  -6.091  0.00  0.00     0.100 C 
ATOM     27  C   UNL d   1      13.586  12.108  -3.991  0.00  0.00     0.100 A 
ENDBRANCH  20  21
ENDBRANCH   2  20
TORSDOF 5
ENDMDL
