MODEL 1
REMARK VINA RESULT:      -3.8      0.000      0.000
REMARK  6 active torsions:
REMARK  status: ('A' for Active; 'I' for Inactive)
REMARK    1  A    between atoms: N_8  and  S_1 
REMARK    2  A    between atoms: C_10  and  S_1 
REMARK    3  A    between atoms: C_2  and  N_6 
REMARK       I    between atoms: N_6  and  C_9 
REMARK    4  A    between atoms: C_9  and  C_15 
REMARK    5  A    between atoms: O_26  and  C_13 
REMARK    6  A    between atoms: O_27  and  C_14 
ROOT
ATOM      1  N   UNL d   1      53.828  34.858  54.440  0.00  0.00    -0.183 NA
ATOM      2  C   UNL d   1      54.308  34.237  54.708  0.00  0.00     0.281 C 
ATOM      3  O   UNL d   1      54.973  34.409  55.162  0.00  0.00    -0.265 OA
ENDROOT
BRANCH   2   4
ATOM      4  C   UNL d   1      54.113  33.475  54.516  0.00  0.00     0.058 A 
ATOM      5  C   UNL d   1      54.362  33.139  53.811  0.00  0.00     0.005 A 
ATOM      6  C   UNL d   1      54.163  32.364  53.619  0.00  0.00     0.013 A 
ATOM      7  C   UNL d   1      53.703  31.916  54.143  0.00  0.00     0.104 A 
ATOM      8  C   UNL d   1      53.448  32.248  54.856  0.00  0.00     0.013 A 
ATOM      9  C   UNL d   1      53.653  33.026  55.042  0.00  0.00     0.005 A 
BRANCH   7  10
ATOM     10  S   UNL d   1      53.502  31.138  53.952  0.00  0.00     0.272 S 
ATOM     11  O   UNL d   1      53.643  31.302  53.151  0.00  0.00    -0.200 OA
ATOM     12  O   UNL d   1      53.363  30.981  54.748  0.00  0.00    -0.200 OA
BRANCH  10  13
ATOM     13  N   UNL d   1      53.300  30.362  53.764  0.00  0.00    -0.225 N 
ATOM     14  C   UNL d   1      52.846  30.204  53.102  0.00  0.00     0.118 A 
ATOM     15  C   UNL d   1      52.649  29.422  52.922  0.00  0.00     0.142 A 
ATOM     16  O   UNL d   1      52.906  28.814  53.401  0.00  0.00    -0.300 OA
ATOM     17  C   UNL d   1      53.362  28.975  54.066  0.00  0.00     0.142 A 
ATOM     18  C   UNL d   1      53.559  29.746  54.248  0.00  0.00     0.118 A 
ENDBRANCH  10  13
ENDBRANCH   7  10
ENDBRANCH   2   4
BRANCH   1  19
ATOM     19  C   UNL d   1      53.151  34.694  53.977  0.00  0.00     0.197 A 
ATOM     20  N   UNL d   1      52.405  34.490  54.264  0.00  0.00    -0.218 NA
ATOM     21  C   UNL d   1      51.909  34.379  53.618  0.00  0.00     0.114 A 
ATOM     22  C   UNL d   1      51.115  34.173  53.556  0.00  0.00     0.112 A 
ATOM     23  C   UNL d   1      52.350  34.516  52.935  0.00  0.00     0.074 A 
ATOM     24  C   UNL d   1      50.757  34.101  52.817  0.00  0.00     0.028 A 
ATOM     25  C   UNL d   1      51.207  34.240  52.131  0.00  0.00     0.027 A 
ATOM     26  C   UNL d   1      51.998  34.446  52.190  0.00  0.00     0.102 A 
ATOM     27  S   UNL d   1      53.121  34.711  53.167  0.00  0.00    -0.045 SA
BRANCH  22  28
ATOM     28  O   UNL d   1      50.661  34.033  54.244  0.00  0.00    -0.327 OA
ATOM     29  C   UNL d   1      49.839  33.988  54.194  0.00  0.00     0.181 C 
ENDBRANCH  22  28
BRANCH  26  30
ATOM     30  O   UNL d   1      52.451  34.586  51.502  0.00  0.00    -0.328 OA
ATOM     31  C   UNL d   1      52.084  34.609  50.766  0.00  0.00     0.181 C 
ENDBRANCH  26  30
ENDBRANCH   1  19
TORSDOF 6
ENDMDL
MODEL 2
REMARK VINA RESULT:      -3.7      0.399      1.579
REMARK  6 active torsions:
REMARK  status: ('A' for Active; 'I' for Inactive)
REMARK    1  A    between atoms: N_8  and  S_1 
REMARK    2  A    between atoms: C_10  and  S_1 
REMARK    3  A    between atoms: C_2  and  N_6 
REMARK       I    between atoms: N_6  and  C_9 
REMARK    4  A    between atoms: C_9  and  C_15 
REMARK    5  A    between atoms: O_26  and  C_13 
REMARK    6  A    between atoms: O_27  and  C_14 
ROOT
ATOM      1  N   UNL d   1      53.668  34.995  54.311  0.00  0.00    -0.183 NA
ATOM      2  C   UNL d   1      54.164  34.391  54.588  0.00  0.00     0.281 C 
ATOM      3  O   UNL d   1      54.829  34.587  55.033  0.00  0.00    -0.265 OA
ENDROOT
BRANCH   2   4
ATOM      4  C   UNL d   1      53.985  33.620  54.414  0.00  0.00     0.058 A 
ATOM      5  C   UNL d   1      53.510  33.175  54.911  0.00  0.00     0.005 A 
ATOM      6  C   UNL d   1      53.328  32.392  54.733  0.00  0.00     0.013 A 
ATOM      7  C   UNL d   1      53.629  32.048  54.042  0.00  0.00     0.104 A 
ATOM      8  C   UNL d   1      54.109  32.492  53.535  0.00  0.00     0.013 A 
ATOM      9  C   UNL d   1      54.286  33.277  53.722  0.00  0.00     0.005 A 
BRANCH   7  10
ATOM     10  S   UNL d   1      53.448  31.263  53.861  0.00  0.00     0.272 S 
ATOM     11  O   UNL d   1      53.499  31.441  53.052  0.00  0.00    -0.200 OA
ATOM     12  O   UNL d   1      53.399  31.092  54.665  0.00  0.00    -0.200 OA
BRANCH  10  13
ATOM     13  N   UNL d   1      53.268  30.479  53.683  0.00  0.00    -0.225 N 
ATOM     14  C   UNL d   1      52.816  30.300  53.025  0.00  0.00     0.118 A 
ATOM     15  C   UNL d   1      52.640  29.512  52.855  0.00  0.00     0.142 A 
ATOM     16  O   UNL d   1      52.915  28.916  53.340  0.00  0.00    -0.300 OA
ATOM     17  C   UNL d   1      53.370  29.098  54.001  0.00  0.00     0.142 A 
ATOM     18  C   UNL d   1      53.546  29.877  54.173  0.00  0.00     0.118 A 
ENDBRANCH  10  13
ENDBRANCH   7  10
ENDBRANCH   2   4
BRANCH   1  19
ATOM     19  C   UNL d   1      52.991  34.807  53.858  0.00  0.00     0.197 A 
ATOM     20  N   UNL d   1      52.959  34.733  53.038  0.00  0.00    -0.218 NA
ATOM     21  C   UNL d   1      52.188  34.543  52.831  0.00  0.00     0.114 A 
ATOM     22  C   UNL d   1      51.825  34.403  52.106  0.00  0.00     0.112 A 
ATOM     23  C   UNL d   1      51.744  34.500  53.524  0.00  0.00     0.074 A 
ATOM     24  C   UNL d   1      51.022  34.220  52.067  0.00  0.00     0.028 A 
ATOM     25  C   UNL d   1      50.580  34.177  52.770  0.00  0.00     0.027 A 
ATOM     26  C   UNL d   1      50.938  34.316  53.494  0.00  0.00     0.102 A 
ATOM     27  S   UNL d   1      52.251  34.665  54.159  0.00  0.00    -0.045 SA
BRANCH  22  28
ATOM     28  O   UNL d   1      52.268  34.446  51.398  0.00  0.00    -0.327 OA
ATOM     29  C   UNL d   1      51.881  34.502  50.672  0.00  0.00     0.181 C 
ENDBRANCH  22  28
BRANCH  26  30
ATOM     30  O   UNL d   1      50.495  34.274  54.201  0.00  0.00    -0.328 OA
ATOM     31  C   UNL d   1      49.676  34.346  54.177  0.00  0.00     0.181 C 
ENDBRANCH  26  30
ENDBRANCH   1  19
TORSDOF 6
ENDMDL
MODEL 3
REMARK VINA RESULT:      -2.6      1.236      4.226
REMARK  6 active torsions:
REMARK  status: ('A' for Active; 'I' for Inactive)
REMARK    1  A    between atoms: N_8  and  S_1 
REMARK    2  A    between atoms: C_10  and  S_1 
REMARK    3  A    between atoms: C_2  and  N_6 
REMARK       I    between atoms: N_6  and  C_9 
REMARK    4  A    between atoms: C_9  and  C_15 
REMARK    5  A    between atoms: O_26  and  C_13 
REMARK    6  A    between atoms: O_27  and  C_14 
ROOT
ATOM      1  N   UNL d   1      54.729  32.923  54.763  0.00  0.00    -0.183 NA
ATOM      2  C   UNL d   1      54.434  33.692  54.662  0.00  0.00     0.281 C 
ATOM      3  O   UNL d   1      54.874  34.332  54.936  0.00  0.00    -0.265 OA
ENDROOT
BRANCH   2   4
ATOM      4  C   UNL d   1      53.720  33.796  54.294  0.00  0.00     0.058 A 
ATOM      5  C   UNL d   1      53.017  33.730  54.711  0.00  0.00     0.005 A 
ATOM      6  C   UNL d   1      52.292  33.836  54.336  0.00  0.00     0.013 A 
ATOM      7  C   UNL d   1      52.270  34.013  53.527  0.00  0.00     0.104 A 
ATOM      8  C   UNL d   1      52.976  34.081  53.100  0.00  0.00     0.013 A 
ATOM      9  C   UNL d   1      53.699  33.973  53.484  0.00  0.00     0.005 A 
BRANCH   7  10
ATOM     10  S   UNL d   1      51.544  34.120  53.148  0.00  0.00     0.272 S 
ATOM     11  O   UNL d   1      51.192  33.594  53.684  0.00  0.00    -0.200 OA
ATOM     12  O   UNL d   1      51.900  34.641  52.619  0.00  0.00    -0.200 OA
BRANCH  10  13
ATOM     13  N   UNL d   1      50.821  34.228  52.769  0.00  0.00    -0.225 N 
ATOM     14  C   UNL d   1      50.701  33.924  52.019  0.00  0.00     0.118 A 
ATOM     15  C   UNL d   1      49.972  34.038  51.647  0.00  0.00     0.142 A 
ATOM     16  O   UNL d   1      49.378  34.451  52.025  0.00  0.00    -0.300 OA
ATOM     17  C   UNL d   1      49.502  34.755  52.779  0.00  0.00     0.142 A 
ATOM     18  C   UNL d   1      50.220  34.645  53.150  0.00  0.00     0.118 A 
ENDBRANCH  10  13
ENDBRANCH   7  10
ENDBRANCH   2   4
BRANCH   1  19
ATOM     19  C   UNL d   1      54.291  32.267  54.489  0.00  0.00     0.197 A 
ATOM     20  N   UNL d   1      54.138  32.079  53.700  0.00  0.00    -0.218 NA
ATOM     21  C   UNL d   1      53.690  31.392  53.687  0.00  0.00     0.114 A 
ATOM     22  C   UNL d   1      53.375  30.945  53.072  0.00  0.00     0.112 A 
ATOM     23  C   UNL d   1      53.566  31.155  54.467  0.00  0.00     0.074 A 
ATOM     24  C   UNL d   1      52.938  30.264  53.229  0.00  0.00     0.028 A 
ATOM     25  C   UNL d   1      52.817  30.031  54.018  0.00  0.00     0.027 A 
ATOM     26  C   UNL d   1      53.129  30.474  54.633  0.00  0.00     0.102 A 
ATOM     27  S   UNL d   1      53.944  31.705  54.960  0.00  0.00    -0.045 SA
BRANCH  22  28
ATOM     28  O   UNL d   1      53.496  31.178  52.278  0.00  0.00    -0.327 OA
ATOM     29  C   UNL d   1      53.208  30.710  51.662  0.00  0.00     0.181 C 
ENDBRANCH  22  28
BRANCH  26  30
ATOM     30  O   UNL d   1      53.008  30.241  55.426  0.00  0.00    -0.328 OA
ATOM     31  C   UNL d   1      52.947  29.442  55.615  0.00  0.00     0.181 C 
ENDBRANCH  26  30
ENDBRANCH   1  19
TORSDOF 6
ENDMDL
MODEL 4
REMARK VINA RESULT:      -2.2      1.406      3.963
REMARK  6 active torsions:
REMARK  status: ('A' for Active; 'I' for Inactive)
REMARK    1  A    between atoms: N_8  and  S_1 
REMARK    2  A    between atoms: C_10  and  S_1 
REMARK    3  A    between atoms: C_2  and  N_6 
REMARK       I    between atoms: N_6  and  C_9 
REMARK    4  A    between atoms: C_9  and  C_15 
REMARK    5  A    between atoms: O_26  and  C_13 
REMARK    6  A    between atoms: O_27  and  C_14 
ROOT
ATOM      1  N   UNL d   1      54.009  34.070  55.509  0.00  0.00    -0.183 NA
ATOM      2  C   UNL d   1      53.408  34.636  55.433  0.00  0.00     0.281 C 
ATOM      3  O   UNL d   1      53.350  35.240  55.989  0.00  0.00    -0.265 OA
ENDROOT
BRANCH   2   4
ATOM      4  C   UNL d   1      52.890  34.582  54.813  0.00  0.00     0.058 A 
ATOM      5  C   UNL d   1      52.220  34.112  54.861  0.00  0.00     0.005 A 
ATOM      6  C   UNL d   1      51.695  34.059  54.230  0.00  0.00     0.013 A 
ATOM      7  C   UNL d   1      51.843  34.485  53.535  0.00  0.00     0.104 A 
ATOM      8  C   UNL d   1      52.518  34.961  53.479  0.00  0.00     0.013 A 
ATOM      9  C   UNL d   1      53.039  35.009  54.117  0.00  0.00     0.005 A 
BRANCH   7  10
ATOM     10  S   UNL d   1      51.317  34.433  52.900  0.00  0.00     0.272 S 
ATOM     11  O   UNL d   1      50.801  33.984  53.369  0.00  0.00    -0.200 OA
ATOM     12  O   UNL d   1      51.834  34.879  52.439  0.00  0.00    -0.200 OA
BRANCH  10  13
ATOM     13  N   UNL d   1      50.795  34.382  52.265  0.00  0.00    -0.225 N 
ATOM     14  C   UNL d   1      51.070  34.180  51.522  0.00  0.00     0.118 A 
ATOM     15  C   UNL d   1      50.539  34.132  50.891  0.00  0.00     0.142 A 
ATOM     16  O   UNL d   1      49.747  34.285  51.010  0.00  0.00    -0.300 OA
ATOM     17  C   UNL d   1      49.472  34.489  51.758  0.00  0.00     0.142 A 
ATOM     18  C   UNL d   1      49.994  34.537  52.384  0.00  0.00     0.118 A 
ENDBRANCH  10  13
ENDBRANCH   7  10
ENDBRANCH   2   4
BRANCH   1  19
ATOM     19  C   UNL d   1      54.076  33.452  54.950  0.00  0.00     0.197 A 
ATOM     20  N   UNL d   1      53.695  32.721  54.984  0.00  0.00    -0.218 NA
ATOM     21  C   UNL d   1      53.920  32.288  54.324  0.00  0.00     0.114 A 
ATOM     22  C   UNL d   1      53.724  31.534  54.060  0.00  0.00     0.112 A 
ATOM     23  C   UNL d   1      54.439  32.753  53.882  0.00  0.00     0.074 A 
ATOM     24  C   UNL d   1      54.042  31.238  53.359  0.00  0.00     0.028 A 
ATOM     25  C   UNL d   1      54.566  31.712  52.919  0.00  0.00     0.027 A 
ATOM     26  C   UNL d   1      54.763  32.463  53.178  0.00  0.00     0.102 A 
ATOM     27  S   UNL d   1      54.531  33.475  54.279  0.00  0.00    -0.045 SA
BRANCH  22  28
ATOM     28  O   UNL d   1      53.198  31.057  54.502  0.00  0.00    -0.327 OA
ATOM     29  C   UNL d   1      53.014  30.296  54.242  0.00  0.00     0.181 C 
ENDBRANCH  22  28
BRANCH  26  30
ATOM     30  O   UNL d   1      55.288  32.940  52.737  0.00  0.00    -0.328 OA
ATOM     31  C   UNL d   1      55.939  32.599  52.367  0.00  0.00     0.181 C 
ENDBRANCH  26  30
ENDBRANCH   1  19
TORSDOF 6
ENDMDL
MODEL 5
REMARK VINA RESULT:      -2.2      1.297      3.040
REMARK  6 active torsions:
REMARK  status: ('A' for Active; 'I' for Inactive)
REMARK    1  A    between atoms: N_8  and  S_1 
REMARK    2  A    between atoms: C_10  and  S_1 
REMARK    3  A    between atoms: C_2  and  N_6 
REMARK       I    between atoms: N_6  and  C_9 
REMARK    4  A    between atoms: C_9  and  C_15 
REMARK    5  A    between atoms: O_26  and  C_13 
REMARK    6  A    between atoms: O_27  and  C_14 
ROOT
ATOM      1  N   UNL d   1      52.075  34.611  52.752  0.00  0.00    -0.183 NA
ATOM      2  C   UNL d   1      51.643  33.975  52.441  0.00  0.00     0.281 C 
ATOM      3  O   UNL d   1      51.025  34.124  51.918  0.00  0.00    -0.265 OA
ENDROOT
BRANCH   2   4
ATOM      4  C   UNL d   1      51.839  33.219  52.658  0.00  0.00     0.058 A 
ATOM      5  C   UNL d   1      51.503  32.869  53.319  0.00  0.00     0.005 A 
ATOM      6  C   UNL d   1      51.704  32.102  53.538  0.00  0.00     0.013 A 
ATOM      7  C   UNL d   1      52.253  31.676  53.087  0.00  0.00     0.104 A 
ATOM      8  C   UNL d   1      52.596  32.023  52.419  0.00  0.00     0.013 A 
ATOM      9  C   UNL d   1      52.389  32.793  52.206  0.00  0.00     0.005 A 
BRANCH   7  10
ATOM     10  S   UNL d   1      52.456  30.905  53.305  0.00  0.00     0.272 S 
ATOM     11  O   UNL d   1      53.183  30.991  52.916  0.00  0.00    -0.200 OA
ATOM     12  O   UNL d   1      51.732  30.827  53.690  0.00  0.00    -0.200 OA
BRANCH  10  13
ATOM     13  N   UNL d   1      52.656  30.137  53.525  0.00  0.00    -0.225 N 
ATOM     14  C   UNL d   1      52.334  29.499  53.126  0.00  0.00     0.118 A 
ATOM     15  C   UNL d   1      52.540  28.733  53.353  0.00  0.00     0.142 A 
ATOM     16  O   UNL d   1      53.060  28.613  53.970  0.00  0.00    -0.300 OA
ATOM     17  C   UNL d   1      53.382  29.256  54.369  0.00  0.00     0.142 A 
ATOM     18  C   UNL d   1      53.181  30.016  54.148  0.00  0.00     0.118 A 
ENDBRANCH  10  13
ENDBRANCH   7  10
ENDBRANCH   2   4
BRANCH   1  19
ATOM     19  C   UNL d   1      52.705  34.470  53.283  0.00  0.00     0.197 A 
ATOM     20  N   UNL d   1      53.447  34.165  53.089  0.00  0.00    -0.218 NA
ATOM     21  C   UNL d   1      53.889  34.120  53.779  0.00  0.00     0.114 A 
ATOM     22  C   UNL d   1      54.656  33.865  53.932  0.00  0.00     0.112 A 
ATOM     23  C   UNL d   1      53.420  34.397  54.399  0.00  0.00     0.074 A 
ATOM     24  C   UNL d   1      54.959  33.883  54.699  0.00  0.00     0.028 A 
ATOM     25  C   UNL d   1      54.481  34.164  55.319  0.00  0.00     0.027 A 
ATOM     26  C   UNL d   1      53.717  34.418  55.170  0.00  0.00     0.102 A 
ATOM     27  S   UNL d   1      52.685  34.613  54.081  0.00  0.00    -0.045 SA
BRANCH  22  28
ATOM     28  O   UNL d   1      55.138  33.583  53.309  0.00  0.00    -0.327 OA
ATOM     29  C   UNL d   1      55.882  33.268  53.474  0.00  0.00     0.181 C 
ENDBRANCH  22  28
BRANCH  26  30
ATOM     30  O   UNL d   1      53.236  34.700  55.792  0.00  0.00    -0.328 OA
ATOM     31  C   UNL d   1      53.575  35.108  56.421  0.00  0.00     0.181 C 
ENDBRANCH  26  30
ENDBRANCH   1  19
TORSDOF 6
ENDMDL
MODEL 6
REMARK VINA RESULT:      -1.8      1.541      4.190
REMARK  6 active torsions:
REMARK  status: ('A' for Active; 'I' for Inactive)
REMARK    1  A    between atoms: N_8  and  S_1 
REMARK    2  A    between atoms: C_10  and  S_1 
REMARK    3  A    between atoms: C_2  and  N_6 
REMARK       I    between atoms: N_6  and  C_9 
REMARK    4  A    between atoms: C_9  and  C_15 
REMARK    5  A    between atoms: O_26  and  C_13 
REMARK    6  A    between atoms: O_27  and  C_14 
ROOT
ATOM      1  N   UNL d   1      53.570  30.540  53.581  0.00  0.00    -0.183 NA
ATOM      2  C   UNL d   1      52.801  30.485  53.274  0.00  0.00     0.281 C 
ATOM      3  O   UNL d   1      52.495  29.745  53.082  0.00  0.00    -0.265 OA
ENDROOT
BRANCH   2   4
ATOM      4  C   UNL d   1      52.367  31.161  53.170  0.00  0.00     0.058 A 
ATOM      5  C   UNL d   1      52.513  31.664  52.539  0.00  0.00     0.005 A 
ATOM      6  C   UNL d   1      52.072  32.351  52.435  0.00  0.00     0.013 A 
ATOM      7  C   UNL d   1      51.471  32.538  52.974  0.00  0.00     0.104 A 
ATOM      8  C   UNL d   1      51.318  32.036  53.614  0.00  0.00     0.013 A 
ATOM      9  C   UNL d   1      51.766  31.349  53.710  0.00  0.00     0.005 A 
BRANCH   7  10
ATOM     10  S   UNL d   1      51.026  33.227  52.872  0.00  0.00     0.272 S 
ATOM     11  O   UNL d   1      51.559  33.480  52.289  0.00  0.00    -0.200 OA
ATOM     12  O   UNL d   1      50.501  32.970  53.452  0.00  0.00    -0.200 OA
BRANCH  10  13
ATOM     13  N   UNL d   1      50.581  33.913  52.772  0.00  0.00    -0.225 N 
ATOM     14  C   UNL d   1      50.098  33.997  52.117  0.00  0.00     0.118 A 
ATOM     15  C   UNL d   1      49.656  34.688  52.026  0.00  0.00     0.142 A 
ATOM     16  O   UNL d   1      49.701  35.281  52.585  0.00  0.00    -0.300 OA
ATOM     17  C   UNL d   1      50.187  35.194  53.242  0.00  0.00     0.142 A 
ATOM     18  C   UNL d   1      50.626  34.513  53.337  0.00  0.00     0.118 A 
ENDBRANCH  10  13
ENDBRANCH   7  10
ENDBRANCH   2   4
BRANCH   1  19
ATOM     19  C   UNL d   1      53.890  31.287  53.779  0.00  0.00     0.197 A 
ATOM     20  N   UNL d   1      53.703  31.734  54.447  0.00  0.00    -0.218 NA
ATOM     21  C   UNL d   1      54.145  32.425  54.418  0.00  0.00     0.114 A 
ATOM     22  C   UNL d   1      54.195  33.074  54.921  0.00  0.00     0.112 A 
ATOM     23  C   UNL d   1      54.604  32.404  53.733  0.00  0.00     0.074 A 
ATOM     24  C   UNL d   1      54.700  33.703  54.747  0.00  0.00     0.028 A 
ATOM     25  C   UNL d   1      55.160  33.675  54.054  0.00  0.00     0.027 A 
ATOM     26  C   UNL d   1      55.112  33.030  53.551  0.00  0.00     0.102 A 
ATOM     27  S   UNL d   1      54.439  31.692  53.341  0.00  0.00    -0.045 SA
BRANCH  22  28
ATOM     28  O   UNL d   1      53.733  33.103  55.618  0.00  0.00    -0.327 OA
ATOM     29  C   UNL d   1      53.492  33.831  55.923  0.00  0.00     0.181 C 
ENDBRANCH  22  28
BRANCH  26  30
ATOM     30  O   UNL d   1      55.574  33.001  52.855  0.00  0.00    -0.328 OA
ATOM     31  C   UNL d   1      55.931  33.686  52.571  0.00  0.00     0.181 C 
ENDBRANCH  26  30
ENDBRANCH   1  19
TORSDOF 6
ENDMDL
