MODEL 1
REMARK VINA RESULT:      29.1      0.000      0.000
REMARK  5 active torsions:
REMARK  status: ('A' for Active; 'I' for Inactive)
REMARK    1  A    between atoms: N_2  and  S_1 
REMARK    2  A    between atoms: C_3  and  S_1 
REMARK    3  A    between atoms: C_4  and  N_2 
REMARK    4  A    between atoms: C_5  and  C_4 
REMARK       I    between atoms: C_8  and  N_9 
REMARK    5  A    between atoms: N_9  and  C_14 
ROOT
ATOM      1  C   UNL d   1      59.350  49.686  50.580  0.00  0.00     0.105 A 
ATOM      2  C   UNL d   1      59.210  49.706  51.401  0.00  0.00     0.015 A 
ATOM      3  C   UNL d   1      60.121  49.658  50.294  0.00  0.00     0.015 A 
ATOM      4  C   UNL d   1      60.614  49.670  51.642  0.00  0.00     0.085 A 
ATOM      5  C   UNL d   1      60.753  49.650  50.829  0.00  0.00     0.020 A 
ATOM      6  C   UNL d   1      59.842  49.698  51.928  0.00  0.00     0.020 A 
ENDROOT
BRANCH   1   7
ATOM      7  S   UNL d   1      58.717  49.695  50.054  0.00  0.00     0.285 S 
ATOM      8  O   UNL d   1      58.856  49.691  49.241  0.00  0.00    -0.198 OA
ATOM      9  O   UNL d   1      58.365  49.702  50.801  0.00  0.00    -0.198 OA
BRANCH   7  10
ATOM     10  N   UNL d   1      57.938  49.708  50.335  0.00  0.00    -0.150 NA
BRANCH  10  11
ATOM     11  C   UNL d   1      57.308  49.570  49.823  0.00  0.00     0.182 C 
BRANCH  11  12
ATOM     12  C   UNL d   1      56.583  49.311  50.113  0.00  0.00     0.232 C 
ATOM     13  O   UNL d   1      56.385  49.460  50.900  0.00  0.00    -0.643 OA
ATOM     14  O   UNL d   1      56.058  48.907  49.624  0.00  0.00    -0.643 OA
ENDBRANCH  11  12
ENDBRANCH  10  11
ENDBRANCH   7  10
ENDBRANCH   1   7
BRANCH   4  15
ATOM     15  N   UNL d   1      61.251  49.661  52.170  0.00  0.00    -0.208 NA
ATOM     16  C   UNL d   1      61.469  48.958  52.539  0.00  0.00     0.279 C 
ATOM     17  O   UNL d   1      61.054  48.263  52.384  0.00  0.00    -0.265 OA
ATOM     18  C   UNL d   1      62.109  48.948  53.069  0.00  0.00     0.068 C 
ENDBRANCH   4  15
TORSDOF 5
ENDMDL
MODEL 2
REMARK VINA RESULT:      32.1      1.449      3.990
REMARK  5 active torsions:
REMARK  status: ('A' for Active; 'I' for Inactive)
REMARK    1  A    between atoms: N_2  and  S_1 
REMARK    2  A    between atoms: C_3  and  S_1 
REMARK    3  A    between atoms: C_4  and  N_2 
REMARK    4  A    between atoms: C_5  and  C_4 
REMARK       I    between atoms: C_8  and  N_9 
REMARK    5  A    between atoms: N_9  and  C_14 
ROOT
ATOM      1  C   UNL d   1      59.402  49.575  50.941  0.00  0.00     0.105 A 
ATOM      2  C   UNL d   1      59.252  49.579  50.121  0.00  0.00     0.015 A 
ATOM      3  C   UNL d   1      58.777  49.615  51.474  0.00  0.00     0.015 A 
ATOM      4  C   UNL d   1      57.853  49.663  50.377  0.00  0.00     0.085 A 
ATOM      5  C   UNL d   1      58.001  49.659  51.188  0.00  0.00     0.020 A 
ATOM      6  C   UNL d   1      58.479  49.623  49.842  0.00  0.00     0.020 A 
ENDROOT
BRANCH   1   7
ATOM      7  S   UNL d   1      60.176  49.532  51.218  0.00  0.00     0.285 S 
ATOM      8  O   UNL d   1      60.341  49.696  52.009  0.00  0.00    -0.198 OA
ATOM      9  O   UNL d   1      60.232  49.334  50.418  0.00  0.00    -0.198 OA
BRANCH   7  10
ATOM     10  N   UNL d   1      60.794  49.323  50.707  0.00  0.00    -0.150 NA
BRANCH  10  11
ATOM     11  C   UNL d   1      61.299  48.702  50.896  0.00  0.00     0.182 C 
BRANCH  11  12
ATOM     12  C   UNL d   1      61.420  48.086  50.364  0.00  0.00     0.232 C 
ATOM     13  O   UNL d   1      60.953  47.408  50.416  0.00  0.00    -0.643 OA
ATOM     14  O   UNL d   1      62.002  48.143  49.784  0.00  0.00    -0.643 OA
ENDBRANCH  11  12
ENDBRANCH  10  11
ENDBRANCH   7  10
ENDBRANCH   1   7
BRANCH   4  15
ATOM     15  N   UNL d   1      57.075  49.706  50.099  0.00  0.00    -0.208 NA
ATOM     16  C   UNL d   1      56.830  49.217  49.484  0.00  0.00     0.279 C 
ATOM     17  O   UNL d   1      57.359  48.683  49.144  0.00  0.00    -0.265 OA
ATOM     18  C   UNL d   1      56.049  49.260  49.204  0.00  0.00     0.068 C 
ENDBRANCH   4  15
TORSDOF 5
ENDMDL
