MODEL 1
REMARK VINA RESULT:      -5.0      0.000      0.000
REMARK  3 active torsions:
REMARK  status: ('A' for Active; 'I' for Inactive)
REMARK    1  A    between atoms: N_6  and  C_2 
REMARK    2  A    between atoms: C_8  and  C_5 
REMARK    3  A    between atoms: C_9  and  N_7 
ROOT
ATOM      1  N   UNL d   1      57.448  -0.233  31.075  0.00  0.00    -0.281 N 
ATOM      2  N   UNL d   1      56.576   0.074  32.430  0.00  0.00    -0.301 N 
ATOM      3  C   UNL d   1      57.054  -0.851  31.455  0.00  0.00     0.101 A 
ATOM      4  C   UNL d   1      57.403   0.541  31.376  0.00  0.00     0.101 A 
ATOM      5  C   UNL d   1      56.967   0.681  32.049  0.00  0.00     0.100 A 
ATOM      6  C   UNL d   1      56.622  -0.695  32.127  0.00  0.00     0.100 A 
ENDROOT
BRANCH   1   7
ATOM      7  C   UNL d   1      57.887  -0.389  30.392  0.00  0.00     0.183 A 
ATOM      8  N   UNL d   1      57.959   0.097  29.736  0.00  0.00    -0.183 NA
ATOM      9  C   UNL d   1      58.450  -0.278  29.186  0.00  0.00     0.287 A 
ATOM     10  C   UNL d   1      58.678  -1.004  29.514  0.00  0.00     0.090 A 
ATOM     11  O   UNL d   1      58.667   0.014  28.456  0.00  0.00    -0.265 OA
ATOM     12  S   UNL d   1      58.335  -1.076  30.256  0.00  0.00    -0.045 SA
BRANCH  10  13
ATOM     13  C   UNL d   1      59.171  -1.556  29.149  0.00  0.00     0.011 C 
ATOM     14  C   UNL d   1      58.852  -2.174  28.702  0.00  0.00     0.001 C 
ATOM     15  C   UNL d   1      59.989  -1.493  29.230  0.00  0.00     0.001 C 
ENDBRANCH  10  13
ENDBRANCH   1   7
BRANCH   2  16
ATOM     16  C   UNL d   1      56.135   0.226  33.114  0.00  0.00     0.064 A 
ATOM     17  C   UNL d   1      55.323   0.083  33.114  0.00  0.00     0.018 A 
ATOM     18  C   UNL d   1      54.885   0.237  33.800  0.00  0.00     0.002 A 
ATOM     19  C   UNL d   1      55.255   0.529  34.474  0.00  0.00     0.000 A 
ATOM     20  C   UNL d   1      56.072   0.670  34.465  0.00  0.00     0.002 A 
ATOM     21  C   UNL d   1      54.817   0.682  35.157  0.00  0.00     0.000 C 
ATOM     22  C   UNL d   1      56.513   0.517  33.781  0.00  0.00     0.018 A 
ENDBRANCH   2  16
TORSDOF 3
ENDMDL
MODEL 2
REMARK VINA RESULT:      -3.5      1.892      5.174
REMARK  3 active torsions:
REMARK  status: ('A' for Active; 'I' for Inactive)
REMARK    1  A    between atoms: N_6  and  C_2 
REMARK    2  A    between atoms: C_8  and  C_5 
REMARK    3  A    between atoms: C_9  and  N_7 
ROOT
ATOM      1  N   UNL d   1      56.459   0.046  32.352  0.00  0.00    -0.281 N 
ATOM      2  N   UNL d   1      57.448  -0.240  31.074  0.00  0.00    -0.301 N 
ATOM      3  C   UNL d   1      56.831   0.680  31.974  0.00  0.00     0.101 A 
ATOM      4  C   UNL d   1      56.584  -0.732  32.087  0.00  0.00     0.101 A 
ATOM      5  C   UNL d   1      57.077  -0.862  31.453  0.00  0.00     0.100 A 
ATOM      6  C   UNL d   1      57.321   0.534  31.341  0.00  0.00     0.100 A 
ENDROOT
BRANCH   1   7
ATOM      7  C   UNL d   1      55.961   0.193  32.995  0.00  0.00     0.183 A 
ATOM      8  N   UNL d   1      55.143   0.229  32.981  0.00  0.00    -0.183 NA
ATOM      9  C   UNL d   1      54.875   0.387  33.748  0.00  0.00     0.287 A 
ATOM     10  C   UNL d   1      55.542   0.449  34.234  0.00  0.00     0.090 A 
ATOM     11  O   UNL d   1      54.096   0.468  33.980  0.00  0.00    -0.265 OA
ATOM     12  S   UNL d   1      56.213   0.330  33.776  0.00  0.00    -0.045 SA
BRANCH  10  13
ATOM     13  C   UNL d   1      55.527   0.604  35.045  0.00  0.00     0.011 C 
ATOM     14  C   UNL d   1      54.809   0.682  35.446  0.00  0.00     0.001 C 
ATOM     15  C   UNL d   1      56.236   0.682  35.460  0.00  0.00     0.001 C 
ENDBRANCH  10  13
ENDBRANCH   1   7
BRANCH   2  16
ATOM     16  C   UNL d   1      57.947  -0.382  30.429  0.00  0.00     0.064 A 
ATOM     17  C   UNL d   1      58.044  -1.153  30.154  0.00  0.00     0.018 A 
ATOM     18  C   UNL d   1      58.544  -1.293  29.509  0.00  0.00     0.002 A 
ATOM     19  C   UNL d   1      58.940  -0.670  29.146  0.00  0.00     0.000 A 
ATOM     20  C   UNL d   1      58.836   0.103  29.430  0.00  0.00     0.002 A 
ATOM     21  C   UNL d   1      59.438  -0.810  28.503  0.00  0.00     0.000 C 
ATOM     22  C   UNL d   1      58.337   0.246  30.075  0.00  0.00     0.018 A 
ENDBRANCH   2  16
TORSDOF 3
ENDMDL
