MODEL 1
REMARK VINA RESULT:      16.8      0.000      0.000
REMARK  6 active torsions:
REMARK  status: ('A' for Active; 'I' for Inactive)
REMARK    1  A    between atoms: C_8  and  C_1 
REMARK    2  A    between atoms: C_7  and  C_2 
REMARK    3  A    between atoms: O_11  and  C_7 
REMARK    4  A    between atoms: O_12  and  C_8 
REMARK    5  A    between atoms: C_16  and  O_11 
REMARK    6  A    between atoms: C_15  and  O_12 
ROOT
ATOM      1  C   UNL d   1      46.305 -18.241  43.743  0.00  0.00     0.081 A 
ATOM      2  C   UNL d   1      46.443 -18.896  42.476  0.00  0.00     0.081 A 
ATOM      3  N   UNL d   1      46.504 -19.654  43.685  0.00  0.00    -0.245 NA
ATOM      4  C   UNL d   1      46.529 -19.621  42.860  0.00  0.00     0.086 A 
ATOM      5  C   UNL d   1      46.392 -18.966  44.127  0.00  0.00     0.086 A 
ATOM      6  C   UNL d   1      46.331 -18.210  42.920  0.00  0.00     0.014 A 
ATOM      7  C   UNL d   1      46.369 -19.015  44.955  0.00  0.00     0.021 C 
ATOM      8  C   UNL d   1      46.644 -20.330  42.411  0.00  0.00     0.021 C 
ENDROOT
BRANCH   1   9
ATOM      9  C   UNL d   1      46.192 -17.538  44.173  0.00  0.00     0.302 C 
ATOM     10  O   UNL d   1      45.897 -17.554  44.943  0.00  0.00    -0.259 OA
BRANCH   9  11
ATOM     11  O   UNL d   1      46.379 -16.816  43.821  0.00  0.00    -0.271 OA
BRANCH  11  12
ATOM     12  C   UNL d   1      45.926 -16.146  43.975  0.00  0.00     0.126 C 
ATOM     13  C   UNL d   1      46.298 -15.478  44.065  0.00  0.00     0.029 C 
ENDBRANCH  11  12
ENDBRANCH   9  11
ENDBRANCH   1   9
BRANCH   2  14
ATOM     14  C   UNL d   1      46.470 -18.872  41.638  0.00  0.00     0.302 C 
ATOM     15  O   UNL d   1      46.492 -19.556  41.207  0.00  0.00    -0.259 OA
BRANCH  14  16
ATOM     16  O   UNL d   1      46.474 -18.121  41.248  0.00  0.00    -0.271 OA
BRANCH  16  17
ATOM     17  C   UNL d   1      46.326 -18.071  40.452  0.00  0.00     0.126 C 
ATOM     18  C   UNL d   1      46.620 -17.391  39.944  0.00  0.00     0.029 C 
ENDBRANCH  16  17
ENDBRANCH  14  16
ENDBRANCH   2  14
TORSDOF 6
ENDMDL
MODEL 2
REMARK VINA RESULT:      17.0      2.962      4.853
REMARK  6 active torsions:
REMARK  status: ('A' for Active; 'I' for Inactive)
REMARK    1  A    between atoms: C_8  and  C_1 
REMARK    2  A    between atoms: C_7  and  C_2 
REMARK    3  A    between atoms: O_11  and  C_7 
REMARK    4  A    between atoms: O_12  and  C_8 
REMARK    5  A    between atoms: C_16  and  O_11 
REMARK    6  A    between atoms: C_15  and  O_12 
ROOT
ATOM      1  C   UNL d   1      45.469 -13.374  44.113  0.00  0.00     0.081 A 
ATOM      2  C   UNL d   1      45.494 -14.803  44.223  0.00  0.00     0.081 A 
ATOM      3  N   UNL d   1      46.521 -14.019  44.832  0.00  0.00    -0.245 NA
ATOM      4  C   UNL d   1      46.188 -14.757  44.667  0.00  0.00     0.086 A 
ATOM      5  C   UNL d   1      46.163 -13.328  44.557  0.00  0.00     0.086 A 
ATOM      6  C   UNL d   1      45.138 -14.111  43.949  0.00  0.00     0.014 A 
ATOM      7  C   UNL d   1      46.509 -12.594  44.731  0.00  0.00     0.021 C 
ATOM      8  C   UNL d   1      46.560 -15.462  44.952  0.00  0.00     0.021 C 
ENDROOT
BRANCH   1   9
ATOM      9  C   UNL d   1      45.095 -12.689  43.828  0.00  0.00     0.302 C 
ATOM     10  O   UNL d   1      44.773 -12.133  44.346  0.00  0.00    -0.259 OA
BRANCH   9  11
ATOM     11  O   UNL d   1      45.047 -12.565  43.014  0.00  0.00    -0.271 OA
BRANCH  11  12
ATOM     12  C   UNL d   1      44.461 -12.081  42.699  0.00  0.00     0.126 C 
ATOM     13  C   UNL d   1      44.311 -12.147  41.946  0.00  0.00     0.029 C 
ENDBRANCH  11  12
ENDBRANCH   9  11
ENDBRANCH   1   9
BRANCH   2  14
ATOM     14  C   UNL d   1      45.164 -15.556  44.060  0.00  0.00     0.302 C 
ATOM     15  O   UNL d   1      44.361 -15.656  44.031  0.00  0.00    -0.259 OA
BRANCH  14  16
ATOM     16  O   UNL d   1      45.680 -16.212  43.927  0.00  0.00    -0.271 OA
BRANCH  16  17
ATOM     17  C   UNL d   1      45.423 -16.860  43.513  0.00  0.00     0.126 C 
ATOM     18  C   UNL d   1      45.981 -17.415  43.081  0.00  0.00     0.029 C 
ENDBRANCH  16  17
ENDBRANCH  14  16
ENDBRANCH   2  14
TORSDOF 6
ENDMDL
MODEL 3
REMARK VINA RESULT:      19.3      7.016      7.384
REMARK  6 active torsions:
REMARK  status: ('A' for Active; 'I' for Inactive)
REMARK    1  A    between atoms: C_8  and  C_1 
REMARK    2  A    between atoms: C_7  and  C_2 
REMARK    3  A    between atoms: O_11  and  C_7 
REMARK    4  A    between atoms: O_12  and  C_8 
REMARK    5  A    between atoms: C_16  and  O_11 
REMARK    6  A    between atoms: C_15  and  O_12 
ROOT
ATOM      1  C   UNL d   1      45.359 -15.055  36.859  0.00  0.00     0.081 A 
ATOM      2  C   UNL d   1      44.052 -15.643  36.836  0.00  0.00     0.081 A 
ATOM      3  N   UNL d   1      45.179 -16.383  36.364  0.00  0.00    -0.245 NA
ATOM      4  C   UNL d   1      44.368 -16.333  36.513  0.00  0.00     0.086 A 
ATOM      5  C   UNL d   1      45.675 -15.746  36.536  0.00  0.00     0.086 A 
ATOM      6  C   UNL d   1      44.549 -15.008  37.008  0.00  0.00     0.014 A 
ATOM      7  C   UNL d   1      46.487 -15.810  36.381  0.00  0.00     0.021 C 
ATOM      8  C   UNL d   1      43.863 -16.990  36.335  0.00  0.00     0.021 C 
ENDROOT
BRANCH   1   9
ATOM      9  C   UNL d   1      45.844 -14.405  37.039  0.00  0.00     0.302 C 
ATOM     10  O   UNL d   1      46.537 -14.261  36.616  0.00  0.00    -0.259 OA
BRANCH   9  11
ATOM     11  O   UNL d   1      45.625 -13.895  37.650  0.00  0.00    -0.271 OA
BRANCH  11  12
ATOM     12  C   UNL d   1      46.050 -13.205  37.791  0.00  0.00     0.126 C 
ATOM     13  C   UNL d   1      45.664 -12.601  38.075  0.00  0.00     0.029 C 
ENDBRANCH  11  12
ENDBRANCH   9  11
ENDBRANCH   1   9
BRANCH   2  14
ATOM     14  C   UNL d   1      43.228 -15.602  36.984  0.00  0.00     0.302 C 
ATOM     15  O   UNL d   1      42.945 -15.612  37.742  0.00  0.00    -0.259 OA
BRANCH  14  16
ATOM     16  O   UNL d   1      42.694 -15.548  36.330  0.00  0.00    -0.271 OA
BRANCH  16  17
ATOM     17  C   UNL d   1      41.981 -15.172  36.412  0.00  0.00     0.126 C 
ATOM     18  C   UNL d   1      41.198 -15.611  36.432  0.00  0.00     0.029 C 
ENDBRANCH  16  17
ENDBRANCH  14  16
ENDBRANCH   2  14
TORSDOF 6
ENDMDL
MODEL 4
REMARK VINA RESULT:      19.8      6.929      7.551
REMARK  6 active torsions:
REMARK  status: ('A' for Active; 'I' for Inactive)
REMARK    1  A    between atoms: C_8  and  C_1 
REMARK    2  A    between atoms: C_7  and  C_2 
REMARK    3  A    between atoms: O_11  and  C_7 
REMARK    4  A    between atoms: O_12  and  C_8 
REMARK    5  A    between atoms: C_16  and  O_11 
REMARK    6  A    between atoms: C_15  and  O_12 
ROOT
ATOM      1  C   UNL d   1      44.176 -15.489  36.878  0.00  0.00     0.081 A 
ATOM      2  C   UNL d   1      45.450 -14.835  36.922  0.00  0.00     0.081 A 
ATOM      3  N   UNL d   1      45.339 -16.152  36.380  0.00  0.00    -0.245 NA
ATOM      4  C   UNL d   1      45.802 -15.496  36.575  0.00  0.00     0.086 A 
ATOM      5  C   UNL d   1      44.528 -16.150  36.531  0.00  0.00     0.086 A 
ATOM      6  C   UNL d   1      44.639 -14.835  37.071  0.00  0.00     0.014 A 
ATOM      7  C   UNL d   1      44.076 -16.817  36.330  0.00  0.00     0.021 C 
ATOM      8  C   UNL d   1      46.634 -15.503  36.419  0.00  0.00     0.021 C 
ENDROOT
BRANCH   1   9
ATOM      9  C   UNL d   1      43.360 -15.471  37.036  0.00  0.00     0.302 C 
ATOM     10  O   UNL d   1      43.074 -15.563  37.804  0.00  0.00    -0.259 OA
BRANCH   9  11
ATOM     11  O   UNL d   1      42.831 -15.359  36.413  0.00  0.00    -0.271 OA
BRANCH  11  12
ATOM     12  C   UNL d   1      42.174 -15.847  36.330  0.00  0.00     0.126 C 
ATOM     13  C   UNL d   1      41.479 -15.513  36.336  0.00  0.00     0.029 C 
ENDBRANCH  11  12
ENDBRANCH   9  11
ENDBRANCH   1   9
BRANCH   2  14
ATOM     14  C   UNL d   1      45.927 -14.174  37.116  0.00  0.00     0.302 C 
ATOM     15  O   UNL d   1      46.398 -13.827  36.556  0.00  0.00    -0.259 OA
BRANCH  14  16
ATOM     16  O   UNL d   1      45.911 -13.872  37.906  0.00  0.00    -0.271 OA
BRANCH  16  17
ATOM     17  C   UNL d   1      46.185 -13.126  38.067  0.00  0.00     0.126 C 
ATOM     18  C   UNL d   1      45.812 -12.594  38.687  0.00  0.00     0.029 C 
ENDBRANCH  16  17
ENDBRANCH  14  16
ENDBRANCH   2  14
TORSDOF 6
ENDMDL
