MODEL 1
REMARK VINA RESULT:      -5.8      0.000      0.000
REMARK  5 active torsions:
REMARK  status: ('A' for Active; 'I' for Inactive)
REMARK    1  A    between atoms: N_2  and  C_1 
REMARK    2  A    between atoms: C_4  and  C_8 
REMARK    3  A    between atoms: N_15  and  C_5 
REMARK    4  A    between atoms: C_19  and  N_15 
REMARK    5  A    between atoms: C_20  and  N_15 
ROOT
ATOM      1  C   UNL d   1     -39.327  14.847  19.360  0.00  0.00     0.143 A 
ATOM      2  C   UNL d   1     -40.145  14.797  19.426  0.00  0.00     0.086 A 
ATOM      3  C   UNL d   1     -38.953  14.651  18.646  0.00  0.00     0.027 A 
ATOM      4  C   UNL d   1     -39.410  14.403  17.995  0.00  0.00     0.021 A 
ATOM      5  C   UNL d   1     -40.597  14.552  18.782  0.00  0.00     0.019 A 
ATOM      6  C   UNL d   1     -40.235  14.354  18.065  0.00  0.00     0.003 A 
ENDROOT
BRANCH   4   7
ATOM      7  C   UNL d   1     -39.044  14.208  17.286  0.00  0.00     0.103 A 
ATOM      8  N   UNL d   1     -38.661  13.480  17.205  0.00  0.00    -0.145 NA
ATOM      9  N   UNL d   1     -38.294  13.284  16.495  0.00  0.00    -0.106 NA
ATOM     10  C   UNL d   1     -38.309  13.813  15.863  0.00  0.00     0.297 A 
ATOM     11  C   UNL d   1     -38.692  14.541  15.944  0.00  0.00     0.066 A 
ATOM     12  O   UNL d   1     -37.943  13.618  15.154  0.00  0.00    -0.264 OA
ATOM     13  C   UNL d   1     -39.062  14.742  16.658  0.00  0.00     0.024 A 
ATOM     14  C   UNL d   1     -39.443  15.467  16.737  0.00  0.00     0.002 C 
ENDBRANCH   4   7
BRANCH   1  15
ATOM     15  N   UNL d   1     -38.866  15.092  20.003  0.00  0.00    -0.112 N 
ATOM     16  O   UNL d   1     -38.556  14.522  20.520  0.00  0.00    -0.532 OA
ATOM     17  O   UNL d   1     -38.717  15.891  20.131  0.00  0.00    -0.532 OA
ENDBRANCH   1  15
BRANCH   2  18
ATOM     18  N   UNL d   1     -40.512  14.993  20.136  0.00  0.00    -0.302 N 
BRANCH  18  19
ATOM     19  C   UNL d   1     -40.766  15.763  20.266  0.00  0.00     0.080 C 
ATOM     20  C   UNL d   1     -41.421  15.906  20.749  0.00  0.00     0.021 C 
ENDBRANCH  18  19
BRANCH  18  21
ATOM     21  C   UNL d   1     -40.624  14.417  20.715  0.00  0.00     0.080 C 
ATOM     22  C   UNL d   1     -41.369  14.300  21.040  0.00  0.00     0.021 C 
ENDBRANCH  18  21
ENDBRANCH   2  18
TORSDOF 5
ENDMDL
MODEL 2
REMARK VINA RESULT:      -5.4      1.967      2.654
REMARK  5 active torsions:
REMARK  status: ('A' for Active; 'I' for Inactive)
REMARK    1  A    between atoms: N_2  and  C_1 
REMARK    2  A    between atoms: C_4  and  C_8 
REMARK    3  A    between atoms: N_15  and  C_5 
REMARK    4  A    between atoms: C_19  and  N_15 
REMARK    5  A    between atoms: C_20  and  N_15 
ROOT
ATOM      1  C   UNL d   1     -40.164  15.020  20.403  0.00  0.00     0.143 A 
ATOM      2  C   UNL d   1     -39.353  15.143  20.469  0.00  0.00     0.086 A 
ATOM      3  C   UNL d   1     -40.532  15.060  19.661  0.00  0.00     0.027 A 
ATOM      4  C   UNL d   1     -40.079  15.225  18.982  0.00  0.00     0.021 A 
ATOM      5  C   UNL d   1     -38.905  15.306  19.798  0.00  0.00     0.019 A 
ATOM      6  C   UNL d   1     -39.262  15.349  19.053  0.00  0.00     0.003 A 
ENDROOT
BRANCH   4   7
ATOM      7  C   UNL d   1     -40.440  15.266  18.245  0.00  0.00     0.103 A 
ATOM      8  N   UNL d   1     -40.966  15.880  18.077  0.00  0.00    -0.145 NA
ATOM      9  N   UNL d   1     -41.328  15.921  17.339  0.00  0.00    -0.106 NA
ATOM     10  C   UNL d   1     -41.166  15.350  16.767  0.00  0.00     0.297 A 
ATOM     11  C   UNL d   1     -40.639  14.736  16.936  0.00  0.00     0.066 A 
ATOM     12  O   UNL d   1     -41.527  15.391  16.030  0.00  0.00    -0.264 OA
ATOM     13  C   UNL d   1     -40.273  14.691  17.679  0.00  0.00     0.024 A 
ATOM     14  C   UNL d   1     -39.749  14.079  17.845  0.00  0.00     0.002 C 
ENDBRANCH   4   7
BRANCH   1  15
ATOM     15  N   UNL d   1     -40.622  14.855  21.073  0.00  0.00    -0.112 N 
ATOM     16  O   UNL d   1     -40.991  15.479  21.475  0.00  0.00    -0.532 OA
ATOM     17  O   UNL d   1     -40.711  14.081  21.340  0.00  0.00    -0.532 OA
ENDBRANCH   1  15
BRANCH   2  18
ATOM     18  N   UNL d   1     -38.991  15.102  21.207  0.00  0.00    -0.302 N 
BRANCH  18  19
ATOM     19  C   UNL d   1     -38.720  14.380  21.490  0.00  0.00     0.080 C 
ATOM     20  C   UNL d   1     -37.989  14.335  21.873  0.00  0.00     0.021 C 
ENDBRANCH  18  19
BRANCH  18  21
ATOM     21  C   UNL d   1     -38.901  15.784  21.661  0.00  0.00     0.080 C 
ATOM     22  C   UNL d   1     -38.204  15.913  22.076  0.00  0.00     0.021 C 
ENDBRANCH  18  21
ENDBRANCH   2  18
TORSDOF 5
ENDMDL
MODEL 3
REMARK VINA RESULT:      -4.7      1.700      4.106
REMARK  5 active torsions:
REMARK  status: ('A' for Active; 'I' for Inactive)
REMARK    1  A    between atoms: N_2  and  C_1 
REMARK    2  A    between atoms: C_4  and  C_8 
REMARK    3  A    between atoms: N_15  and  C_5 
REMARK    4  A    between atoms: C_19  and  N_15 
REMARK    5  A    between atoms: C_20  and  N_15 
ROOT
ATOM      1  C   UNL d   1     -39.941  14.525  18.604  0.00  0.00     0.143 A 
ATOM      2  C   UNL d   1     -39.886  15.255  18.229  0.00  0.00     0.086 A 
ATOM      3  C   UNL d   1     -39.769  14.457  19.413  0.00  0.00     0.027 A 
ATOM      4  C   UNL d   1     -39.540  15.132  19.844  0.00  0.00     0.021 A 
ATOM      5  C   UNL d   1     -39.660  15.922  18.656  0.00  0.00     0.019 A 
ATOM      6  C   UNL d   1     -39.486  15.867  19.463  0.00  0.00     0.003 A 
ENDROOT
BRANCH   4   7
ATOM      7  C   UNL d   1     -39.368  15.070  20.646  0.00  0.00     0.103 A 
ATOM      8  N   UNL d   1     -38.649  14.746  20.890  0.00  0.00    -0.145 NA
ATOM      9  N   UNL d   1     -38.477  14.684  21.692  0.00  0.00    -0.106 NA
ATOM     10  C   UNL d   1     -39.022  14.944  22.252  0.00  0.00     0.297 A 
ATOM     11  C   UNL d   1     -39.741  15.268  22.008  0.00  0.00     0.066 A 
ATOM     12  O   UNL d   1     -38.850  14.882  23.054  0.00  0.00    -0.264 OA
ATOM     13  C   UNL d   1     -39.918  15.332  21.200  0.00  0.00     0.024 A 
ATOM     14  C   UNL d   1     -40.636  15.655  20.959  0.00  0.00     0.002 C 
ENDBRANCH   4   7
BRANCH   1  15
ATOM     15  N   UNL d   1     -40.167  13.849  18.181  0.00  0.00    -0.112 N 
ATOM     16  O   UNL d   1     -39.582  13.355  17.864  0.00  0.00    -0.532 OA
ATOM     17  O   UNL d   1     -40.963  13.669  18.076  0.00  0.00    -0.532 OA
ENDBRANCH   1  15
BRANCH   2  18
ATOM     18  N   UNL d   1     -40.057  15.317  17.427  0.00  0.00    -0.302 N 
BRANCH  18  19
ATOM     19  C   UNL d   1     -39.454  15.252  16.873  0.00  0.00     0.080 C 
ATOM     20  C   UNL d   1     -39.336  15.852  16.318  0.00  0.00     0.021 C 
ENDBRANCH  18  19
BRANCH  18  21
ATOM     21  C   UNL d   1     -40.833  15.446  17.179  0.00  0.00     0.080 C 
ATOM     22  C   UNL d   1     -40.984  15.922  16.527  0.00  0.00     0.021 C 
ENDBRANCH  18  21
ENDBRANCH   2  18
TORSDOF 5
ENDMDL
