MODEL 1
REMARK VINA RESULT:      -7.1      0.000      0.000
REMARK  6 active torsions:
REMARK  status: ('A' for Active; 'I' for Inactive)
REMARK    1  A    between atoms: C_9  and  N_1 
REMARK    2  A    between atoms: C_3  and  C_2 
REMARK    3  A    between atoms: C_12  and  C_9 
REMARK    4  A    between atoms: C_15  and  C_9 
REMARK    5  A    between atoms: C_20  and  C_15 
REMARK    6  A    between atoms: C_17  and  C_20 
ROOT
ATOM      1  N   UNL d   1     -46.965  13.021  22.594  0.00  0.00    -0.254 N 
ATOM      2  C   UNL d   1     -48.222  12.894  22.423  0.00  0.00     0.093 A 
ATOM      3  C   UNL d   1     -47.158  12.442  23.052  0.00  0.00     0.153 A 
ATOM      4  C   UNL d   1     -47.592  13.326  22.189  0.00  0.00     0.272 A 
ATOM      5  S   UNL d   1     -47.952  12.350  22.954  0.00  0.00    -0.053 SA
ATOM      6  S   UNL d   1     -46.625  12.024  23.533  0.00  0.00    -0.052 SA
ATOM      7  O   UNL d   1     -47.603  13.939  21.657  0.00  0.00    -0.266 OA
ENDROOT
BRANCH   2   8
ATOM      8  C   UNL d   1     -48.998  12.992  22.164  0.00  0.00     0.070 A 
ATOM      9  C   UNL d   1     -49.257  12.484  21.587  0.00  0.00     0.280 A 
ATOM     10  N   UNL d   1     -50.050  12.663  21.395  0.00  0.00    -0.208 NA
ATOM     11  O   UNL d   1     -48.809  11.880  21.240  0.00  0.00    -0.265 OA
ATOM     12  C   UNL d   1     -50.276  13.297  21.869  0.00  0.00     0.085 A 
ATOM     13  C   UNL d   1     -49.635  13.509  22.348  0.00  0.00     0.023 A 
ATOM     14  C   UNL d   1     -50.994  13.721  21.931  0.00  0.00     0.019 A 
ATOM     15  C   UNL d   1     -49.697  14.107  22.862  0.00  0.00     0.002 A 
ATOM     16  C   UNL d   1     -50.376  14.520  22.933  0.00  0.00     0.000 A 
ATOM     17  C   UNL d   1     -51.064  14.338  22.460  0.00  0.00     0.002 A 
ENDBRANCH   2   8
BRANCH   1  18
ATOM     18  C   UNL d   1     -46.141  13.281  22.553  0.00  0.00     0.133 C 
BRANCH  18  19
ATOM     19  C   UNL d   1     -45.971  14.037  22.866  0.00  0.00     0.228 C 
ATOM     20  O   UNL d   1     -45.934  14.687  22.407  0.00  0.00    -0.643 OA
ATOM     21  O   UNL d   1     -45.839  14.075  23.698  0.00  0.00    -0.643 OA
ENDBRANCH  18  19
BRANCH  18  22
ATOM     22  C   UNL d   1     -45.574  12.813  22.231  0.00  0.00     0.030 C 
BRANCH  22  23
ATOM     23  C   UNL d   1     -44.893  13.190  21.959  0.00  0.00     0.072 C 
BRANCH  23  24
ATOM     24  C   UNL d   1     -44.331  12.679  21.561  0.00  0.00     0.211 C 
ATOM     25  O   UNL d   1     -44.370  12.553  20.754  0.00  0.00    -0.644 OA
ATOM     26  O   UNL d   1     -43.765  12.333  22.029  0.00  0.00    -0.644 OA
ENDBRANCH  23  24
ENDBRANCH  22  23
ENDBRANCH  18  22
ENDBRANCH   1  18
TORSDOF 6
ENDMDL
MODEL 2
REMARK VINA RESULT:      -6.6      1.348      1.666
REMARK  6 active torsions:
REMARK  status: ('A' for Active; 'I' for Inactive)
REMARK    1  A    between atoms: C_9  and  N_1 
REMARK    2  A    between atoms: C_3  and  C_2 
REMARK    3  A    between atoms: C_12  and  C_9 
REMARK    4  A    between atoms: C_15  and  C_9 
REMARK    5  A    between atoms: C_20  and  C_15 
REMARK    6  A    between atoms: C_17  and  C_20 
ROOT
ATOM      1  N   UNL d   1     -47.466  13.050  22.432  0.00  0.00    -0.254 N 
ATOM      2  C   UNL d   1     -48.700  13.367  22.470  0.00  0.00     0.093 A 
ATOM      3  C   UNL d   1     -47.719  12.900  21.728  0.00  0.00     0.153 A 
ATOM      4  C   UNL d   1     -48.040  13.339  22.918  0.00  0.00     0.272 A 
ATOM      5  S   UNL d   1     -48.501  13.095  21.736  0.00  0.00    -0.053 SA
ATOM      6  S   UNL d   1     -47.250  12.598  21.112  0.00  0.00    -0.052 SA
ATOM      7  O   UNL d   1     -47.982  13.560  23.697  0.00  0.00    -0.266 OA
ENDROOT
BRANCH   2   8
ATOM      8  C   UNL d   1     -49.443  13.625  22.717  0.00  0.00     0.070 A 
ATOM      9  C   UNL d   1     -50.022  13.060  22.785  0.00  0.00     0.280 A 
ATOM     10  N   UNL d   1     -50.731  13.420  23.040  0.00  0.00    -0.208 NA
ATOM     11  O   UNL d   1     -49.928  12.254  22.626  0.00  0.00    -0.265 OA
ATOM     12  C   UNL d   1     -50.576  14.223  23.129  0.00  0.00     0.085 A 
ATOM     13  C   UNL d   1     -49.785  14.362  22.933  0.00  0.00     0.023 A 
ATOM     14  C   UNL d   1     -51.060  14.863  23.368  0.00  0.00     0.019 A 
ATOM     15  C   UNL d   1     -49.483  15.093  22.969  0.00  0.00     0.002 A 
ATOM     16  C   UNL d   1     -49.932  15.713  23.195  0.00  0.00     0.000 A 
ATOM     17  C   UNL d   1     -50.755  15.618  23.407  0.00  0.00     0.002 A 
ENDBRANCH   2   8
BRANCH   1  18
ATOM     18  C   UNL d   1     -46.637  12.905  22.630  0.00  0.00     0.133 C 
BRANCH  18  19
ATOM     19  C   UNL d   1     -46.135  13.573  22.651  0.00  0.00     0.228 C 
ATOM     20  O   UNL d   1     -45.767  13.849  22.001  0.00  0.00    -0.643 OA
ATOM     21  O   UNL d   1     -46.037  13.941  23.404  0.00  0.00    -0.643 OA
ENDBRANCH  18  19
BRANCH  18  22
ATOM     22  C   UNL d   1     -46.371  12.164  22.786  0.00  0.00     0.030 C 
BRANCH  22  23
ATOM     23  C   UNL d   1     -45.735  12.099  23.307  0.00  0.00     0.072 C 
BRANCH  23  24
ATOM     24  C   UNL d   1     -45.451  11.301  23.434  0.00  0.00     0.211 C 
ATOM     25  O   UNL d   1     -44.670  11.103  23.295  0.00  0.00    -0.644 OA
ATOM     26  O   UNL d   1     -45.997  10.761  23.697  0.00  0.00    -0.644 OA
ENDBRANCH  23  24
ENDBRANCH  22  23
ENDBRANCH  18  22
ENDBRANCH   1  18
TORSDOF 6
ENDMDL
MODEL 3
REMARK VINA RESULT:      -6.3      1.691      4.560
REMARK  6 active torsions:
REMARK  status: ('A' for Active; 'I' for Inactive)
REMARK    1  A    between atoms: C_9  and  N_1 
REMARK    2  A    between atoms: C_3  and  C_2 
REMARK    3  A    between atoms: C_12  and  C_9 
REMARK    4  A    between atoms: C_15  and  C_9 
REMARK    5  A    between atoms: C_20  and  C_15 
REMARK    6  A    between atoms: C_17  and  C_20 
ROOT
ATOM      1  N   UNL d   1     -48.080  13.307  22.433  0.00  0.00    -0.254 N 
ATOM      2  C   UNL d   1     -46.844  13.069  22.637  0.00  0.00     0.093 A 
ATOM      3  C   UNL d   1     -47.819  13.944  22.762  0.00  0.00     0.153 A 
ATOM      4  C   UNL d   1     -47.510  12.745  22.338  0.00  0.00     0.272 A 
ATOM      5  S   UNL d   1     -47.037  13.808  22.898  0.00  0.00    -0.053 SA
ATOM      6  S   UNL d   1     -48.283  14.614  22.926  0.00  0.00    -0.052 SA
ATOM      7  O   UNL d   1     -47.577  12.004  22.014  0.00  0.00    -0.266 OA
ENDROOT
BRANCH   2   8
ATOM      8  C   UNL d   1     -46.104  12.709  22.670  0.00  0.00     0.070 A 
ATOM      9  C   UNL d   1     -46.018  12.097  23.196  0.00  0.00     0.280 A 
ATOM     10  N   UNL d   1     -45.238  11.802  23.153  0.00  0.00    -0.208 NA
ATOM     11  O   UNL d   1     -46.609  11.808  23.698  0.00  0.00    -0.265 OA
ATOM     12  C   UNL d   1     -44.842  12.247  22.586  0.00  0.00     0.085 A 
ATOM     13  C   UNL d   1     -45.365  12.811  22.281  0.00  0.00     0.023 A 
ATOM     14  C   UNL d   1     -44.057  12.217  22.299  0.00  0.00     0.019 A 
ATOM     15  C   UNL d   1     -45.130  13.318  21.721  0.00  0.00     0.002 A 
ATOM     16  C   UNL d   1     -44.384  13.301  21.437  0.00  0.00     0.000 A 
ATOM     17  C   UNL d   1     -43.808  12.737  21.723  0.00  0.00     0.002 A 
ENDBRANCH   2   8
BRANCH   1  18
ATOM     18  C   UNL d   1     -48.912  13.251  22.205  0.00  0.00     0.133 C 
BRANCH  18  19
ATOM     19  C   UNL d   1     -49.092  13.403  21.403  0.00  0.00     0.228 C 
ATOM     20  O   UNL d   1     -48.883  12.904  20.818  0.00  0.00    -0.643 OA
ATOM     21  O   UNL d   1     -49.510  14.119  21.244  0.00  0.00    -0.643 OA
ENDBRANCH  18  19
BRANCH  18  22
ATOM     22  C   UNL d   1     -49.478  13.062  22.742  0.00  0.00     0.030 C 
BRANCH  22  23
ATOM     23  C   UNL d   1     -50.084  12.566  22.484  0.00  0.00     0.072 C 
BRANCH  23  24
ATOM     24  C   UNL d   1     -50.571  12.236  23.107  0.00  0.00     0.211 C 
ATOM     25  O   UNL d   1     -51.064  12.710  23.555  0.00  0.00    -0.644 OA
ATOM     26  O   UNL d   1     -50.513  11.435  23.224  0.00  0.00    -0.644 OA
ENDBRANCH  23  24
ENDBRANCH  22  23
ENDBRANCH  18  22
ENDBRANCH   1  18
TORSDOF 6
ENDMDL
MODEL 4
REMARK VINA RESULT:      -6.2      8.767      9.679
REMARK  6 active torsions:
REMARK  status: ('A' for Active; 'I' for Inactive)
REMARK    1  A    between atoms: C_9  and  N_1 
REMARK    2  A    between atoms: C_3  and  C_2 
REMARK    3  A    between atoms: C_12  and  C_9 
REMARK    4  A    between atoms: C_15  and  C_9 
REMARK    5  A    between atoms: C_20  and  C_15 
REMARK    6  A    between atoms: C_17  and  C_20 
ROOT
ATOM      1  N   UNL d   1     -39.156  14.836  18.758  0.00  0.00    -0.254 N 
ATOM      2  C   UNL d   1     -38.951  14.853  20.016  0.00  0.00     0.093 A 
ATOM      3  C   UNL d   1     -38.530  15.265  18.840  0.00  0.00     0.153 A 
ATOM      4  C   UNL d   1     -39.445  14.563  19.460  0.00  0.00     0.272 A 
ATOM      5  S   UNL d   1     -38.388  15.285  19.632  0.00  0.00    -0.053 SA
ATOM      6  S   UNL d   1     -38.116  15.618  18.212  0.00  0.00    -0.052 SA
ATOM      7  O   UNL d   1     -40.095  14.095  19.594  0.00  0.00    -0.266 OA
ENDROOT
BRANCH   2   8
ATOM      8  C   UNL d   1     -39.012  14.728  20.829  0.00  0.00     0.070 A 
ATOM      9  C   UNL d   1     -39.453  15.265  21.248  0.00  0.00     0.280 A 
ATOM     10  N   UNL d   1     -39.453  15.053  22.056  0.00  0.00    -0.208 NA
ATOM     11  O   UNL d   1     -39.843  15.922  20.929  0.00  0.00    -0.265 OA
ATOM     12  C   UNL d   1     -39.000  14.370  22.126  0.00  0.00     0.085 A 
ATOM     13  C   UNL d   1     -38.722  14.159  21.376  0.00  0.00     0.023 A 
ATOM     14  C   UNL d   1     -38.797  13.899  22.787  0.00  0.00     0.019 A 
ATOM     15  C   UNL d   1     -38.268  13.518  21.279  0.00  0.00     0.002 A 
ATOM     16  C   UNL d   1     -38.066  13.060  21.901  0.00  0.00     0.000 A 
ATOM     17  C   UNL d   1     -38.330  13.237  22.694  0.00  0.00     0.002 A 
ENDBRANCH   2   8
BRANCH   1  18
ATOM     18  C   UNL d   1     -39.478  14.690  17.969  0.00  0.00     0.133 C 
BRANCH  18  19
ATOM     19  C   UNL d   1     -39.323  13.941  17.633  0.00  0.00     0.228 C 
ATOM     20  O   UNL d   1     -39.749  13.295  17.820  0.00  0.00    -0.643 OA
ATOM     21  O   UNL d   1     -38.685  13.905  17.082  0.00  0.00    -0.643 OA
ENDBRANCH  18  19
BRANCH  18  22
ATOM     22  C   UNL d   1     -39.903  15.252  17.584  0.00  0.00     0.030 C 
BRANCH  22  23
ATOM     23  C   UNL d   1     -40.584  14.999  17.193  0.00  0.00     0.072 C 
BRANCH  23  24
ATOM     24  C   UNL d   1     -41.076  15.628  16.881  0.00  0.00     0.211 C 
ATOM     25  O   UNL d   1     -41.710  15.920  17.308  0.00  0.00    -0.644 OA
ATOM     26  O   UNL d   1     -40.878  15.910  16.147  0.00  0.00    -0.644 OA
ENDBRANCH  23  24
ENDBRANCH  22  23
ENDBRANCH  18  22
ENDBRANCH   1  18
TORSDOF 6
ENDMDL
MODEL 5
REMARK VINA RESULT:      -5.7      8.426      9.778
REMARK  6 active torsions:
REMARK  status: ('A' for Active; 'I' for Inactive)
REMARK    1  A    between atoms: C_9  and  N_1 
REMARK    2  A    between atoms: C_3  and  C_2 
REMARK    3  A    between atoms: C_12  and  C_9 
REMARK    4  A    between atoms: C_15  and  C_9 
REMARK    5  A    between atoms: C_20  and  C_15 
REMARK    6  A    between atoms: C_17  and  C_20 
ROOT
ATOM      1  N   UNL d   1     -39.011  14.954  20.179  0.00  0.00    -0.254 N 
ATOM      2  C   UNL d   1     -38.906  14.980  18.909  0.00  0.00     0.093 A 
ATOM      3  C   UNL d   1     -38.479  15.486  20.047  0.00  0.00     0.153 A 
ATOM      4  C   UNL d   1     -39.298  14.620  19.505  0.00  0.00     0.272 A 
ATOM      5  S   UNL d   1     -38.402  15.513  19.245  0.00  0.00    -0.053 SA
ATOM      6  S   UNL d   1     -38.089  15.920  20.637  0.00  0.00    -0.052 SA
ATOM      7  O   UNL d   1     -39.863  14.042  19.425  0.00  0.00    -0.266 OA
ENDROOT
BRANCH   2   8
ATOM      8  C   UNL d   1     -39.004  14.829  18.105  0.00  0.00     0.070 A 
ATOM      9  C   UNL d   1     -39.528  15.304  17.706  0.00  0.00     0.280 A 
ATOM     10  N   UNL d   1     -39.556  15.073  16.903  0.00  0.00    -0.208 NA
ATOM     11  O   UNL d   1     -39.967  15.922  18.038  0.00  0.00    -0.265 OA
ATOM     12  C   UNL d   1     -39.036  14.442  16.816  0.00  0.00     0.085 A 
ATOM     13  C   UNL d   1     -38.689  14.282  17.550  0.00  0.00     0.023 A 
ATOM     14  C   UNL d   1     -38.825  13.978  16.152  0.00  0.00     0.019 A 
ATOM     15  C   UNL d   1     -38.162  13.697  17.628  0.00  0.00     0.002 A 
ATOM     16  C   UNL d   1     -37.951  13.247  17.003  0.00  0.00     0.000 A 
ATOM     17  C   UNL d   1     -38.282  13.375  16.226  0.00  0.00     0.002 A 
ENDBRANCH   2   8
BRANCH   1  18
ATOM     18  C   UNL d   1     -39.242  14.772  20.992  0.00  0.00     0.133 C 
BRANCH  18  19
ATOM     19  C   UNL d   1     -39.983  15.063  21.246  0.00  0.00     0.228 C 
ATOM     20  O   UNL d   1     -40.658  14.651  21.147  0.00  0.00    -0.643 OA
ATOM     21  O   UNL d   1     -39.979  15.821  21.615  0.00  0.00    -0.643 OA
ENDBRANCH  18  19
BRANCH  18  22
ATOM     22  C   UNL d   1     -38.763  14.343  21.474  0.00  0.00     0.030 C 
BRANCH  22  23
ATOM     23  C   UNL d   1     -39.126  13.779  21.953  0.00  0.00     0.072 C 
BRANCH  23  24
ATOM     24  C   UNL d   1     -38.591  13.311  22.431  0.00  0.00     0.211 C 
ATOM     25  O   UNL d   1     -38.198  12.666  22.118  0.00  0.00    -0.644 OA
ATOM     26  O   UNL d   1     -38.499  13.545  23.202  0.00  0.00    -0.644 OA
ENDBRANCH  23  24
ENDBRANCH  22  23
ENDBRANCH  18  22
ENDBRANCH   1  18
TORSDOF 6
ENDMDL
MODEL 6
REMARK VINA RESULT:      -5.5      1.759      4.446
REMARK  6 active torsions:
REMARK  status: ('A' for Active; 'I' for Inactive)
REMARK    1  A    between atoms: C_9  and  N_1 
REMARK    2  A    between atoms: C_3  and  C_2 
REMARK    3  A    between atoms: C_12  and  C_9 
REMARK    4  A    between atoms: C_15  and  C_9 
REMARK    5  A    between atoms: C_20  and  C_15 
REMARK    6  A    between atoms: C_17  and  C_20 
ROOT
ATOM      1  N   UNL d   1     -48.039  13.876  22.355  0.00  0.00    -0.254 N 
ATOM      2  C   UNL d   1     -47.118  12.999  22.443  0.00  0.00     0.093 A 
ATOM      3  C   UNL d   1     -48.237  13.344  21.845  0.00  0.00     0.153 A 
ATOM      4  C   UNL d   1     -47.355  13.700  22.744  0.00  0.00     0.272 A 
ATOM      5  S   UNL d   1     -47.662  12.781  21.890  0.00  0.00    -0.053 SA
ATOM      6  S   UNL d   1     -48.915  13.380  21.365  0.00  0.00    -0.052 SA
ATOM      7  O   UNL d   1     -46.974  14.128  23.319  0.00  0.00    -0.266 OA
ENDROOT
BRANCH   2   8
ATOM      8  C   UNL d   1     -46.441  12.583  22.664  0.00  0.00     0.070 A 
ATOM      9  C   UNL d   1     -46.519  12.059  23.278  0.00  0.00     0.280 A 
ATOM     10  N   UNL d   1     -45.783  11.690  23.423  0.00  0.00    -0.208 NA
ATOM     11  O   UNL d   1     -47.217  11.908  23.697  0.00  0.00    -0.265 OA
ATOM     12  C   UNL d   1     -45.247  12.001  22.883  0.00  0.00     0.085 A 
ATOM     13  C   UNL d   1     -45.640  12.553  22.408  0.00  0.00     0.023 A 
ATOM     14  C   UNL d   1     -44.433  11.854  22.754  0.00  0.00     0.019 A 
ATOM     15  C   UNL d   1     -45.255  12.941  21.836  0.00  0.00     0.002 A 
ATOM     16  C   UNL d   1     -44.479  12.811  21.702  0.00  0.00     0.000 A 
ATOM     17  C   UNL d   1     -44.031  12.250  22.166  0.00  0.00     0.002 A 
ENDBRANCH   2   8
BRANCH   1  18
ATOM     18  C   UNL d   1     -48.535  14.575  22.461  0.00  0.00     0.133 C 
BRANCH  18  19
ATOM     19  C   UNL d   1     -48.246  15.292  22.144  0.00  0.00     0.228 C 
ATOM     20  O   UNL d   1     -48.494  15.578  21.443  0.00  0.00    -0.643 OA
ATOM     21  O   UNL d   1     -47.673  15.701  22.609  0.00  0.00    -0.643 OA
ENDBRANCH  18  19
BRANCH  18  22
ATOM     22  C   UNL d   1     -49.239  14.531  22.847  0.00  0.00     0.030 C 
BRANCH  22  23
ATOM     23  C   UNL d   1     -49.522  15.228  23.184  0.00  0.00     0.072 C 
BRANCH  23  24
ATOM     24  C   UNL d   1     -50.330  15.190  23.466  0.00  0.00     0.211 C 
ATOM     25  O   UNL d   1     -50.798  15.860  23.498  0.00  0.00    -0.644 OA
ATOM     26  O   UNL d   1     -50.598  14.461  23.697  0.00  0.00    -0.644 OA
ENDBRANCH  23  24
ENDBRANCH  22  23
ENDBRANCH  18  22
ENDBRANCH   1  18
TORSDOF 6
ENDMDL
MODEL 7
REMARK VINA RESULT:      -5.2      6.532      9.331
REMARK  6 active torsions:
REMARK  status: ('A' for Active; 'I' for Inactive)
REMARK    1  A    between atoms: C_9  and  N_1 
REMARK    2  A    between atoms: C_3  and  C_2 
REMARK    3  A    between atoms: C_12  and  C_9 
REMARK    4  A    between atoms: C_15  and  C_9 
REMARK    5  A    between atoms: C_20  and  C_15 
REMARK    6  A    between atoms: C_17  and  C_20 
ROOT
ATOM      1  N   UNL d   1     -39.944  14.423  19.765  0.00  0.00    -0.254 N 
ATOM      2  C   UNL d   1     -39.259  14.270  18.702  0.00  0.00     0.093 A 
ATOM      3  C   UNL d   1     -39.237  14.286  20.017  0.00  0.00     0.153 A 
ATOM      4  C   UNL d   1     -39.999  14.421  18.961  0.00  0.00     0.272 A 
ATOM      5  S   UNL d   1     -38.791  14.186  19.353  0.00  0.00    -0.053 SA
ATOM      6  S   UNL d   1     -39.019  14.254  20.818  0.00  0.00    -0.052 SA
ATOM      7  O   UNL d   1     -40.653  14.545  18.496  0.00  0.00    -0.266 OA
ENDROOT
BRANCH   2   8
ATOM      8  C   UNL d   1     -39.026  14.211  17.913  0.00  0.00     0.070 A 
ATOM      9  C   UNL d   1     -39.012  13.466  17.592  0.00  0.00     0.280 A 
ATOM     10  N   UNL d   1     -38.765  13.512  16.795  0.00  0.00    -0.208 NA
ATOM     11  O   UNL d   1     -39.211  12.767  17.987  0.00  0.00    -0.265 OA
ATOM     12  C   UNL d   1     -38.625  14.306  16.631  0.00  0.00     0.085 A 
ATOM     13  C   UNL d   1     -38.783  14.748  17.313  0.00  0.00     0.023 A 
ATOM     14  C   UNL d   1     -38.370  14.699  15.938  0.00  0.00     0.019 A 
ATOM     15  C   UNL d   1     -38.695  15.534  17.314  0.00  0.00     0.002 A 
ATOM     16  C   UNL d   1     -38.452  15.922  16.660  0.00  0.00     0.000 A 
ATOM     17  C   UNL d   1     -38.277  15.508  15.932  0.00  0.00     0.002 A 
ENDBRANCH   2   8
BRANCH   1  18
ATOM     18  C   UNL d   1     -40.583  14.559  20.332  0.00  0.00     0.133 C 
BRANCH  18  19
ATOM     19  C   UNL d   1     -40.773  15.356  20.498  0.00  0.00     0.228 C 
ATOM     20  O   UNL d   1     -41.199  15.805  19.997  0.00  0.00    -0.643 OA
ATOM     21  O   UNL d   1     -40.487  15.662  21.230  0.00  0.00    -0.643 OA
ENDBRANCH  18  19
BRANCH  18  22
ATOM     22  C   UNL d   1     -40.970  13.946  20.677  0.00  0.00     0.030 C 
BRANCH  22  23
ATOM     23  C   UNL d   1     -41.785  14.025  20.767  0.00  0.00     0.072 C 
BRANCH  23  24
ATOM     24  C   UNL d   1     -42.186  13.326  21.060  0.00  0.00     0.211 C 
ATOM     25  O   UNL d   1     -42.088  13.075  21.832  0.00  0.00    -0.644 OA
ATOM     26  O   UNL d   1     -42.662  12.935  20.532  0.00  0.00    -0.644 OA
ENDBRANCH  23  24
ENDBRANCH  22  23
ENDBRANCH  18  22
ENDBRANCH   1  18
TORSDOF 6
ENDMDL
MODEL 8
REMARK VINA RESULT:      -4.5      8.469      9.684
REMARK  6 active torsions:
REMARK  status: ('A' for Active; 'I' for Inactive)
REMARK    1  A    between atoms: C_9  and  N_1 
REMARK    2  A    between atoms: C_3  and  C_2 
REMARK    3  A    between atoms: C_12  and  C_9 
REMARK    4  A    between atoms: C_15  and  C_9 
REMARK    5  A    between atoms: C_20  and  C_15 
REMARK    6  A    between atoms: C_17  and  C_20 
ROOT
ATOM      1  N   UNL d   1     -39.194  14.767  18.724  0.00  0.00    -0.254 N 
ATOM      2  C   UNL d   1     -39.131  14.754  19.997  0.00  0.00     0.093 A 
ATOM      3  C   UNL d   1     -38.788  15.389  18.898  0.00  0.00     0.153 A 
ATOM      4  C   UNL d   1     -39.424  14.349  19.374  0.00  0.00     0.272 A 
ATOM      5  S   UNL d   1     -38.740  15.394  19.702  0.00  0.00    -0.053 SA
ATOM      6  S   UNL d   1     -38.480  15.922  18.340  0.00  0.00    -0.052 SA
ATOM      7  O   UNL d   1     -39.859  13.665  19.410  0.00  0.00    -0.266 OA
ENDROOT
BRANCH   2   8
ATOM      8  C   UNL d   1     -39.218  14.548  20.791  0.00  0.00     0.070 A 
ATOM      9  C   UNL d   1     -39.819  14.911  21.198  0.00  0.00     0.280 A 
ATOM     10  N   UNL d   1     -39.823  14.637  21.988  0.00  0.00    -0.208 NA
ATOM     11  O   UNL d   1     -40.348  15.465  20.885  0.00  0.00    -0.265 OA
ATOM     12  C   UNL d   1     -39.209  14.095  22.059  0.00  0.00     0.085 A 
ATOM     13  C   UNL d   1     -38.827  14.032  21.327  0.00  0.00     0.023 A 
ATOM     14  C   UNL d   1     -38.936  13.640  22.705  0.00  0.00     0.019 A 
ATOM     15  C   UNL d   1     -38.210  13.545  21.235  0.00  0.00     0.002 A 
ATOM     16  C   UNL d   1     -37.939  13.104  21.843  0.00  0.00     0.000 A 
ATOM     17  C   UNL d   1     -38.301  13.137  22.617  0.00  0.00     0.002 A 
ENDBRANCH   2   8
BRANCH   1  18
ATOM     18  C   UNL d   1     -39.361  14.579  17.897  0.00  0.00     0.133 C 
BRANCH  18  19
ATOM     19  C   UNL d   1     -40.145  14.700  17.635  0.00  0.00     0.228 C 
ATOM     20  O   UNL d   1     -40.700  14.131  17.679  0.00  0.00    -0.643 OA
ATOM     21  O   UNL d   1     -40.319  15.464  17.321  0.00  0.00    -0.643 OA
ENDBRANCH  18  19
BRANCH  18  22
ATOM     22  C   UNL d   1     -38.785  14.303  17.410  0.00  0.00     0.030 C 
BRANCH  22  23
ATOM     23  C   UNL d   1     -39.031  13.871  16.752  0.00  0.00     0.072 C 
BRANCH  23  24
ATOM     24  C   UNL d   1     -38.397  13.538  16.281  0.00  0.00     0.211 C 
ATOM     25  O   UNL d   1     -37.940  12.922  16.563  0.00  0.00    -0.644 OA
ATOM     26  O   UNL d   1     -38.282  13.866  15.548  0.00  0.00    -0.644 OA
ENDBRANCH  23  24
ENDBRANCH  22  23
ENDBRANCH  18  22
ENDBRANCH   1  18
TORSDOF 6
ENDMDL
