MODEL 1
REMARK VINA RESULT:      -2.5      0.000      0.000
REMARK  6 active torsions:
REMARK  status: ('A' for Active; 'I' for Inactive)
REMARK    1  A    between atoms: N_5  and  C_1 
REMARK    2  A    between atoms: S_2  and  C_11 
REMARK    3  A    between atoms: N_12  and  S_2 
REMARK    4  A    between atoms: O_8  and  C_4 
REMARK    5  A    between atoms: C_9  and  O_8 
REMARK    6  A    between atoms: C_16  and  C_9 
ROOT
ATOM      1  C   UNL d   1     -41.713-122.835 -51.035  0.00  0.00     0.300 C 
ATOM      2  O   UNL d   1     -41.123-122.485 -50.592  0.00  0.00    -0.259 OA
ENDROOT
BRANCH   1   3
ATOM      3  O   UNL d   1     -42.368-123.180 -50.666  0.00  0.00    -0.271 OA
BRANCH   3   4
ATOM      4  C   UNL d   1     -42.409-123.230 -49.845  0.00  0.00     0.132 A 
ATOM      5  C   UNL d   1     -43.110-123.045 -49.450  0.00  0.00     0.207 A 
ATOM      6  C   UNL d   1     -43.151-123.095 -48.628  0.00  0.00     0.303 A 
ATOM      7  N   UNL d   1     -42.491-123.330 -48.199  0.00  0.00    -0.206 NA
ATOM      8  O   UNL d   1     -43.856-122.909 -48.237  0.00  0.00    -0.263 OA
ATOM      9  C   UNL d   1     -41.795-123.514 -48.586  0.00  0.00     0.087 A 
ATOM     10  C   UNL d   1     -41.754-123.464 -49.408  0.00  0.00     0.046 A 
ATOM     11  C   UNL d   1     -41.123-123.753 -48.153  0.00  0.00     0.021 C 
BRANCH   5  12
ATOM     12  N   UNL d   1     -43.774-122.808 -49.887  0.00  0.00    -0.107 N 
ATOM     13  O   UNL d   1     -44.343-123.369 -50.097  0.00  0.00    -0.531 OA
ATOM     14  O   UNL d   1     -43.864-122.020 -50.109  0.00  0.00    -0.531 OA
ENDBRANCH   5  12
ENDBRANCH   3   4
ENDBRANCH   1   3
BRANCH   1  15
ATOM     15  C   UNL d   1     -41.655-122.845 -51.863  0.00  0.00     0.064 A 
ATOM     16  C   UNL d   1     -41.599-122.145 -52.272  0.00  0.00     0.006 A 
ATOM     17  C   UNL d   1     -41.542-122.166 -53.098  0.00  0.00     0.013 A 
ATOM     18  C   UNL d   1     -41.543-122.883 -53.488  0.00  0.00     0.104 A 
ATOM     19  C   UNL d   1     -41.600-123.586 -53.076  0.00  0.00     0.013 A 
ATOM     20  C   UNL d   1     -41.657-123.571 -52.255  0.00  0.00     0.006 A 
BRANCH  18  21
ATOM     21  S   UNL d   1     -41.486-122.908 -54.315  0.00  0.00     0.271 S 
ATOM     22  O   UNL d   1     -41.334-123.114 -55.093  0.00  0.00    -0.200 OA
ATOM     23  O   UNL d   1     -41.123-123.604 -54.051  0.00  0.00    -0.200 OA
BRANCH  21  24
ATOM     24  N   UNL d   1     -41.797-122.292 -54.750  0.00  0.00    -0.226 N 
ATOM     25  C   UNL d   1     -42.583-122.300 -54.973  0.00  0.00     0.111 C 
ATOM     26  C   UNL d   1     -41.305-121.660 -54.962  0.00  0.00     0.111 C 
ENDBRANCH  21  24
ENDBRANCH  18  21
ENDBRANCH   1  15
TORSDOF 6
ENDMDL
MODEL 2
REMARK VINA RESULT:      -1.7      1.684      4.954
REMARK  6 active torsions:
REMARK  status: ('A' for Active; 'I' for Inactive)
REMARK    1  A    between atoms: N_5  and  C_1 
REMARK    2  A    between atoms: S_2  and  C_11 
REMARK    3  A    between atoms: N_12  and  S_2 
REMARK    4  A    between atoms: O_8  and  C_4 
REMARK    5  A    between atoms: C_9  and  O_8 
REMARK    6  A    between atoms: C_16  and  C_9 
ROOT
ATOM      1  C   UNL d   1     -41.389-121.979 -52.253  0.00  0.00     0.300 C 
ATOM      2  O   UNL d   1     -41.133-121.206 -52.313  0.00  0.00    -0.259 OA
ENDROOT
BRANCH   1   3
ATOM      3  O   UNL d   1     -41.535-122.428 -52.932  0.00  0.00    -0.271 OA
BRANCH   3   4
ATOM      4  C   UNL d   1     -41.772-122.065 -53.633  0.00  0.00     0.132 A 
ATOM      5  C   UNL d   1     -41.894-122.513 -54.314  0.00  0.00     0.207 A 
ATOM      6  C   UNL d   1     -42.131-122.149 -55.016  0.00  0.00     0.303 A 
ATOM      7  N   UNL d   1     -42.247-121.336 -55.036  0.00  0.00    -0.206 NA
ATOM      8  O   UNL d   1     -42.252-122.604 -55.697  0.00  0.00    -0.263 OA
ATOM      9  C   UNL d   1     -42.127-120.888 -54.363  0.00  0.00     0.087 A 
ATOM     10  C   UNL d   1     -41.890-121.252 -53.661  0.00  0.00     0.046 A 
ATOM     11  C   UNL d   1     -42.243-120.062 -54.381  0.00  0.00     0.021 C 
BRANCH   5  12
ATOM     12  N   UNL d   1     -41.776-123.334 -54.290  0.00  0.00    -0.107 N 
ATOM     13  O   UNL d   1     -41.123-123.663 -54.673  0.00  0.00    -0.531 OA
ATOM     14  O   UNL d   1     -42.308-123.816 -53.885  0.00  0.00    -0.531 OA
ENDBRANCH   5  12
ENDBRANCH   3   4
ENDBRANCH   1   3
BRANCH   1  15
ATOM     15  C   UNL d   1     -41.505-122.317 -51.504  0.00  0.00     0.064 A 
ATOM     16  C   UNL d   1     -41.966-121.934 -50.955  0.00  0.00     0.006 A 
ATOM     17  C   UNL d   1     -42.074-122.281 -50.211  0.00  0.00     0.013 A 
ATOM     18  C   UNL d   1     -41.721-122.996 -50.039  0.00  0.00     0.104 A 
ATOM     19  C   UNL d   1     -41.259-123.380 -50.591  0.00  0.00     0.013 A 
ATOM     20  C   UNL d   1     -41.147-123.041 -51.333  0.00  0.00     0.006 A 
BRANCH  18  21
ATOM     21  S   UNL d   1     -41.828-123.346 -49.294  0.00  0.00     0.271 S 
ATOM     22  O   UNL d   1     -41.759-123.792 -48.610  0.00  0.00    -0.200 OA
ATOM     23  O   UNL d   1     -41.135-123.685 -49.596  0.00  0.00    -0.200 OA
BRANCH  21  24
ATOM     24  N   UNL d   1     -42.474-123.128 -48.846  0.00  0.00    -0.226 N 
ATOM     25  C   UNL d   1     -43.215-123.425 -49.018  0.00  0.00     0.111 C 
ATOM     26  C   UNL d   1     -42.366-122.602 -48.215  0.00  0.00     0.111 C 
ENDBRANCH  21  24
ENDBRANCH  18  21
ENDBRANCH   1  15
TORSDOF 6
ENDMDL
MODEL 3
REMARK VINA RESULT:      -0.6      1.966      5.032
REMARK  6 active torsions:
REMARK  status: ('A' for Active; 'I' for Inactive)
REMARK    1  A    between atoms: N_5  and  C_1 
REMARK    2  A    between atoms: S_2  and  C_11 
REMARK    3  A    between atoms: N_12  and  S_2 
REMARK    4  A    between atoms: O_8  and  C_4 
REMARK    5  A    between atoms: C_9  and  O_8 
REMARK    6  A    between atoms: C_16  and  C_9 
ROOT
ATOM      1  C   UNL d   1     -41.846-123.163 -50.837  0.00  0.00     0.300 C 
ATOM      2  O   UNL d   1     -41.556-123.817 -51.231  0.00  0.00    -0.259 OA
ENDROOT
BRANCH   1   3
ATOM      3  O   UNL d   1     -41.960-122.448 -51.237  0.00  0.00    -0.271 OA
BRANCH   3   4
ATOM      4  C   UNL d   1     -41.764-122.377 -52.034  0.00  0.00     0.132 A 
ATOM      5  C   UNL d   1     -41.663-121.631 -52.374  0.00  0.00     0.207 A 
ATOM      6  C   UNL d   1     -41.466-121.560 -53.172  0.00  0.00     0.303 A 
ATOM      7  N   UNL d   1     -41.370-122.234 -53.631  0.00  0.00    -0.206 NA
ATOM      8  O   UNL d   1     -41.366-120.811 -53.507  0.00  0.00    -0.263 OA
ATOM      9  C   UNL d   1     -41.470-122.975 -53.299  0.00  0.00     0.087 A 
ATOM     10  C   UNL d   1     -41.666-123.046 -52.501  0.00  0.00     0.046 A 
ATOM     11  C   UNL d   1     -41.373-123.661 -53.763  0.00  0.00     0.021 C 
BRANCH   5  12
ATOM     12  N   UNL d   1     -41.760-120.953 -51.906  0.00  0.00    -0.107 N 
ATOM     13  O   UNL d   1     -42.501-120.590 -51.867  0.00  0.00    -0.531 OA
ATOM     14  O   UNL d   1     -41.123-120.645 -51.485  0.00  0.00    -0.531 OA
ENDBRANCH   5  12
ENDBRANCH   3   4
ENDBRANCH   1   3
BRANCH   1  15
ATOM     15  C   UNL d   1     -42.027-123.215 -50.029  0.00  0.00     0.064 A 
ATOM     16  C   UNL d   1     -41.429-123.208 -49.479  0.00  0.00     0.006 A 
ATOM     17  C   UNL d   1     -41.621-123.260 -48.676  0.00  0.00     0.013 A 
ATOM     18  C   UNL d   1     -42.403-123.319 -48.447  0.00  0.00     0.104 A 
ATOM     19  C   UNL d   1     -43.003-123.327 -49.000  0.00  0.00     0.013 A 
ATOM     20  C   UNL d   1     -42.818-123.274 -49.800  0.00  0.00     0.006 A 
BRANCH  18  21
ATOM     21  S   UNL d   1     -42.599-123.372 -47.643  0.00  0.00     0.271 S 
ATOM     22  O   UNL d   1     -42.979-123.478 -46.925  0.00  0.00    -0.200 OA
ATOM     23  O   UNL d   1     -43.293-123.570 -48.049  0.00  0.00    -0.200 OA
BRANCH  21  24
ATOM     24  N   UNL d   1     -42.026-123.208 -47.086  0.00  0.00    -0.226 N 
ATOM     25  C   UNL d   1     -41.629-123.816 -46.712  0.00  0.00     0.111 C 
ATOM     26  C   UNL d   1     -41.853-122.419 -46.906  0.00  0.00     0.111 C 
ENDBRANCH  21  24
ENDBRANCH  18  21
ENDBRANCH   1  15
TORSDOF 6
ENDMDL
MODEL 4
REMARK VINA RESULT:       0.4      1.054      1.745
REMARK  6 active torsions:
REMARK  status: ('A' for Active; 'I' for Inactive)
REMARK    1  A    between atoms: N_5  and  C_1 
REMARK    2  A    between atoms: S_2  and  C_11 
REMARK    3  A    between atoms: N_12  and  S_2 
REMARK    4  A    between atoms: O_8  and  C_4 
REMARK    5  A    between atoms: C_9  and  O_8 
REMARK    6  A    between atoms: C_16  and  C_9 
ROOT
ATOM      1  C   UNL d   1     -41.756-122.137 -51.493  0.00  0.00     0.300 C 
ATOM      2  O   UNL d   1     -41.727-121.363 -51.232  0.00  0.00    -0.259 OA
ENDROOT
BRANCH   1   3
ATOM      3  O   UNL d   1     -41.850-122.759 -50.956  0.00  0.00    -0.271 OA
BRANCH   3   4
ATOM      4  C   UNL d   1     -42.398-122.703 -50.342  0.00  0.00     0.132 A 
ATOM      5  C   UNL d   1     -42.225-123.018 -49.599  0.00  0.00     0.207 A 
ATOM      6  C   UNL d   1     -42.774-122.963 -48.986  0.00  0.00     0.303 A 
ATOM      7  N   UNL d   1     -43.495-122.593 -49.114  0.00  0.00    -0.206 NA
ATOM      8  O   UNL d   1     -42.595-123.280 -48.242  0.00  0.00    -0.263 OA
ATOM      9  C   UNL d   1     -43.671-122.280 -49.848  0.00  0.00     0.087 A 
ATOM     10  C   UNL d   1     -43.123-122.335 -50.462  0.00  0.00     0.046 A 
ATOM     11  C   UNL d   1     -44.403-121.903 -49.982  0.00  0.00     0.021 C 
BRANCH   5  12
ATOM     12  N   UNL d   1     -41.495-123.391 -49.474  0.00  0.00    -0.107 N 
ATOM     13  O   UNL d   1     -41.145-123.816 -50.089  0.00  0.00    -0.531 OA
ATOM     14  O   UNL d   1     -41.123-123.337 -48.741  0.00  0.00    -0.531 OA
ENDBRANCH   5  12
ENDBRANCH   3   4
ENDBRANCH   1   3
BRANCH   1  15
ATOM     15  C   UNL d   1     -41.690-122.301 -52.304  0.00  0.00     0.064 A 
ATOM     16  C   UNL d   1     -41.213-122.909 -52.555  0.00  0.00     0.006 A 
ATOM     17  C   UNL d   1     -41.155-123.064 -53.366  0.00  0.00     0.013 A 
ATOM     18  C   UNL d   1     -41.573-122.609 -53.899  0.00  0.00     0.104 A 
ATOM     19  C   UNL d   1     -42.051-121.998 -53.646  0.00  0.00     0.013 A 
ATOM     20  C   UNL d   1     -42.113-121.839 -52.840  0.00  0.00     0.006 A 
BRANCH  18  21
ATOM     21  S   UNL d   1     -41.516-122.761 -54.713  0.00  0.00     0.271 S 
ATOM     22  O   UNL d   1     -41.357-123.080 -55.450  0.00  0.00    -0.200 OA
ATOM     23  O   UNL d   1     -41.123-123.391 -54.346  0.00  0.00    -0.200 OA
BRANCH  21  24
ATOM     24  N   UNL d   1     -41.854-122.235 -55.237  0.00  0.00    -0.226 N 
ATOM     25  C   UNL d   1     -41.439-121.578 -55.488  0.00  0.00     0.111 C 
ATOM     26  C   UNL d   1     -42.623-122.377 -55.509  0.00  0.00     0.111 C 
ENDBRANCH  21  24
ENDBRANCH  18  21
ENDBRANCH   1  15
TORSDOF 6
ENDMDL
