MODEL 1
REMARK VINA RESULT:      -3.7      0.000      0.000
REMARK  3 active torsions:
REMARK  status: ('A' for Active; 'I' for Inactive)
REMARK    1  A    between atoms: N_6  and  C_2 
REMARK    2  A    between atoms: C_7  and  C_5 
REMARK    3  A    between atoms: C_9  and  C_7 
ROOT
ATOM      1  N   UNL d   1      57.379   0.510  30.137  0.00  0.00    -0.183 NA
ATOM      2  C   UNL d   1      57.831   0.151  30.722  0.00  0.00     0.183 A 
ATOM      3  S   UNL d   1      58.496  -0.174  30.367  0.00  0.00    -0.045 SA
ATOM      4  C   UNL d   1      57.766   0.407  29.418  0.00  0.00     0.287 A 
ATOM      5  C   UNL d   1      58.459  -0.017  29.556  0.00  0.00     0.090 A 
ATOM      6  O   UNL d   1      57.504   0.680  28.686  0.00  0.00    -0.265 OA
ENDROOT
BRANCH   5   7
ATOM      7  C   UNL d   1      59.014  -0.242  28.988  0.00  0.00     0.011 C 
BRANCH   7   8
ATOM      8  C   UNL d   1      59.322  -1.004  28.991  0.00  0.00     0.001 A 
ATOM      9  C   UNL d   1      60.112  -1.125  29.212  0.00  0.00     0.001 A 
ATOM     10  C   UNL d   1      60.423  -1.889  29.216  0.00  0.00     0.011 A 
ATOM     11  C   UNL d   1      59.949  -2.531  28.999  0.00  0.00     0.058 A 
ATOM     12  C   UNL d   1      59.165  -2.408  28.780  0.00  0.00     0.011 A 
ATOM     13 CL   UNL d   1      60.300  -3.278  29.016  0.00  0.00    -0.082 Cl
ATOM     14  C   UNL d   1      58.847  -1.654  28.773  0.00  0.00     0.001 A 
ENDBRANCH   7   8
ENDBRANCH   5   7
BRANCH   2  15
ATOM     15  N   UNL d   1      57.540   0.188  31.499  0.00  0.00    -0.280 N 
ATOM     16  C   UNL d   1      57.924   0.646  32.064  0.00  0.00     0.109 A 
ATOM     17  C   UNL d   1      57.630   0.681  32.843  0.00  0.00     0.142 A 
ATOM     18  O   UNL d   1      56.955   0.255  33.039  0.00  0.00    -0.300 OA
ATOM     19  C   UNL d   1      56.566  -0.209  32.467  0.00  0.00     0.142 A 
ATOM     20  C   UNL d   1      56.862  -0.239  31.702  0.00  0.00     0.109 A 
ENDBRANCH   2  15
TORSDOF 3
ENDMDL
MODEL 2
REMARK VINA RESULT:      -3.6      2.018      3.936
REMARK  3 active torsions:
REMARK  status: ('A' for Active; 'I' for Inactive)
REMARK    1  A    between atoms: N_6  and  C_2 
REMARK    2  A    between atoms: C_7  and  C_5 
REMARK    3  A    between atoms: C_9  and  C_7 
ROOT
ATOM      1  N   UNL d   1      58.512  -0.673  28.735  0.00  0.00    -0.183 NA
ATOM      2  C   UNL d   1      58.918  -1.031  29.353  0.00  0.00     0.183 A 
ATOM      3  S   UNL d   1      58.814  -0.572  30.026  0.00  0.00    -0.045 SA
ATOM      4  C   UNL d   1      58.157   0.009  29.025  0.00  0.00     0.287 A 
ATOM      5  C   UNL d   1      58.341   0.076  29.826  0.00  0.00     0.090 A 
ATOM      6  O   UNL d   1      57.695   0.536  28.591  0.00  0.00    -0.265 OA
ENDROOT
BRANCH   5   7
ATOM      7  C   UNL d   1      58.097   0.679  30.333  0.00  0.00     0.011 C 
BRANCH   7   8
ATOM      8  C   UNL d   1      57.752   0.496  31.057  0.00  0.00     0.001 A 
ATOM      9  C   UNL d   1      58.152   0.682  31.759  0.00  0.00     0.001 A 
ATOM     10  C   UNL d   1      57.808   0.499  32.486  0.00  0.00     0.011 A 
ATOM     11  C   UNL d   1      57.068   0.133  32.514  0.00  0.00     0.058 A 
ATOM     12  C   UNL d   1      56.673  -0.051  31.816  0.00  0.00     0.011 A 
ATOM     13 CL   UNL d   1      56.759  -0.033  33.262  0.00  0.00    -0.082 Cl
ATOM     14  C   UNL d   1      57.006   0.126  31.089  0.00  0.00     0.001 A 
ENDBRANCH   7   8
ENDBRANCH   5   7
BRANCH   2  15
ATOM     15  N   UNL d   1      59.322  -1.736  29.181  0.00  0.00    -0.280 N 
ATOM     16  C   UNL d   1      60.136  -1.730  29.064  0.00  0.00     0.109 A 
ATOM     17  C   UNL d   1      60.538  -2.439  28.891  0.00  0.00     0.142 A 
ATOM     18  O   UNL d   1      60.114  -3.141  28.840  0.00  0.00    -0.300 OA
ATOM     19  C   UNL d   1      59.290  -3.147  28.959  0.00  0.00     0.142 A 
ATOM     20  C   UNL d   1      58.901  -2.445  29.128  0.00  0.00     0.109 A 
ENDBRANCH   2  15
TORSDOF 3
ENDMDL
MODEL 3
REMARK VINA RESULT:      -3.3      1.919      3.994
REMARK  3 active torsions:
REMARK  status: ('A' for Active; 'I' for Inactive)
REMARK    1  A    between atoms: N_6  and  C_2 
REMARK    2  A    between atoms: C_7  and  C_5 
REMARK    3  A    between atoms: C_9  and  C_7 
ROOT
ATOM      1  N   UNL d   1      58.530  -0.172  28.996  0.00  0.00    -0.183 NA
ATOM      2  C   UNL d   1      59.032  -0.437  29.590  0.00  0.00     0.183 A 
ATOM      3  S   UNL d   1      58.751  -0.152  30.307  0.00  0.00    -0.045 SA
ATOM      4  C   UNL d   1      57.937   0.278  29.346  0.00  0.00     0.287 A 
ATOM      5  C   UNL d   1      58.070   0.293  30.159  0.00  0.00     0.090 A 
ATOM      6  O   UNL d   1      57.316   0.650  28.951  0.00  0.00    -0.265 OA
ENDROOT
BRANCH   5   7
ATOM      7  C   UNL d   1      57.608   0.682  30.721  0.00  0.00     0.011 C 
BRANCH   7   8
ATOM      8  C   UNL d   1      57.302   0.268  31.362  0.00  0.00     0.001 A 
ATOM      9  C   UNL d   1      56.831  -0.401  31.230  0.00  0.00     0.001 A 
ATOM     10  C   UNL d   1      56.524  -0.818  31.873  0.00  0.00     0.011 A 
ATOM     11  C   UNL d   1      56.685  -0.569  32.644  0.00  0.00     0.058 A 
ATOM     12  C   UNL d   1      57.153   0.096  32.773  0.00  0.00     0.011 A 
ATOM     13 CL   UNL d   1      56.358  -1.015  33.258  0.00  0.00    -0.082 Cl
ATOM     14  C   UNL d   1      57.463   0.516  32.142  0.00  0.00     0.001 A 
ENDBRANCH   7   8
ENDBRANCH   5   7
BRANCH   2  15
ATOM     15  N   UNL d   1      59.676  -0.907  29.358  0.00  0.00    -0.280 N 
ATOM     16  C   UNL d   1      59.550  -1.644  29.016  0.00  0.00     0.109 A 
ATOM     17  C   UNL d   1      60.199  -2.113  28.784  0.00  0.00     0.142 A 
ATOM     18  O   UNL d   1      60.963  -1.831  28.901  0.00  0.00    -0.300 OA
ATOM     19  C   UNL d   1      61.090  -1.085  29.248  0.00  0.00     0.142 A 
ATOM     20  C   UNL d   1      60.446  -0.629  29.473  0.00  0.00     0.109 A 
ENDBRANCH   2  15
TORSDOF 3
ENDMDL
MODEL 4
REMARK VINA RESULT:      -3.0      1.511      2.074
REMARK  3 active torsions:
REMARK  status: ('A' for Active; 'I' for Inactive)
REMARK    1  A    between atoms: N_6  and  C_2 
REMARK    2  A    between atoms: C_7  and  C_5 
REMARK    3  A    between atoms: C_9  and  C_7 
ROOT
ATOM      1  N   UNL d   1      57.777   0.214  32.566  0.00  0.00    -0.183 NA
ATOM      2  C   UNL d   1      57.106   0.056  32.118  0.00  0.00     0.183 A 
ATOM      3  S   UNL d   1      57.284   0.210  31.330  0.00  0.00    -0.045 SA
ATOM      4  C   UNL d   1      58.370   0.466  32.055  0.00  0.00     0.287 A 
ATOM      5  C   UNL d   1      58.069   0.465  31.288  0.00  0.00     0.090 A 
ATOM      6  O   UNL d   1      59.136   0.682  32.273  0.00  0.00    -0.265 OA
ENDROOT
BRANCH   5   7
ATOM      7  C   UNL d   1      58.477   0.680  30.604  0.00  0.00     0.011 C 
BRANCH   7   8
ATOM      8  C   UNL d   1      58.722   0.104  30.071  0.00  0.00     0.001 A 
ATOM      9  C   UNL d   1      59.532  -0.031  29.958  0.00  0.00     0.001 A 
ATOM     10  C   UNL d   1      59.780  -0.609  29.423  0.00  0.00     0.011 A 
ATOM     11  C   UNL d   1      59.223  -1.051  29.003  0.00  0.00     0.058 A 
ATOM     12  C   UNL d   1      58.419  -0.916  29.117  0.00  0.00     0.011 A 
ATOM     13 CL   UNL d   1      59.513  -1.619  28.478  0.00  0.00    -0.082 Cl
ATOM     14  C   UNL d   1      58.163  -0.345  29.645  0.00  0.00     0.001 A 
ENDBRANCH   7   8
ENDBRANCH   5   7
BRANCH   2  15
ATOM     15  N   UNL d   1      56.433  -0.208  32.526  0.00  0.00    -0.280 N 
ATOM     16  C   UNL d   1      56.269  -1.012  32.579  0.00  0.00     0.109 A 
ATOM     17  C   UNL d   1      55.593  -1.274  32.989  0.00  0.00     0.142 A 
ATOM     18  O   UNL d   1      55.094  -0.722  33.339  0.00  0.00    -0.300 OA
ATOM     19  C   UNL d   1      55.260   0.092  33.286  0.00  0.00     0.142 A 
ATOM     20  C   UNL d   1      55.928   0.342  32.880  0.00  0.00     0.109 A 
ENDBRANCH   2  15
TORSDOF 3
ENDMDL
MODEL 5
REMARK VINA RESULT:      -2.4      2.342      4.212
REMARK  3 active torsions:
REMARK  status: ('A' for Active; 'I' for Inactive)
REMARK    1  A    between atoms: N_6  and  C_2 
REMARK    2  A    between atoms: C_7  and  C_5 
REMARK    3  A    between atoms: C_9  and  C_7 
ROOT
ATOM      1  N   UNL d   1      58.660  -0.845  29.925  0.00  0.00    -0.183 NA
ATOM      2  C   UNL d   1      58.859  -0.048  29.950  0.00  0.00     0.183 A 
ATOM      3  S   UNL d   1      58.259   0.353  30.342  0.00  0.00    -0.045 SA
ATOM      4  C   UNL d   1      57.935  -0.938  30.302  0.00  0.00     0.287 A 
ATOM      5  C   UNL d   1      57.682  -0.198  30.562  0.00  0.00     0.090 A 
ATOM      6  O   UNL d   1      57.530  -1.649  30.403  0.00  0.00    -0.265 OA
ENDROOT
BRANCH   5   7
ATOM      7  C   UNL d   1      56.982  -0.037  30.968  0.00  0.00     0.011 C 
BRANCH   7   8
ATOM      8  C   UNL d   1      56.989   0.048  31.786  0.00  0.00     0.001 A 
ATOM      9  C   UNL d   1      56.484  -0.418  32.249  0.00  0.00     0.001 A 
ATOM     10  C   UNL d   1      56.490  -0.335  33.071  0.00  0.00     0.011 A 
ATOM     11  C   UNL d   1      56.996   0.211  33.428  0.00  0.00     0.058 A 
ATOM     12  C   UNL d   1      57.496   0.674  32.966  0.00  0.00     0.011 A 
ATOM     13 CL   UNL d   1      56.969   0.263  34.252  0.00  0.00    -0.082 Cl
ATOM     14  C   UNL d   1      57.498   0.598  32.151  0.00  0.00     0.001 A 
ENDBRANCH   7   8
ENDBRANCH   5   7
BRANCH   2  15
ATOM     15  N   UNL d   1      59.578   0.172  29.597  0.00  0.00    -0.280 N 
ATOM     16  C   UNL d   1      59.601   0.396  28.806  0.00  0.00     0.109 A 
ATOM     17  C   UNL d   1      60.324   0.616  28.456  0.00  0.00     0.142 A 
ATOM     18  O   UNL d   1      61.011   0.608  28.908  0.00  0.00    -0.300 OA
ATOM     19  C   UNL d   1      60.988   0.381  29.709  0.00  0.00     0.142 A 
ATOM     20  C   UNL d   1      60.272   0.166  30.047  0.00  0.00     0.109 A 
ENDBRANCH   2  15
TORSDOF 3
ENDMDL
MODEL 6
REMARK VINA RESULT:      -2.3      1.986      4.193
REMARK  3 active torsions:
REMARK  status: ('A' for Active; 'I' for Inactive)
REMARK    1  A    between atoms: N_6  and  C_2 
REMARK    2  A    between atoms: C_7  and  C_5 
REMARK    3  A    between atoms: C_9  and  C_7 
ROOT
ATOM      1  N   UNL d   1      59.253   0.417  31.302  0.00  0.00    -0.183 NA
ATOM      2  C   UNL d   1      58.759   0.328  30.651  0.00  0.00     0.183 A 
ATOM      3  S   UNL d   1      57.983   0.416  30.906  0.00  0.00    -0.045 SA
ATOM      4  C   UNL d   1      58.781   0.560  31.961  0.00  0.00     0.287 A 
ATOM      5  C   UNL d   1      57.993   0.560  31.720  0.00  0.00     0.090 A 
ATOM      6  O   UNL d   1      59.051   0.682  32.731  0.00  0.00    -0.265 OA
ENDROOT
BRANCH   5   7
ATOM      7  C   UNL d   1      57.335   0.682  32.203  0.00  0.00     0.011 C 
BRANCH   7   8
ATOM      8  C   UNL d   1      56.872   0.045  32.438  0.00  0.00     0.001 A 
ATOM      9  C   UNL d   1      56.562   0.026  33.207  0.00  0.00     0.001 A 
ATOM     10  C   UNL d   1      56.096  -0.612  33.444  0.00  0.00     0.011 A 
ATOM     11  C   UNL d   1      55.940  -1.230  32.918  0.00  0.00     0.058 A 
ATOM     12  C   UNL d   1      56.248  -1.209  32.155  0.00  0.00     0.011 A 
ATOM     13 CL   UNL d   1      55.469  -1.849  33.197  0.00  0.00    -0.082 Cl
ATOM     14  C   UNL d   1      56.711  -0.580  31.910  0.00  0.00     0.001 A 
ENDBRANCH   7   8
ENDBRANCH   5   7
BRANCH   2  15
ATOM     15  N   UNL d   1      59.123   0.179  29.920  0.00  0.00    -0.280 N 
ATOM     16  C   UNL d   1      59.630  -0.463  29.832  0.00  0.00     0.109 A 
ATOM     17  C   UNL d   1      59.993  -0.610  29.097  0.00  0.00     0.142 A 
ATOM     18  O   UNL d   1      59.840  -0.109  28.463  0.00  0.00    -0.300 OA
ATOM     19  C   UNL d   1      59.326   0.540  28.552  0.00  0.00     0.142 A 
ATOM     20  C   UNL d   1      58.972   0.679  29.279  0.00  0.00     0.109 A 
ENDBRANCH   2  15
TORSDOF 3
ENDMDL
MODEL 7
REMARK VINA RESULT:      -2.3      9.310     10.218
REMARK  3 active torsions:
REMARK  status: ('A' for Active; 'I' for Inactive)
REMARK    1  A    between atoms: N_6  and  C_2 
REMARK    2  A    between atoms: C_7  and  C_5 
REMARK    3  A    between atoms: C_9  and  C_7 
ROOT
ATOM      1  N   UNL d   1      58.782  -9.807  32.534  0.00  0.00    -0.183 NA
ATOM      2  C   UNL d   1      59.599  -9.799  32.454  0.00  0.00     0.183 A 
ATOM      3  S   UNL d   1      59.929  -9.785  33.206  0.00  0.00    -0.045 SA
ATOM      4  C   UNL d   1      58.605  -9.799  33.338  0.00  0.00     0.287 A 
ATOM      5  C   UNL d   1      59.314  -9.785  33.759  0.00  0.00     0.090 A 
ATOM      6  O   UNL d   1      57.849  -9.804  33.666  0.00  0.00    -0.265 OA
ENDROOT
BRANCH   5   7
ATOM      7  C   UNL d   1      59.393  -9.774  34.579  0.00  0.00     0.011 C 
BRANCH   7   8
ATOM      8  C   UNL d   1      59.802  -9.162  34.946  0.00  0.00     0.001 A 
ATOM      9  C   UNL d   1      60.601  -9.266  35.146  0.00  0.00     0.001 A 
ATOM     10  C   UNL d   1      61.013  -8.653  35.514  0.00  0.00     0.011 A 
ATOM     11  C   UNL d   1      60.632  -7.940  35.683  0.00  0.00     0.058 A 
ATOM     12  C   UNL d   1      59.840  -7.839  35.483  0.00  0.00     0.011 A 
ATOM     13 CL   UNL d   1      61.082  -7.353  36.052  0.00  0.00    -0.082 Cl
ATOM     14  C   UNL d   1      59.422  -8.440  35.118  0.00  0.00     0.001 A 
ENDBRANCH   7   8
ENDBRANCH   5   7
BRANCH   2  15
ATOM     15  N   UNL d   1      59.902  -9.805  31.681  0.00  0.00    -0.280 N 
ATOM     16  C   UNL d   1      59.393  -9.807  31.035  0.00  0.00     0.109 A 
ATOM     17  C   UNL d   1      59.701  -9.813  30.261  0.00  0.00     0.142 A 
ATOM     18  O   UNL d   1      60.515  -9.818  30.150  0.00  0.00    -0.300 OA
ATOM     19  C   UNL d   1      61.031  -9.816  30.804  0.00  0.00     0.142 A 
ATOM     20  C   UNL d   1      60.721  -9.809  31.563  0.00  0.00     0.109 A 
ENDBRANCH   2  15
TORSDOF 3
ENDMDL
MODEL 8
REMARK VINA RESULT:      -2.2      9.409      9.982
REMARK  3 active torsions:
REMARK  status: ('A' for Active; 'I' for Inactive)
REMARK    1  A    between atoms: N_6  and  C_2 
REMARK    2  A    between atoms: C_7  and  C_5 
REMARK    3  A    between atoms: C_9  and  C_7 
ROOT
ATOM      1  N   UNL d   1      59.712  -9.777  31.563  0.00  0.00    -0.183 NA
ATOM      2  C   UNL d   1      59.005  -9.803  31.982  0.00  0.00     0.183 A 
ATOM      3  S   UNL d   1      59.185  -9.818  32.784  0.00  0.00    -0.045 SA
ATOM      4  C   UNL d   1      60.330  -9.776  32.106  0.00  0.00     0.287 A 
ATOM      5  C   UNL d   1      60.008  -9.801  32.864  0.00  0.00     0.090 A 
ATOM      6  O   UNL d   1      61.133  -9.753  31.923  0.00  0.00    -0.265 OA
ENDROOT
BRANCH   5   7
ATOM      7  C   UNL d   1      60.431  -9.809  33.573  0.00  0.00     0.011 C 
BRANCH   7   8
ATOM      8  C   UNL d   1      60.202  -9.322  34.195  0.00  0.00     0.001 A 
ATOM      9  C   UNL d   1      60.683  -8.682  34.411  0.00  0.00     0.001 A 
ATOM     10  C   UNL d   1      60.456  -8.192  35.035  0.00  0.00     0.011 A 
ATOM     11  C   UNL d   1      59.753  -8.339  35.442  0.00  0.00     0.058 A 
ATOM     12  C   UNL d   1      59.277  -8.976  35.226  0.00  0.00     0.011 A 
ATOM     13 CL   UNL d   1      59.563  -7.825  36.060  0.00  0.00    -0.082 Cl
ATOM     14  C   UNL d   1      59.493  -9.467  34.609  0.00  0.00     0.001 A 
ENDBRANCH   7   8
ENDBRANCH   5   7
BRANCH   2  15
ATOM     15  N   UNL d   1      58.303  -9.808  31.539  0.00  0.00    -0.280 N 
ATOM     16  C   UNL d   1      57.573  -9.812  31.918  0.00  0.00     0.109 A 
ATOM     17  C   UNL d   1      56.871  -9.817  31.470  0.00  0.00     0.142 A 
ATOM     18  O   UNL d   1      56.915  -9.818  30.649  0.00  0.00    -0.300 OA
ATOM     19  C   UNL d   1      57.655  -9.813  30.265  0.00  0.00     0.142 A 
ATOM     20  C   UNL d   1      58.342  -9.808  30.713  0.00  0.00     0.109 A 
ENDBRANCH   2  15
TORSDOF 3
ENDMDL
MODEL 9
REMARK VINA RESULT:      -2.1      2.703      4.977
REMARK  3 active torsions:
REMARK  status: ('A' for Active; 'I' for Inactive)
REMARK    1  A    between atoms: N_6  and  C_2 
REMARK    2  A    between atoms: C_7  and  C_5 
REMARK    3  A    between atoms: C_9  and  C_7 
ROOT
ATOM      1  N   UNL d   1      57.263  -0.751  31.507  0.00  0.00    -0.183 NA
ATOM      2  C   UNL d   1      57.394   0.049  31.377  0.00  0.00     0.183 A 
ATOM      3  S   UNL d   1      56.800   0.470  31.758  0.00  0.00    -0.045 SA
ATOM      4  C   UNL d   1      56.587  -0.826  31.970  0.00  0.00     0.287 A 
ATOM      5  C   UNL d   1      56.296  -0.071  32.128  0.00  0.00     0.090 A 
ATOM      6  O   UNL d   1      56.256  -1.535  32.231  0.00  0.00    -0.265 OA
ENDROOT
BRANCH   5   7
ATOM      7  C   UNL d   1      55.627   0.110  32.574  0.00  0.00     0.011 C 
BRANCH   7   8
ATOM      8  C   UNL d   1      55.694   0.256  33.380  0.00  0.00     0.001 A 
ATOM      9  C   UNL d   1      55.032   0.160  33.870  0.00  0.00     0.001 A 
ATOM     10  C   UNL d   1      55.097   0.306  34.680  0.00  0.00     0.011 A 
ATOM     11  C   UNL d   1      55.819   0.546  35.000  0.00  0.00     0.058 A 
ATOM     12  C   UNL d   1      56.476   0.641  34.512  0.00  0.00     0.011 A 
ATOM     13 CL   UNL d   1      55.841   0.682  35.815  0.00  0.00    -0.082 Cl
ATOM     14  C   UNL d   1      56.421   0.499  33.708  0.00  0.00     0.001 A 
ENDBRANCH   7   8
ENDBRANCH   5   7
BRANCH   2  15
ATOM     15  N   UNL d   1      58.054   0.253  30.918  0.00  0.00    -0.280 N 
ATOM     16  C   UNL d   1      58.010   0.239  30.096  0.00  0.00     0.109 A 
ATOM     17  C   UNL d   1      58.675   0.444  29.639  0.00  0.00     0.142 A 
ATOM     18  O   UNL d   1      59.373   0.661  30.015  0.00  0.00    -0.300 OA
ATOM     19  C   UNL d   1      59.418   0.675  30.847  0.00  0.00     0.142 A 
ATOM     20  C   UNL d   1      58.760   0.472  31.290  0.00  0.00     0.109 A 
ENDBRANCH   2  15
TORSDOF 3
ENDMDL
