MODEL 1
REMARK VINA RESULT:      -1.6      0.000      0.000
REMARK  3 active torsions:
REMARK  status: ('A' for Active; 'I' for Inactive)
REMARK       I    between atoms: C_4  and  N_1 
REMARK    1  A    between atoms: C_7  and  C_3 
REMARK    2  A    between atoms: C_8  and  C_4 
REMARK    3  A    between atoms: C_13  and  C_5 
ROOT
ATOM      1  N   UNL d   1      30.610  17.086 -24.188  0.00  0.00    -0.194 N 
ATOM      2  N   UNL d   1      29.800  17.094 -24.095  0.00  0.00    -0.163 NA
ATOM      3  C   UNL d   1      30.872  16.305 -24.114  0.00  0.00     0.091 A 
ATOM      4  C   UNL d   1      31.113  17.757 -24.335  0.00  0.00     0.286 C 
ATOM      5  C   UNL d   1      29.557  16.315 -23.963  0.00  0.00     0.103 A 
ATOM      6  C   UNL d   1      30.217  15.834 -23.976  0.00  0.00     0.040 A 
ATOM      7  O   UNL d   1      30.762  18.506 -24.393  0.00  0.00    -0.265 OA
ENDROOT
BRANCH   3   8
ATOM      8  C   UNL d   1      31.661  16.051 -24.172  0.00  0.00     0.057 A 
ATOM      9  C   UNL d   1      32.047  15.780 -23.510  0.00  0.00     0.197 A 
ATOM     10  O   UNL d   1      31.670  15.754 -22.792  0.00  0.00    -0.286 OA
ATOM     11  C   UNL d   1      32.837  15.526 -23.568  0.00  0.00     0.042 A 
ATOM     12  C   UNL d   1      33.240  15.543 -24.286  0.00  0.00     0.003 A 
ATOM     13  C   UNL d   1      32.831  15.821 -24.945  0.00  0.00     0.000 A 
ATOM     14  C   UNL d   1      32.065  16.068 -24.892  0.00  0.00     0.005 A 
ENDBRANCH   3   8
BRANCH   4  15
ATOM     15  C   UNL d   1      31.908  17.666 -24.415  0.00  0.00     0.087 A 
ATOM     16  S   UNL d   1      32.284  17.477 -25.096  0.00  0.00    -0.082 SA
ATOM     17  C   UNL d   1      33.103  17.439 -24.931  0.00  0.00     0.036 A 
ATOM     18  C   UNL d   1      33.207  17.612 -24.124  0.00  0.00     0.008 A 
ATOM     19  C   UNL d   1      32.469  17.752 -23.807  0.00  0.00     0.012 A 
ENDBRANCH   4  15
BRANCH   5  20
ATOM     20  C   UNL d   1      28.778  16.071 -23.840  0.00  0.00     0.019 A 
ATOM     21  C   UNL d   1      28.415  16.203 -23.102  0.00  0.00     0.002 A 
ATOM     22  C   UNL d   1      27.636  15.960 -22.976  0.00  0.00     0.000 A 
ATOM     23  C   UNL d   1      27.215  15.585 -23.581  0.00  0.00     0.000 A 
ATOM     24  C   UNL d   1      27.577  15.453 -24.319  0.00  0.00     0.000 A 
ATOM     25  C   UNL d   1      28.356  15.697 -24.442  0.00  0.00     0.002 A 
ENDBRANCH   5  20
TORSDOF 3
ENDMDL
MODEL 2
REMARK VINA RESULT:      -0.9      4.672      6.294
REMARK  3 active torsions:
REMARK  status: ('A' for Active; 'I' for Inactive)
REMARK       I    between atoms: C_4  and  N_1 
REMARK    1  A    between atoms: C_7  and  C_3 
REMARK    2  A    between atoms: C_8  and  C_4 
REMARK    3  A    between atoms: C_13  and  C_5 
ROOT
ATOM      1  N   UNL d   1      32.844  21.434 -22.312  0.00  0.00    -0.194 N 
ATOM      2  N   UNL d   1      32.998  20.820 -22.826  0.00  0.00    -0.163 NA
ATOM      3  C   UNL d   1      32.667  21.112 -21.571  0.00  0.00     0.091 A 
ATOM      4  C   UNL d   1      32.860  22.265 -22.492  0.00  0.00     0.286 C 
ATOM      5  C   UNL d   1      32.916  20.114 -22.404  0.00  0.00     0.103 A 
ATOM      6  C   UNL d   1      32.713  20.298 -21.634  0.00  0.00     0.040 A 
ATOM      7  O   UNL d   1      33.048  22.497 -23.265  0.00  0.00    -0.265 OA
ENDROOT
BRANCH   3   8
ATOM      8  C   UNL d   1      32.478  21.546 -20.888  0.00  0.00     0.057 A 
ATOM      9  C   UNL d   1      31.707  21.576 -20.630  0.00  0.00     0.197 A 
ATOM     10  O   UNL d   1      31.120  21.185 -21.033  0.00  0.00    -0.286 OA
ATOM     11  C   UNL d   1      31.517  22.009 -19.947  0.00  0.00     0.042 A 
ATOM     12  C   UNL d   1      32.095  22.414 -19.522  0.00  0.00     0.003 A 
ATOM     13  C   UNL d   1      32.870  22.371 -19.800  0.00  0.00     0.000 A 
ATOM     14  C   UNL d   1      33.057  21.951 -20.462  0.00  0.00     0.005 A 
ENDBRANCH   3   8
BRANCH   4  15
ATOM     15  C   UNL d   1      32.696  22.812 -21.925  0.00  0.00     0.087 A 
ATOM     16  S   UNL d   1      33.240  23.179 -21.467  0.00  0.00    -0.082 SA
ATOM     17  C   UNL d   1      32.831  23.700 -20.957  0.00  0.00     0.036 A 
ATOM     18  C   UNL d   1      32.018  23.635 -21.124  0.00  0.00     0.008 A 
ATOM     19  C   UNL d   1      31.937  23.086 -21.722  0.00  0.00     0.012 A 
ENDBRANCH   4  15
BRANCH   5  20
ATOM     20  C   UNL d   1      33.022  19.356 -22.713  0.00  0.00     0.019 A 
ATOM     21  C   UNL d   1      33.133  18.712 -22.196  0.00  0.00     0.002 A 
ATOM     22  C   UNL d   1      33.240  17.951 -22.502  0.00  0.00     0.000 A 
ATOM     23  C   UNL d   1      33.236  17.829 -23.320  0.00  0.00     0.000 A 
ATOM     24  C   UNL d   1      33.125  18.473 -23.836  0.00  0.00     0.000 A 
ATOM     25  C   UNL d   1      33.019  19.231 -23.528  0.00  0.00     0.002 A 
ENDBRANCH   5  20
TORSDOF 3
ENDMDL
MODEL 3
REMARK VINA RESULT:      -0.2      2.147      4.310
REMARK  3 active torsions:
REMARK  status: ('A' for Active; 'I' for Inactive)
REMARK       I    between atoms: C_4  and  N_1 
REMARK    1  A    between atoms: C_7  and  C_3 
REMARK    2  A    between atoms: C_8  and  C_4 
REMARK    3  A    between atoms: C_13  and  C_5 
ROOT
ATOM      1  N   UNL d   1      32.723  17.811 -22.707  0.00  0.00    -0.194 N 
ATOM      2  N   UNL d   1      32.991  18.463 -22.297  0.00  0.00    -0.163 NA
ATOM      3  C   UNL d   1      32.326  18.076 -23.382  0.00  0.00     0.091 A 
ATOM      4  C   UNL d   1      32.827  16.995 -22.491  0.00  0.00     0.286 C 
ATOM      5  C   UNL d   1      32.759  19.135 -22.718  0.00  0.00     0.103 A 
ATOM      6  C   UNL d   1      32.351  18.893 -23.383  0.00  0.00     0.040 A 
ATOM      7  O   UNL d   1      33.241  16.822 -21.794  0.00  0.00    -0.265 OA
ENDROOT
BRANCH   3   8
ATOM      8  C   UNL d   1      31.967  17.591 -23.954  0.00  0.00     0.057 A 
ATOM      9  C   UNL d   1      31.156  17.568 -24.013  0.00  0.00     0.197 A 
ATOM     10  O   UNL d   1      30.693  18.015 -23.518  0.00  0.00    -0.286 OA
ATOM     11  C   UNL d   1      30.798  17.083 -24.584  0.00  0.00     0.042 A 
ATOM     12  C   UNL d   1      31.247  16.621 -25.097  0.00  0.00     0.003 A 
ATOM     13  C   UNL d   1      32.067  16.658 -25.021  0.00  0.00     0.000 A 
ATOM     14  C   UNL d   1      32.418  17.127 -24.468  0.00  0.00     0.005 A 
ENDBRANCH   3   8
BRANCH   4  15
ATOM     15  C   UNL d   1      32.532  16.406 -22.952  0.00  0.00     0.087 A 
ATOM     16  S   UNL d   1      31.793  16.101 -22.894  0.00  0.00    -0.082 SA
ATOM     17  C   UNL d   1      31.720  15.504 -23.476  0.00  0.00     0.036 A 
ATOM     18  C   UNL d   1      32.442  15.461 -23.887  0.00  0.00     0.008 A 
ATOM     19  C   UNL d   1      32.941  16.017 -23.563  0.00  0.00     0.012 A 
ENDBRANCH   4  15
BRANCH   5  20
ATOM     20  C   UNL d   1      32.915  19.916 -22.499  0.00  0.00     0.019 A 
ATOM     21  C   UNL d   1      33.084  20.483 -23.085  0.00  0.00     0.002 A 
ATOM     22  C   UNL d   1      33.241  21.265 -22.869  0.00  0.00     0.000 A 
ATOM     23  C   UNL d   1      33.231  21.486 -22.072  0.00  0.00     0.000 A 
ATOM     24  C   UNL d   1      33.063  20.918 -21.486  0.00  0.00     0.000 A 
ATOM     25  C   UNL d   1      32.906  20.138 -21.705  0.00  0.00     0.002 A 
ENDBRANCH   5  20
TORSDOF 3
ENDMDL
MODEL 4
REMARK VINA RESULT:       0.3      2.500      4.375
REMARK  3 active torsions:
REMARK  status: ('A' for Active; 'I' for Inactive)
REMARK       I    between atoms: C_4  and  N_1 
REMARK    1  A    between atoms: C_7  and  C_3 
REMARK    2  A    between atoms: C_8  and  C_4 
REMARK    3  A    between atoms: C_13  and  C_5 
ROOT
ATOM      1  N   UNL d   1      32.850  19.055 -23.554  0.00  0.00    -0.194 N 
ATOM      2  N   UNL d   1      33.027  19.765 -23.195  0.00  0.00    -0.163 NA
ATOM      3  C   UNL d   1      32.589  18.529 -22.972  0.00  0.00     0.091 A 
ATOM      4  C   UNL d   1      32.916  18.872 -24.383  0.00  0.00     0.286 C 
ATOM      5  C   UNL d   1      32.876  19.681 -22.387  0.00  0.00     0.103 A 
ATOM      6  C   UNL d   1      32.607  18.921 -22.255  0.00  0.00     0.040 A 
ATOM      7  O   UNL d   1      33.188  19.464 -24.895  0.00  0.00    -0.265 OA
ENDROOT
BRANCH   3   8
ATOM      8  C   UNL d   1      32.351  17.743 -23.101  0.00  0.00     0.057 A 
ATOM      9  C   UNL d   1      31.566  17.574 -23.226  0.00  0.00     0.197 A 
ATOM     10  O   UNL d   1      31.009  18.166 -23.224  0.00  0.00    -0.286 OA
ATOM     11  C   UNL d   1      31.329  16.788 -23.355  0.00  0.00     0.042 A 
ATOM     12  C   UNL d   1      31.874  16.171 -23.360  0.00  0.00     0.003 A 
ATOM     13  C   UNL d   1      32.665  16.363 -23.233  0.00  0.00     0.000 A 
ATOM     14  C   UNL d   1      32.899  17.125 -23.107  0.00  0.00     0.005 A 
ENDBRANCH   3   8
BRANCH   4  15
ATOM     15  C   UNL d   1      32.720  18.143 -24.660  0.00  0.00     0.087 A 
ATOM     16  S   UNL d   1      33.240  17.556 -24.822  0.00  0.00    -0.082 SA
ATOM     17  C   UNL d   1      32.802  16.899 -25.096  0.00  0.00     0.036 A 
ATOM     18  C   UNL d   1      31.997  17.111 -25.094  0.00  0.00     0.008 A 
ATOM     19  C   UNL d   1      31.948  17.879 -24.825  0.00  0.00     0.012 A 
ENDBRANCH   4  15
BRANCH   5  20
ATOM     20  C   UNL d   1      32.981  20.267 -21.816  0.00  0.00     0.019 A 
ATOM     21  C   UNL d   1      33.132  20.052 -21.026  0.00  0.00     0.002 A 
ATOM     22  C   UNL d   1      33.237  20.637 -20.451  0.00  0.00     0.000 A 
ATOM     23  C   UNL d   1      33.193  21.436 -20.660  0.00  0.00     0.000 A 
ATOM     24  C   UNL d   1      33.042  21.652 -21.451  0.00  0.00     0.000 A 
ATOM     25  C   UNL d   1      32.937  21.065 -22.021  0.00  0.00     0.002 A 
ENDBRANCH   5  20
TORSDOF 3
ENDMDL
MODEL 5
REMARK VINA RESULT:       0.8      1.676      4.331
REMARK  3 active torsions:
REMARK  status: ('A' for Active; 'I' for Inactive)
REMARK       I    between atoms: C_4  and  N_1 
REMARK    1  A    between atoms: C_7  and  C_3 
REMARK    2  A    between atoms: C_8  and  C_4 
REMARK    3  A    between atoms: C_13  and  C_5 
ROOT
ATOM      1  N   UNL d   1      30.445  16.773 -24.524  0.00  0.00    -0.194 N 
ATOM      2  N   UNL d   1      31.194  17.049 -24.690  0.00  0.00    -0.163 NA
ATOM      3  C   UNL d   1      30.025  17.375 -24.143  0.00  0.00     0.091 A 
ATOM      4  C   UNL d   1      30.133  16.002 -24.707  0.00  0.00     0.286 C 
ATOM      5  C   UNL d   1      31.241  17.825 -24.410  0.00  0.00     0.103 A 
ATOM      6  C   UNL d   1      30.522  18.021 -24.075  0.00  0.00     0.040 A 
ATOM      7  O   UNL d   1      30.627  15.460 -25.093  0.00  0.00    -0.265 OA
ENDROOT
BRANCH   3   8
ATOM      8  C   UNL d   1      29.239  17.324 -23.878  0.00  0.00     0.057 A 
ATOM      9  C   UNL d   1      28.642  17.656 -24.320  0.00  0.00     0.197 A 
ATOM     10  O   UNL d   1      28.806  18.036 -25.018  0.00  0.00    -0.286 OA
ATOM     11  C   UNL d   1      27.856  17.605 -24.055  0.00  0.00     0.042 A 
ATOM     12  C   UNL d   1      27.665  17.225 -23.350  0.00  0.00     0.003 A 
ATOM     13  C   UNL d   1      28.284  16.895 -22.917  0.00  0.00     0.000 A 
ATOM     14  C   UNL d   1      29.048  16.942 -23.171  0.00  0.00     0.005 A 
ENDBRANCH   3   8
BRANCH   4  15
ATOM     15  C   UNL d   1      29.379  15.805 -24.509  0.00  0.00     0.087 A 
ATOM     16  S   UNL d   1      29.128  15.621 -23.771  0.00  0.00    -0.082 SA
ATOM     17  C   UNL d   1      28.310  15.453 -23.817  0.00  0.00     0.036 A 
ATOM     18  C   UNL d   1      28.076  15.543 -24.610  0.00  0.00     0.008 A 
ATOM     19  C   UNL d   1      28.736  15.760 -25.036  0.00  0.00     0.012 A 
ENDBRANCH   4  15
BRANCH   5  20
ATOM     20  C   UNL d   1      31.904  18.314 -24.463  0.00  0.00     0.019 A 
ATOM     21  C   UNL d   1      32.539  18.206 -23.934  0.00  0.00     0.002 A 
ATOM     22  C   UNL d   1      33.204  18.694 -23.984  0.00  0.00     0.000 A 
ATOM     23  C   UNL d   1      33.241  19.288 -24.558  0.00  0.00     0.000 A 
ATOM     24  C   UNL d   1      32.606  19.395 -25.087  0.00  0.00     0.000 A 
ATOM     25  C   UNL d   1      31.943  18.907 -25.034  0.00  0.00     0.002 A 
ENDBRANCH   5  20
TORSDOF 3
ENDMDL
