MODEL 1
REMARK VINA RESULT:      -3.1      0.000      0.000
REMARK  9 active torsions:
REMARK  status: ('A' for Active; 'I' for Inactive)
REMARK    1  A    between atoms: C_7  and  N_1 
REMARK    2  A    between atoms: C_8  and  C_3 
REMARK    3  A    between atoms: O_9  and  C_6 
REMARK    4  A    between atoms: O_19  and  C_8 
REMARK    5  A    between atoms: C_18  and  O_9 
REMARK    6  A    between atoms: C_10  and  C_18 
REMARK       I    between atoms: N_11  and  C_10 
REMARK    7  A    between atoms: C_14  and  N_11 
REMARK    8  A    between atoms: C_28  and  O_19 
REMARK    9  A    between atoms: O_23  and  C_20 
ROOT
ATOM      1  N   UNL d   1      32.852  21.710 -21.504  0.00  0.00    -0.194 N 
ATOM      2  N   UNL d   1      32.959  21.986 -22.276  0.00  0.00    -0.155 NA
ATOM      3  C   UNL d   1      33.066  21.449 -22.887  0.00  0.00     0.187 A 
ATOM      4  C   UNL d   1      32.854  20.899 -21.351  0.00  0.00     0.282 A 
ATOM      5  C   UNL d   1      32.963  20.365 -21.970  0.00  0.00     0.089 A 
ATOM      6  C   UNL d   1      33.068  20.638 -22.735  0.00  0.00     0.130 A 
ATOM      7  O   UNL d   1      32.748  20.624 -20.583  0.00  0.00    -0.265 OA
ENDROOT
BRANCH   6   8
ATOM      8  O   UNL d   1      33.176  20.104 -23.354  0.00  0.00    -0.298 OA
BRANCH   8   9
ATOM      9  C   UNL d   1      33.200  19.297 -23.206  0.00  0.00     0.185 C 
BRANCH   9  10
ATOM     10  C   UNL d   1      32.788  18.779 -23.702  0.00  0.00     0.304 C 
ATOM     11  N   UNL d   1      32.326  18.181 -23.375  0.00  0.00    -0.206 NA
ATOM     12  O   UNL d   1      32.841  18.862 -24.515  0.00  0.00    -0.263 OA
BRANCH  11  13
ATOM     13  C   UNL d   1      31.914  17.663 -23.871  0.00  0.00     0.087 A 
ATOM     14  C   UNL d   1      31.216  17.893 -24.220  0.00  0.00     0.043 A 
ATOM     15  C   UNL d   1      30.799  17.390 -24.712  0.00  0.00     0.096 A 
ATOM     16  C   UNL d   1      31.094  16.633 -24.857  0.00  0.00     0.024 A 
ATOM     17  C   UNL d   1      31.802  16.394 -24.505  0.00  0.00     0.004 A 
ATOM     18  C   UNL d   1      32.209  16.907 -24.015  0.00  0.00     0.019 A 
BRANCH  15  19
ATOM     19  O   UNL d   1      30.098  17.636 -25.055  0.00  0.00    -0.328 OA
ATOM     20  C   UNL d   1      29.458  17.113 -25.091  0.00  0.00     0.181 C 
ENDBRANCH  15  19
ENDBRANCH  11  13
ENDBRANCH   9  10
ENDBRANCH   8   9
ENDBRANCH   6   8
BRANCH   3  21
ATOM     21  C   UNL d   1      33.171  21.722 -23.651  0.00  0.00     0.322 C 
ATOM     22  O   UNL d   1      33.219  21.189 -24.279  0.00  0.00    -0.257 OA
BRANCH  21  23
ATOM     23  O   UNL d   1      33.231  22.535 -23.804  0.00  0.00    -0.270 OA
BRANCH  23  24
ATOM     24  C   UNL d   1      33.178  22.821 -24.570  0.00  0.00     0.126 C 
ATOM     25  C   UNL d   1      33.225  23.632 -24.713  0.00  0.00     0.029 C 
ENDBRANCH  23  24
ENDBRANCH  21  23
ENDBRANCH   3  21
BRANCH   1  26
ATOM     26  C   UNL d   1      32.745  22.246 -20.889  0.00  0.00     0.097 A 
ATOM     27  C   UNL d   1      32.243  22.906 -20.995  0.00  0.00     0.075 A 
ATOM     28 CL   UNL d   1      31.862  23.016 -21.710  0.00  0.00    -0.081 Cl
ATOM     29  C   UNL d   1      32.141  23.435 -20.378  0.00  0.00     0.013 A 
ATOM     30  C   UNL d   1      32.526  23.324 -19.656  0.00  0.00     0.001 A 
ATOM     31  C   UNL d   1      33.024  22.664 -19.557  0.00  0.00     0.002 A 
ATOM     32  C   UNL d   1      33.129  22.129 -20.176  0.00  0.00     0.020 A 
ENDBRANCH   1  26
TORSDOF 9
ENDMDL
