MODEL 1
REMARK VINA RESULT:      -9.0      0.000      0.000
REMARK  4 active torsions:
REMARK  status: ('A' for Active; 'I' for Inactive)
REMARK    1  A    between atoms: N_15  and  C_6 
REMARK    2  A    between atoms: N_14  and  C_19 
REMARK    3  A    between atoms: C_18  and  N_15 
REMARK    4  A    between atoms: C_19  and  C_18 
ROOT
ATOM      1  N   UNL d   1      51.937  33.329  53.048  0.00  0.00    -0.183 N 
ATOM      2  C   UNL d   1      52.675  33.150  53.369  0.00  0.00     0.169 A 
ATOM      3  C   UNL d   1      52.951  32.386  53.377  0.00  0.00     0.073 A 
ATOM      4  C   UNL d   1      52.484  31.799  53.061  0.00  0.00     0.185 A 
ATOM      5  N   UNL d   1      51.745  31.978  52.739  0.00  0.00    -0.142 NA
ATOM      6  C   UNL d   1      51.678  34.099  53.049  0.00  0.00     0.218 A 
ATOM      7  N   UNL d   1      53.136  33.747  53.684  0.00  0.00    -0.226 NA
ATOM      8  C   UNL d   1      53.681  32.210  53.695  0.00  0.00     0.007 A 
ATOM      9  N   UNL d   1      52.749  31.019  53.061  0.00  0.00    -0.225 NA
ATOM     10  C   UNL d   1      52.130  34.693  53.359  0.00  0.00     0.071 A 
ATOM     11  C   UNL d   1      53.957  31.444  53.702  0.00  0.00     0.019 A 
ATOM     12  C   UNL d   1      52.869  34.515  53.681  0.00  0.00     0.087 A 
ATOM     13  C   UNL d   1      53.488  30.841  53.382  0.00  0.00     0.083 A 
ATOM     14  C   UNL d   1      54.142  32.810  54.010  0.00  0.00     0.000 C 
ATOM     15  C   UNL d   1      53.345  35.137  54.007  0.00  0.00     0.021 C 
ATOM     16  C   UNL d   1      53.755  30.078  53.386  0.00  0.00     0.021 C 
ENDROOT
BRANCH   6  17
ATOM     17  N   UNL d   1      50.914  34.274  52.715  0.00  0.00    -0.379 NA
BRANCH  17  18
ATOM     18  C   UNL d   1      50.277  34.585  52.271  0.00  0.00     0.182 C 
BRANCH  18  19
ATOM     19  C   UNL d   1      49.513  34.610  52.626  0.00  0.00     0.116 C 
BRANCH  19  20
ATOM     20  N   UNL d   1      48.861  34.929  52.177  0.00  0.00    -0.297 N 
ATOM     21  C   UNL d   1      48.728  34.666  51.400  0.00  0.00     0.107 A 
ATOM     22  C   UNL d   1      48.073  34.987  50.949  0.00  0.00     0.142 A 
ATOM     23  O   UNL d   1      47.565  35.564  51.290  0.00  0.00    -0.300 OA
ATOM     24  C   UNL d   1      47.704  35.830  52.085  0.00  0.00     0.142 A 
ATOM     25  C   UNL d   1      48.353  35.514  52.533  0.00  0.00     0.107 A 
ENDBRANCH  19  20
ENDBRANCH  18  19
ENDBRANCH  17  18
ENDBRANCH   6  17
TORSDOF 4
ENDMDL
MODEL 2
REMARK VINA RESULT:      -8.5      1.008      2.265
REMARK  4 active torsions:
REMARK  status: ('A' for Active; 'I' for Inactive)
REMARK    1  A    between atoms: N_15  and  C_6 
REMARK    2  A    between atoms: N_14  and  C_19 
REMARK    3  A    between atoms: C_18  and  N_15 
REMARK    4  A    between atoms: C_19  and  C_18 
ROOT
ATOM      1  N   UNL d   1      52.272  33.570  53.606  0.00  0.00    -0.183 N 
ATOM      2  C   UNL d   1      52.919  33.083  53.763  0.00  0.00     0.169 A 
ATOM      3  C   UNL d   1      53.540  33.350  54.214  0.00  0.00     0.073 A 
ATOM      4  C   UNL d   1      53.511  34.108  54.508  0.00  0.00     0.185 A 
ATOM      5  N   UNL d   1      52.864  34.595  54.352  0.00  0.00    -0.142 NA
ATOM      6  C   UNL d   1      51.661  33.285  53.153  0.00  0.00     0.218 A 
ATOM      7  N   UNL d   1      52.938  32.323  53.462  0.00  0.00    -0.226 NA
ATOM      8  C   UNL d   1      54.180  32.868  54.369  0.00  0.00     0.007 A 
ATOM      9  N   UNL d   1      54.132  34.394  54.968  0.00  0.00    -0.225 NA
ATOM     10  C   UNL d   1      51.675  32.534  52.853  0.00  0.00     0.071 A 
ATOM     11  C   UNL d   1      54.802  33.136  54.821  0.00  0.00     0.019 A 
ATOM     12  C   UNL d   1      52.322  32.047  53.010  0.00  0.00     0.087 A 
ATOM     13  C   UNL d   1      54.779  33.907  55.124  0.00  0.00     0.083 A 
ATOM     14  C   UNL d   1      54.198  32.106  54.067  0.00  0.00     0.000 C 
ATOM     15  C   UNL d   1      52.339  31.259  52.696  0.00  0.00     0.021 C 
ATOM     16  C   UNL d   1      55.394  34.180  55.575  0.00  0.00     0.021 C 
ENDROOT
BRANCH   6  17
ATOM     17  N   UNL d   1      50.997  33.795  52.996  0.00  0.00    -0.379 NA
BRANCH  17  18
ATOM     18  C   UNL d   1      50.253  34.178  52.994  0.00  0.00     0.182 C 
BRANCH  18  19
ATOM     19  C   UNL d   1      49.985  34.534  52.278  0.00  0.00     0.116 C 
BRANCH  19  20
ATOM     20  N   UNL d   1      49.228  34.929  52.273  0.00  0.00    -0.297 N 
ATOM     21  C   UNL d   1      48.985  35.361  52.940  0.00  0.00     0.107 A 
ATOM     22  C   UNL d   1      48.224  35.757  52.934  0.00  0.00     0.142 A 
ATOM     23  O   UNL d   1      47.726  35.710  52.259  0.00  0.00    -0.300 OA
ATOM     24  C   UNL d   1      47.978  35.267  51.580  0.00  0.00     0.142 A 
ATOM     25  C   UNL d   1      48.732  34.874  51.583  0.00  0.00     0.107 A 
ENDBRANCH  19  20
ENDBRANCH  18  19
ENDBRANCH  17  18
ENDBRANCH   6  17
TORSDOF 4
ENDMDL
MODEL 3
REMARK VINA RESULT:      -6.5      9.737     10.814
REMARK  4 active torsions:
REMARK  status: ('A' for Active; 'I' for Inactive)
REMARK    1  A    between atoms: N_15  and  C_6 
REMARK    2  A    between atoms: N_14  and  C_19 
REMARK    3  A    between atoms: C_18  and  N_15 
REMARK    4  A    between atoms: C_19  and  C_18 
ROOT
ATOM      1  N   UNL d   1      44.820  28.640  57.819  0.00  0.00    -0.183 N 
ATOM      2  C   UNL d   1      44.794  29.458  57.926  0.00  0.00     0.169 A 
ATOM      3  C   UNL d   1      44.806  29.779  58.673  0.00  0.00     0.073 A 
ATOM      4  C   UNL d   1      44.843  29.277  59.312  0.00  0.00     0.185 A 
ATOM      5  N   UNL d   1      44.870  28.459  59.205  0.00  0.00    -0.142 NA
ATOM      6  C   UNL d   1      44.808  28.338  57.064  0.00  0.00     0.218 A 
ATOM      7  N   UNL d   1      44.757  29.952  57.276  0.00  0.00    -0.226 NA
ATOM      8  C   UNL d   1      44.780  30.587  58.779  0.00  0.00     0.007 A 
ATOM      9  N   UNL d   1      44.856  29.587  60.076  0.00  0.00    -0.225 NA
ATOM     10  C   UNL d   1      44.771  28.823  56.418  0.00  0.00     0.071 A 
ATOM     11  C   UNL d   1      44.791  30.908  59.527  0.00  0.00     0.019 A 
ATOM     12  C   UNL d   1      44.745  29.640  56.526  0.00  0.00     0.087 A 
ATOM     13  C   UNL d   1      44.830  30.404  60.183  0.00  0.00     0.083 A 
ATOM     14  C   UNL d   1      44.742  31.082  58.126  0.00  0.00     0.000 C 
ATOM     15  C   UNL d   1      44.706  30.151  55.849  0.00  0.00     0.021 C 
ATOM     16  C   UNL d   1      44.842  30.716  60.930  0.00  0.00     0.021 C 
ENDROOT
BRANCH   6  17
ATOM     17  N   UNL d   1      44.835  27.493  56.962  0.00  0.00    -0.379 NA
BRANCH  17  18
ATOM     18  C   UNL d   1      44.990  26.714  56.699  0.00  0.00     0.182 C 
BRANCH  18  19
ATOM     19  C   UNL d   1      44.345  26.173  56.644  0.00  0.00     0.116 C 
BRANCH  19  20
ATOM     20  N   UNL d   1      44.511  25.351  56.483  0.00  0.00    -0.297 N 
ATOM     21  C   UNL d   1      44.393  24.783  57.079  0.00  0.00     0.107 A 
ATOM     22  C   UNL d   1      44.560  23.957  56.917  0.00  0.00     0.142 A 
ATOM     23  O   UNL d   1      44.841  23.721  56.161  0.00  0.00    -0.300 OA
ATOM     24  C   UNL d   1      44.959  24.304  55.555  0.00  0.00     0.142 A 
ATOM     25  C   UNL d   1      44.795  25.123  55.713  0.00  0.00     0.107 A 
ENDBRANCH  19  20
ENDBRANCH  18  19
ENDBRANCH  17  18
ENDBRANCH   6  17
TORSDOF 4
ENDMDL
MODEL 4
REMARK VINA RESULT:      -6.0     10.544     11.451
REMARK  4 active torsions:
REMARK  status: ('A' for Active; 'I' for Inactive)
REMARK    1  A    between atoms: N_15  and  C_6 
REMARK    2  A    between atoms: N_14  and  C_19 
REMARK    3  A    between atoms: C_18  and  N_15 
REMARK    4  A    between atoms: C_19  and  C_18 
ROOT
ATOM      1  N   UNL d   1      44.772  27.183  57.918  0.00  0.00    -0.183 N 
ATOM      2  C   UNL d   1      44.744  27.918  58.293  0.00  0.00     0.169 A 
ATOM      3  C   UNL d   1      44.651  27.969  59.099  0.00  0.00     0.073 A 
ATOM      4  C   UNL d   1      44.586  27.280  59.529  0.00  0.00     0.185 A 
ATOM      5  N   UNL d   1      44.614  26.546  59.154  0.00  0.00    -0.142 NA
ATOM      6  C   UNL d   1      44.865  27.153  57.112  0.00  0.00     0.218 A 
ATOM      7  N   UNL d   1      44.810  28.602  57.852  0.00  0.00    -0.226 NA
ATOM      8  C   UNL d   1      44.623  28.695  59.470  0.00  0.00     0.007 A 
ATOM      9  N   UNL d   1      44.491  27.315  60.347  0.00  0.00    -0.225 NA
ATOM     10  C   UNL d   1      44.931  27.827  56.670  0.00  0.00     0.071 A 
ATOM     11  C   UNL d   1      44.531  28.745  60.277  0.00  0.00     0.019 A 
ATOM     12  C   UNL d   1      44.903  28.561  57.045  0.00  0.00     0.087 A 
ATOM     13  C   UNL d   1      44.464  28.049  60.722  0.00  0.00     0.083 A 
ATOM     14  C   UNL d   1      44.690  29.380  59.026  0.00  0.00     0.000 C 
ATOM     15  C   UNL d   1      44.972  29.270  56.584  0.00  0.00     0.021 C 
ATOM     16  C   UNL d   1      44.371  28.092  61.524  0.00  0.00     0.021 C 
ENDROOT
BRANCH   6  17
ATOM     17  N   UNL d   1      44.893  26.390  56.732  0.00  0.00    -0.379 NA
BRANCH  17  18
ATOM     18  C   UNL d   1      45.090  25.727  56.263  0.00  0.00     0.182 C 
BRANCH  18  19
ATOM     19  C   UNL d   1      44.496  25.146  56.117  0.00  0.00     0.116 C 
BRANCH  19  20
ATOM     20  N   UNL d   1      44.695  24.463  55.646  0.00  0.00    -0.297 N 
ATOM     21  C   UNL d   1      45.025  23.792  56.011  0.00  0.00     0.107 A 
ATOM     22  C   UNL d   1      45.225  23.106  55.537  0.00  0.00     0.142 A 
ATOM     23  O   UNL d   1      45.090  23.109  54.707  0.00  0.00    -0.300 OA
ATOM     24  C   UNL d   1      44.753  23.796  54.338  0.00  0.00     0.142 A 
ATOM     25  C   UNL d   1      44.553  24.477  54.806  0.00  0.00     0.107 A 
ENDBRANCH  19  20
ENDBRANCH  18  19
ENDBRANCH  17  18
ENDBRANCH   6  17
TORSDOF 4
ENDMDL
