MODEL 1
REMARK VINA RESULT:      11.0      0.000      0.000
REMARK  2 active torsions:
REMARK  status: ('A' for Active; 'I' for Inactive)
REMARK    1  A    between atoms: C_9  and  C_1 
REMARK    2  A    between atoms: N_7  and  C_2 
ROOT
ATOM      1  C   UNL d   1     -41.643-122.233 -53.400  0.00  0.00     0.022 A 
ATOM      2  C   UNL d   1     -41.577-122.643 -54.106  0.00  0.00     0.123 A 
ATOM      3  C   UNL d   1     -41.364-123.426 -54.107  0.00  0.00     0.295 A 
ATOM      4  C   UNL d   1     -41.490-122.621 -52.675  0.00  0.00     0.020 A 
ATOM      5  N   UNL d   1     -41.211-123.817 -53.402  0.00  0.00    -0.207 NA
ATOM      6  C   UNL d   1     -41.276-123.403 -52.676  0.00  0.00     0.085 A 
ATOM      7  C   UNL d   1     -41.556-122.210 -51.977  0.00  0.00     0.013 A 
ATOM      8  O   UNL d   1     -41.306-123.817 -54.852  0.00  0.00    -0.264 OA
ATOM      9  C   UNL d   1     -41.124-123.794 -51.979  0.00  0.00     0.020 A 
ATOM     10  C   UNL d   1     -41.403-122.598 -51.252  0.00  0.00     0.058 A 
ATOM     11  C   UNL d   1     -41.189-123.381 -51.253  0.00  0.00     0.013 A 
ATOM     12 CL   UNL d   1     -41.461-122.207 -50.512  0.00  0.00    -0.082 Cl
ENDROOT
BRANCH   1  13
ATOM     13  C   UNL d   1     -41.863-121.428 -53.399  0.00  0.00     0.002 A 
ATOM     14  C   UNL d   1     -42.649-121.217 -53.439  0.00  0.00     0.000 A 
ATOM     15  C   UNL d   1     -42.865-120.423 -53.439  0.00  0.00     0.000 A 
ATOM     16  C   UNL d   1     -42.279-119.843 -53.397  0.00  0.00     0.000 A 
ATOM     17  C   UNL d   1     -41.492-120.049 -53.357  0.00  0.00     0.000 A 
ATOM     18  C   UNL d   1     -41.272-120.854 -53.358  0.00  0.00     0.000 A 
ENDBRANCH   1  13
BRANCH   2  19
ATOM     19  N   UNL d   1     -41.729-122.255 -54.799  0.00  0.00    -0.296 N 
ATOM     20  C   UNL d   1     -42.500-122.265 -55.115  0.00  0.00     0.107 A 
ATOM     21  C   UNL d   1     -42.667-121.870 -55.825  0.00  0.00     0.142 A 
ATOM     22  O   UNL d   1     -42.058-121.462 -56.223  0.00  0.00    -0.300 OA
ATOM     23  C   UNL d   1     -41.298-121.453 -55.910  0.00  0.00     0.142 A 
ATOM     24  C   UNL d   1     -41.123-121.845 -55.200  0.00  0.00     0.107 A 
ENDBRANCH   2  19
TORSDOF 2
ENDMDL
MODEL 2
REMARK VINA RESULT:      11.7      1.128      1.677
REMARK  2 active torsions:
REMARK  status: ('A' for Active; 'I' for Inactive)
REMARK    1  A    between atoms: C_9  and  C_1 
REMARK    2  A    between atoms: N_7  and  C_2 
ROOT
ATOM      1  C   UNL d   1     -41.659-122.188 -51.955  0.00  0.00     0.022 A 
ATOM      2  C   UNL d   1     -41.729-122.602 -52.658  0.00  0.00     0.123 A 
ATOM      3  C   UNL d   1     -41.631-123.407 -52.671  0.00  0.00     0.295 A 
ATOM      4  C   UNL d   1     -41.486-122.595 -51.245  0.00  0.00     0.020 A 
ATOM      5  N   UNL d   1     -41.461-123.817 -51.981  0.00  0.00    -0.207 NA
ATOM      6  C   UNL d   1     -41.388-123.400 -51.258  0.00  0.00     0.085 A 
ATOM      7  C   UNL d   1     -41.418-122.181 -50.550  0.00  0.00     0.013 A 
ATOM      8  O   UNL d   1     -41.709-123.801 -53.413  0.00  0.00    -0.264 OA
ATOM      9  C   UNL d   1     -41.219-123.810 -50.576  0.00  0.00     0.020 A 
ATOM     10  C   UNL d   1     -41.245-122.588 -49.840  0.00  0.00     0.058 A 
ATOM     11  C   UNL d   1     -41.147-123.393 -49.853  0.00  0.00     0.013 A 
ATOM     12 CL   UNL d   1     -41.167-122.193 -49.103  0.00  0.00    -0.082 Cl
ENDROOT
BRANCH   1  13
ATOM     13  C   UNL d   1     -41.760-121.360 -51.942  0.00  0.00     0.002 A 
ATOM     14  C   UNL d   1     -41.123-120.867 -52.067  0.00  0.00     0.000 A 
ATOM     15  C   UNL d   1     -41.223-120.050 -52.054  0.00  0.00     0.000 A 
ATOM     16  C   UNL d   1     -41.972-119.735 -51.913  0.00  0.00     0.000 A 
ATOM     17  C   UNL d   1     -42.612-120.224 -51.787  0.00  0.00     0.000 A 
ATOM     18  C   UNL d   1     -42.512-121.053 -51.800  0.00  0.00     0.000 A 
ENDBRANCH   1  13
BRANCH   2  19
ATOM     19  N   UNL d   1     -41.896-122.194 -53.337  0.00  0.00    -0.296 N 
ATOM     20  C   UNL d   1     -41.273-121.951 -53.833  0.00  0.00     0.107 A 
ATOM     21  C   UNL d   1     -41.433-121.532 -54.531  0.00  0.00     0.142 A 
ATOM     22  O   UNL d   1     -42.222-121.356 -54.735  0.00  0.00    -0.300 OA
ATOM     23  C   UNL d   1     -42.835-121.597 -54.244  0.00  0.00     0.142 A 
ATOM     24  C   UNL d   1     -42.684-122.016 -53.544  0.00  0.00     0.107 A 
ENDBRANCH   2  19
TORSDOF 2
ENDMDL
MODEL 3
REMARK VINA RESULT:      12.2      3.122      4.730
REMARK  2 active torsions:
REMARK  status: ('A' for Active; 'I' for Inactive)
REMARK    1  A    between atoms: C_9  and  C_1 
REMARK    2  A    between atoms: N_7  and  C_2 
ROOT
ATOM      1  C   UNL d   1     -42.591-122.642 -50.464  0.00  0.00     0.022 A 
ATOM      2  C   UNL d   1     -42.214-123.057 -49.866  0.00  0.00     0.123 A 
ATOM      3  C   UNL d   1     -41.489-123.395 -49.997  0.00  0.00     0.295 A 
ATOM      4  C   UNL d   1     -42.228-122.567 -51.214  0.00  0.00     0.020 A 
ATOM      5  N   UNL d   1     -41.123-123.328 -50.729  0.00  0.00    -0.207 NA
ATOM      6  C   UNL d   1     -41.503-122.905 -51.345  0.00  0.00     0.085 A 
ATOM      7  C   UNL d   1     -42.605-122.155 -51.804  0.00  0.00     0.013 A 
ATOM      8  O   UNL d   1     -41.129-123.815 -49.360  0.00  0.00    -0.264 OA
ATOM      9  C   UNL d   1     -41.137-122.841 -52.069  0.00  0.00     0.020 A 
ATOM     10  C   UNL d   1     -42.242-122.079 -52.554  0.00  0.00     0.058 A 
ATOM     11  C   UNL d   1     -41.517-122.418 -52.685  0.00  0.00     0.013 A 
ATOM     12 CL   UNL d   1     -42.602-121.661 -53.187  0.00  0.00    -0.082 Cl
ENDROOT
BRANCH   1  13
ATOM     13  C   UNL d   1     -43.337-122.294 -50.329  0.00  0.00     0.002 A 
ATOM     14  C   UNL d   1     -43.388-121.530 -50.050  0.00  0.00     0.000 A 
ATOM     15  C   UNL d   1     -44.124-121.186 -49.918  0.00  0.00     0.000 A 
ATOM     16  C   UNL d   1     -44.809-121.622 -50.069  0.00  0.00     0.000 A 
ATOM     17  C   UNL d   1     -44.762-122.386 -50.348  0.00  0.00     0.000 A 
ATOM     18  C   UNL d   1     -44.016-122.735 -50.483  0.00  0.00     0.000 A 
ENDBRANCH   1  13
BRANCH   2  19
ATOM     19  N   UNL d   1     -42.577-123.121 -49.146  0.00  0.00    -0.296 N 
ATOM     20  C   UNL d   1     -43.118-123.741 -49.015  0.00  0.00     0.107 A 
ATOM     21  C   UNL d   1     -43.496-123.817 -48.281  0.00  0.00     0.142 A 
ATOM     22  O   UNL d   1     -43.333-123.270 -47.673  0.00  0.00    -0.300 OA
ATOM     23  C   UNL d   1     -42.799-122.659 -47.806  0.00  0.00     0.142 A 
ATOM     24  C   UNL d   1     -42.416-122.575 -48.537  0.00  0.00     0.107 A 
ENDBRANCH   2  19
TORSDOF 2
ENDMDL
MODEL 4
REMARK VINA RESULT:      13.7      1.339      2.331
REMARK  2 active torsions:
REMARK  status: ('A' for Active; 'I' for Inactive)
REMARK    1  A    between atoms: C_9  and  C_1 
REMARK    2  A    between atoms: N_7  and  C_2 
ROOT
ATOM      1  C   UNL d   1     -41.565-121.970 -52.936  0.00  0.00     0.022 A 
ATOM      2  C   UNL d   1     -41.491-121.205 -53.221  0.00  0.00     0.123 A 
ATOM      3  C   UNL d   1     -41.298-120.598 -52.719  0.00  0.00     0.295 A 
ATOM      4  C   UNL d   1     -41.440-122.127 -52.124  0.00  0.00     0.020 A 
ATOM      5  N   UNL d   1     -41.173-120.740 -51.921  0.00  0.00    -0.207 NA
ATOM      6  C   UNL d   1     -41.247-121.520 -51.622  0.00  0.00     0.085 A 
ATOM      7  C   UNL d   1     -41.515-122.887 -51.845  0.00  0.00     0.013 A 
ATOM      8  O   UNL d   1     -41.230-119.823 -53.047  0.00  0.00    -0.264 OA
ATOM      9  C   UNL d   1     -41.123-121.657 -50.830  0.00  0.00     0.020 A 
ATOM     10  C   UNL d   1     -41.390-123.044 -51.033  0.00  0.00     0.058 A 
ATOM     11  C   UNL d   1     -41.197-122.437 -50.531  0.00  0.00     0.013 A 
ATOM     12 CL   UNL d   1     -41.458-123.815 -50.709  0.00  0.00    -0.082 Cl
ENDROOT
BRANCH   1  13
ATOM     13  C   UNL d   1     -41.764-122.594 -53.452  0.00  0.00     0.002 A 
ATOM     14  C   UNL d   1     -41.189-123.110 -53.712  0.00  0.00     0.000 A 
ATOM     15  C   UNL d   1     -41.386-123.726 -54.221  0.00  0.00     0.000 A 
ATOM     16  C   UNL d   1     -42.169-123.817 -54.465  0.00  0.00     0.000 A 
ATOM     17  C   UNL d   1     -42.748-123.304 -54.206  0.00  0.00     0.000 A 
ATOM     18  C   UNL d   1     -42.548-122.679 -53.690  0.00  0.00     0.000 A 
ENDBRANCH   1  13
BRANCH   2  19
ATOM     19  N   UNL d   1     -41.614-121.069 -54.009  0.00  0.00    -0.296 N 
ATOM     20  C   UNL d   1     -41.133-121.452 -54.571  0.00  0.00     0.107 A 
ATOM     21  C   UNL d   1     -41.251-121.319 -55.381  0.00  0.00     0.142 A 
ATOM     22  O   UNL d   1     -41.853-120.800 -55.632  0.00  0.00    -0.300 OA
ATOM     23  C   UNL d   1     -42.326-120.423 -55.075  0.00  0.00     0.142 A 
ATOM     24  C   UNL d   1     -42.216-120.550 -54.263  0.00  0.00     0.107 A 
ENDBRANCH   2  19
TORSDOF 2
ENDMDL
