MODEL 1
REMARK VINA RESULT:      44.0      0.000      0.000
REMARK  1 active torsions:
REMARK  status: ('A' for Active; 'I' for Inactive)
REMARK       I    between atoms: N_2  and  C_1 
REMARK       I    between atoms: N_4  and  C_1 
REMARK    1  A    between atoms: C_5  and  N_3 
ROOT
ATOM      1  C   UNL d   1      61.063  49.652  50.538  0.00  0.00     0.340 C 
ATOM      2  N   UNL d   1      60.226  49.624  50.489  0.00  0.00    -0.254 N 
ATOM      3  N   UNL d   1      58.589  49.569  50.393  0.00  0.00    -0.301 N 
ATOM      4  N   UNL d   1      61.442  49.665  51.275  0.00  0.00    -0.253 N 
ATOM      5  O   UNL d   1      61.514  49.668  49.836  0.00  0.00    -0.245 OA
ATOM      6  C   UNL d   1      59.780  49.609  51.178  0.00  0.00     0.104 A 
ATOM      7  C   UNL d   1      59.864  49.612  49.739  0.00  0.00     0.104 A 
ATOM      8  C   UNL d   1      59.043  49.584  49.691  0.00  0.00     0.100 A 
ATOM      9  C   UNL d   1      58.959  49.581  51.130  0.00  0.00     0.100 A 
ATOM     10  O   UNL d   1      62.197  49.690  52.737  0.00  0.00    -0.300 OA
ATOM     11  C   UNL d   1      62.268  49.693  51.311  0.00  0.00     0.111 A 
ATOM     12  C   UNL d   1      60.993  49.650  51.964  0.00  0.00     0.111 A 
ATOM     13  C   UNL d   1      61.371  49.662  52.701  0.00  0.00     0.142 A 
ATOM     14  C   UNL d   1      62.643  49.705  52.044  0.00  0.00     0.142 A 
ENDROOT
BRANCH   3  15
ATOM     15  C   UNL d   1      57.763  49.541  50.352  0.00  0.00     0.064 A 
ATOM     16  C   UNL d   1      57.397  49.627  49.623  0.00  0.00     0.018 A 
ATOM     17  C   UNL d   1      56.572  49.599  49.578  0.00  0.00     0.001 A 
ATOM     18  C   UNL d   1      56.198  49.685  48.848  0.00  0.00     0.000 C 
ATOM     19  C   UNL d   1      56.121  49.485  50.269  0.00  0.00     0.000 A 
ATOM     20  C   UNL d   1      56.495  49.399  50.999  0.00  0.00     0.001 A 
ATOM     21  C   UNL d   1      57.321  49.428  51.039  0.00  0.00     0.018 A 
ATOM     22  C   UNL d   1      56.049  49.286  51.685  0.00  0.00     0.000 C 
ENDBRANCH   3  15
TORSDOF 1
ENDMDL
