MODEL 1
REMARK VINA RESULT:      19.9      0.000      0.000
REMARK  4 active torsions:
REMARK  status: ('A' for Active; 'I' for Inactive)
REMARK    1  A    between atoms: N_14  and  S_1 
REMARK    2  A    between atoms: C_5  and  C_17 
REMARK    3  A    between atoms: C_18  and  N_14 
REMARK    4  A    between atoms: C_17  and  C_18 
ROOT
ATOM      1  N   UNL d   1      44.752 -16.163  44.953  0.00  0.00    -0.208 NA
ATOM      2  C   UNL d   1      45.202 -16.854  44.858  0.00  0.00     0.279 A 
ATOM      3  C   UNL d   1      45.105 -15.416  44.856  0.00  0.00     0.085 A 
ATOM      4  C   UNL d   1      46.004 -16.800  44.668  0.00  0.00     0.059 A 
ATOM      5  C   UNL d   1      46.361 -16.056  44.570  0.00  0.00     0.006 A 
ATOM      6  C   UNL d   1      45.908 -15.371  44.665  0.00  0.00     0.018 A 
ATOM      7  C   UNL d   1      44.656 -14.731  44.950  0.00  0.00     0.019 A 
ATOM      8  C   UNL d   1      46.261 -14.623  44.569  0.00  0.00     0.002 A 
ATOM      9  C   UNL d   1      45.010 -13.991  44.854  0.00  0.00     0.002 A 
ATOM     10  C   UNL d   1      45.812 -13.938  44.663  0.00  0.00     0.000 A 
ATOM     11  O   UNL d   1      44.848 -17.593  44.955  0.00  0.00    -0.265 OA
ATOM     12  C   UNL d   1      46.166 -13.199  44.567  0.00  0.00     0.000 C 
ATOM     13  C   UNL d   1      44.560 -13.306  44.948  0.00  0.00     0.000 C 
ENDROOT
BRANCH   4  14
ATOM     14  C   UNL d   1      46.453 -17.486  44.573  0.00  0.00     0.026 C 
BRANCH  14  15
ATOM     15  C   UNL d   1      46.214 -18.062  44.034  0.00  0.00     0.112 C 
BRANCH  15  16
ATOM     16  N   UNL d   1      46.637 -18.169  43.334  0.00  0.00    -0.160 NA
BRANCH  16  17
ATOM     17  S   UNL d   1      46.590 -18.893  42.924  0.00  0.00     0.266 S 
ATOM     18  O   UNL d   1      46.647 -18.310  42.337  0.00  0.00    -0.203 OA
ATOM     19  O   UNL d   1      46.558 -19.475  42.344  0.00  0.00    -0.203 OA
ATOM     20  C   UNL d   1      46.535 -19.455  43.529  0.00  0.00     0.165 C 
ENDBRANCH  16  17
ENDBRANCH  15  16
ENDBRANCH  14  15
ENDBRANCH   4  14
TORSDOF 4
ENDMDL
