MODEL 1
REMARK VINA RESULT:      -3.0      0.000      0.000
REMARK  4 active torsions:
REMARK  status: ('A' for Active; 'I' for Inactive)
REMARK    1  A    between atoms: N_3  and  C_1 
REMARK    2  A    between atoms: C_6  and  C_2 
REMARK    3  A    between atoms: C_13  and  N_8 
REMARK    4  A    between atoms: C_16  and  C_13 
ROOT
ATOM      1  N   UNL d   1      33.191  20.541 -22.504  0.00  0.00    -0.286 N 
ATOM      2  N   UNL d   1      33.219  19.099 -23.333  0.00  0.00    -0.300 N 
ATOM      3  C   UNL d   1      33.224  20.540 -23.328  0.00  0.00     0.101 A 
ATOM      4  C   UNL d   1      33.171  19.823 -22.081  0.00  0.00     0.101 A 
ATOM      5  C   UNL d   1      33.185  19.111 -22.494  0.00  0.00     0.100 A 
ATOM      6  C   UNL d   1      33.238  19.820 -23.742  0.00  0.00     0.100 A 
ENDROOT
BRANCH   1   7
ATOM      7  C   UNL d   1      33.187  21.353 -22.328  0.00  0.00     0.149 A 
ATOM      8  C   UNL d   1      33.174  21.595 -21.529  0.00  0.00     0.056 A 
ATOM      9  C   UNL d   1      33.171  22.399 -21.354  0.00  0.00     0.006 A 
ATOM     10  C   UNL d   1      33.158  22.660 -20.564  0.00  0.00     0.000 C 
ATOM     11  C   UNL d   1      33.180  22.958 -21.975  0.00  0.00     0.019 A 
ATOM     12  C   UNL d   1      33.193  22.705 -22.767  0.00  0.00     0.083 A 
ATOM     13  N   UNL d   1      33.196  21.901 -22.938  0.00  0.00    -0.228 NA
ATOM     14  C   UNL d   1      33.202  23.263 -23.380  0.00  0.00     0.021 C 
BRANCH   8  15
ATOM     15  C   UNL d   1      33.165  21.040 -20.924  0.00  0.00     0.125 C 
ATOM     16  N   UNL d   1      32.847  21.234 -20.190  0.00  0.00    -0.146 N 
ENDBRANCH   8  15
ENDBRANCH   1   7
BRANCH   2  17
ATOM     17  C   UNL d   1      33.232  18.381 -23.737  0.00  0.00     0.080 C 
BRANCH  17  18
ATOM     18  C   UNL d   1      32.530  17.973 -23.885  0.00  0.00     0.018 A 
ATOM     19  C   UNL d   1      32.062  18.186 -24.526  0.00  0.00     0.002 A 
ATOM     20  C   UNL d   1      31.361  17.778 -24.674  0.00  0.00     0.000 A 
ATOM     21  C   UNL d   1      31.137  17.164 -24.180  0.00  0.00     0.000 A 
ATOM     22  C   UNL d   1      31.605  16.948 -23.535  0.00  0.00     0.000 A 
ATOM     23  C   UNL d   1      32.306  17.359 -23.391  0.00  0.00     0.002 A 
ENDBRANCH  17  18
ENDBRANCH   2  17
TORSDOF 4
ENDMDL
MODEL 2
REMARK VINA RESULT:      -2.7      1.898      5.195
REMARK  4 active torsions:
REMARK  status: ('A' for Active; 'I' for Inactive)
REMARK    1  A    between atoms: N_3  and  C_1 
REMARK    2  A    between atoms: C_6  and  C_2 
REMARK    3  A    between atoms: C_13  and  N_8 
REMARK    4  A    between atoms: C_16  and  C_13 
ROOT
ATOM      1  N   UNL d   1      32.500  21.989 -21.121  0.00  0.00    -0.286 N 
ATOM      2  N   UNL d   1      32.485  23.135 -19.916  0.00  0.00    -0.300 N 
ATOM      3  C   UNL d   1      33.176  22.435 -20.969  0.00  0.00     0.101 A 
ATOM      4  C   UNL d   1      31.806  22.108 -20.675  0.00  0.00     0.101 A 
ATOM      5  C   UNL d   1      31.801  22.676 -20.079  0.00  0.00     0.100 A 
ATOM      6  C   UNL d   1      33.169  23.007 -20.366  0.00  0.00     0.100 A 
ENDROOT
BRANCH   1   7
ATOM      7  C   UNL d   1      32.747  21.501 -21.746  0.00  0.00     0.149 A 
ATOM      8  C   UNL d   1      32.866  20.686 -21.603  0.00  0.00     0.056 A 
ATOM      9  C   UNL d   1      33.110  20.203 -22.222  0.00  0.00     0.006 A 
ATOM     10  C   UNL d   1      33.233  19.389 -22.099  0.00  0.00     0.000 C 
ATOM     11  C   UNL d   1      33.236  20.531 -22.980  0.00  0.00     0.019 A 
ATOM     12  C   UNL d   1      33.115  21.343 -23.111  0.00  0.00     0.083 A 
ATOM     13  N   UNL d   1      32.870  21.823 -22.490  0.00  0.00    -0.228 NA
ATOM     14  C   UNL d   1      33.241  21.665 -23.864  0.00  0.00     0.021 C 
BRANCH   8  15
ATOM     15  C   UNL d   1      32.740  20.371 -20.855  0.00  0.00     0.125 C 
ATOM     16  N   UNL d   1      33.225  19.767 -20.575  0.00  0.00    -0.146 N 
ENDBRANCH   8  15
ENDBRANCH   1   7
BRANCH   2  17
ATOM     17  C   UNL d   1      32.471  23.701 -19.317  0.00  0.00     0.080 C 
BRANCH  17  18
ATOM     18  C   UNL d   1      32.533  23.473 -18.526  0.00  0.00     0.018 A 
ATOM     19  C   UNL d   1      33.179  23.031 -18.279  0.00  0.00     0.002 A 
ATOM     20  C   UNL d   1      33.241  22.803 -17.489  0.00  0.00     0.000 A 
ATOM     21  C   UNL d   1      32.657  23.021 -16.957  0.00  0.00     0.000 A 
ATOM     22  C   UNL d   1      32.006  23.466 -17.203  0.00  0.00     0.000 A 
ATOM     23  C   UNL d   1      31.948  23.692 -17.995  0.00  0.00     0.002 A 
ENDBRANCH  17  18
ENDBRANCH   2  17
TORSDOF 4
ENDMDL
MODEL 3
REMARK VINA RESULT:      -2.3      1.318      4.991
REMARK  4 active torsions:
REMARK  status: ('A' for Active; 'I' for Inactive)
REMARK    1  A    between atoms: N_3  and  C_1 
REMARK    2  A    between atoms: C_6  and  C_2 
REMARK    3  A    between atoms: C_13  and  N_8 
REMARK    4  A    between atoms: C_16  and  C_13 
ROOT
ATOM      1  N   UNL d   1      32.430  18.236 -23.644  0.00  0.00    -0.286 N 
ATOM      2  N   UNL d   1      32.974  19.679 -23.023  0.00  0.00    -0.300 N 
ATOM      3  C   UNL d   1      32.879  18.243 -22.954  0.00  0.00     0.101 A 
ATOM      4  C   UNL d   1      32.245  18.948 -24.035  0.00  0.00     0.101 A 
ATOM      5  C   UNL d   1      32.515  19.662 -23.725  0.00  0.00     0.100 A 
ATOM      6  C   UNL d   1      33.152  18.964 -22.643  0.00  0.00     0.100 A 
ENDROOT
BRANCH   1   7
ATOM      7  C   UNL d   1      32.282  17.426 -23.751  0.00  0.00     0.149 A 
ATOM      8  C   UNL d   1      31.588  17.188 -24.152  0.00  0.00     0.056 A 
ATOM      9  C   UNL d   1      31.442  16.386 -24.257  0.00  0.00     0.006 A 
ATOM     10  C   UNL d   1      30.756  16.130 -24.654  0.00  0.00     0.000 C 
ATOM     11  C   UNL d   1      31.984  15.823 -23.964  0.00  0.00     0.019 A 
ATOM     12  C   UNL d   1      32.672  16.071 -23.566  0.00  0.00     0.083 A 
ATOM     13  N   UNL d   1      32.815  16.874 -23.462  0.00  0.00    -0.228 NA
ATOM     14  C   UNL d   1      33.208  15.509 -23.276  0.00  0.00     0.021 C 
BRANCH   8  15
ATOM     15  C   UNL d   1      31.059  17.748 -24.437  0.00  0.00     0.125 C 
ATOM     16  N   UNL d   1      30.291  17.526 -24.636  0.00  0.00    -0.146 N 
ENDBRANCH   8  15
ENDBRANCH   1   7
BRANCH   2  17
ATOM     17  C   UNL d   1      33.241  20.398 -22.720  0.00  0.00     0.080 C 
BRANCH  17  18
ATOM     18  C   UNL d   1      32.977  20.664 -21.984  0.00  0.00     0.018 A 
ATOM     19  C   UNL d   1      33.204  20.267 -21.302  0.00  0.00     0.002 A 
ATOM     20  C   UNL d   1      32.940  20.534 -20.567  0.00  0.00     0.000 A 
ATOM     21  C   UNL d   1      32.454  21.192 -20.525  0.00  0.00     0.000 A 
ATOM     22  C   UNL d   1      32.225  21.593 -21.210  0.00  0.00     0.000 A 
ATOM     23  C   UNL d   1      32.492  21.323 -21.943  0.00  0.00     0.002 A 
ENDBRANCH  17  18
ENDBRANCH   2  17
TORSDOF 4
ENDMDL
MODEL 4
REMARK VINA RESULT:      -1.8      1.689      3.253
REMARK  4 active torsions:
REMARK  status: ('A' for Active; 'I' for Inactive)
REMARK    1  A    between atoms: N_3  and  C_1 
REMARK    2  A    between atoms: C_6  and  C_2 
REMARK    3  A    between atoms: C_13  and  N_8 
REMARK    4  A    between atoms: C_16  and  C_13 
ROOT
ATOM      1  N   UNL d   1      32.269  18.304 -23.824  0.00  0.00    -0.286 N 
ATOM      2  N   UNL d   1      31.728  16.774 -24.185  0.00  0.00    -0.300 N 
ATOM      3  C   UNL d   1      32.323  17.705 -23.261  0.00  0.00     0.101 A 
ATOM      4  C   UNL d   1      31.944  18.149 -24.576  0.00  0.00     0.101 A 
ATOM      5  C   UNL d   1      31.677  17.390 -24.752  0.00  0.00     0.100 A 
ATOM      6  C   UNL d   1      32.053  16.940 -23.441  0.00  0.00     0.100 A 
ENDROOT
BRANCH   1   7
ATOM      7  C   UNL d   1      32.593  18.955 -23.423  0.00  0.00     0.149 A 
ATOM      8  C   UNL d   1      32.750  19.658 -23.847  0.00  0.00     0.056 A 
ATOM      9  C   UNL d   1      33.070  20.302 -23.449  0.00  0.00     0.006 A 
ATOM     10  C   UNL d   1      33.233  21.011 -23.854  0.00  0.00     0.000 C 
ATOM     11  C   UNL d   1      33.234  20.245 -22.632  0.00  0.00     0.019 A 
ATOM     12  C   UNL d   1      33.075  19.541 -22.220  0.00  0.00     0.083 A 
ATOM     13  N   UNL d   1      32.754  18.899 -22.620  0.00  0.00    -0.228 NA
ATOM     14  C   UNL d   1      33.239  19.489 -21.409  0.00  0.00     0.021 C 
BRANCH   8  15
ATOM     15  C   UNL d   1      32.586  19.706 -24.650  0.00  0.00     0.125 C 
ATOM     16  N   UNL d   1      32.850  20.352 -25.087  0.00  0.00    -0.146 N 
ENDBRANCH   8  15
ENDBRANCH   1   7
BRANCH   2  17
ATOM     17  C   UNL d   1      31.457  16.017 -24.370  0.00  0.00     0.080 C 
BRANCH  17  18
ATOM     18  C   UNL d   1      30.653  15.838 -24.322  0.00  0.00     0.018 A 
ATOM     19  C   UNL d   1      30.316  15.671 -23.592  0.00  0.00     0.002 A 
ATOM     20  C   UNL d   1      29.512  15.492 -23.544  0.00  0.00     0.000 A 
ATOM     21  C   UNL d   1      29.057  15.484 -24.226  0.00  0.00     0.000 A 
ATOM     22  C   UNL d   1      29.394  15.652 -24.961  0.00  0.00     0.000 A 
ATOM     23  C   UNL d   1      30.199  15.830 -25.004  0.00  0.00     0.002 A 
ENDBRANCH  17  18
ENDBRANCH   2  17
TORSDOF 4
ENDMDL
MODEL 5
REMARK VINA RESULT:      -1.6      1.033      4.673
REMARK  4 active torsions:
REMARK  status: ('A' for Active; 'I' for Inactive)
REMARK    1  A    between atoms: N_3  and  C_1 
REMARK    2  A    between atoms: C_6  and  C_2 
REMARK    3  A    between atoms: C_13  and  N_8 
REMARK    4  A    between atoms: C_16  and  C_13 
ROOT
ATOM      1  N   UNL d   1      33.091  19.922 -22.723  0.00  0.00    -0.286 N 
ATOM      2  N   UNL d   1      33.190  21.140 -21.595  0.00  0.00    -0.300 N 
ATOM      3  C   UNL d   1      33.041  19.744 -21.920  0.00  0.00     0.101 A 
ATOM      4  C   UNL d   1      33.191  20.710 -22.976  0.00  0.00     0.101 A 
ATOM      5  C   UNL d   1      33.240  21.311 -22.415  0.00  0.00     0.100 A 
ATOM      6  C   UNL d   1      33.090  20.353 -21.356  0.00  0.00     0.100 A 
ENDROOT
BRANCH   1   7
ATOM      7  C   UNL d   1      33.017  19.174 -23.075  0.00  0.00     0.149 A 
ATOM      8  C   UNL d   1      33.005  19.116 -23.909  0.00  0.00     0.056 A 
ATOM      9  C   UNL d   1      32.932  18.375 -24.257  0.00  0.00     0.006 A 
ATOM     10  C   UNL d   1      32.917  18.297 -25.086  0.00  0.00     0.000 C 
ATOM     11  C   UNL d   1      32.871  17.694 -23.777  0.00  0.00     0.019 A 
ATOM     12  C   UNL d   1      32.885  17.763 -22.948  0.00  0.00     0.083 A 
ATOM     13  N   UNL d   1      32.958  18.506 -22.603  0.00  0.00    -0.228 NA
ATOM     14  C   UNL d   1      32.825  17.086 -22.475  0.00  0.00     0.021 C 
BRANCH   8  15
ATOM     15  C   UNL d   1      33.064  19.789 -24.375  0.00  0.00     0.125 C 
ATOM     16  N   UNL d   1      32.557  19.894 -25.015  0.00  0.00    -0.146 N 
ENDBRANCH   8  15
ENDBRANCH   1   7
BRANCH   2  17
ATOM     17  C   UNL d   1      33.240  21.748 -21.041  0.00  0.00     0.080 C 
BRANCH  17  18
ATOM     18  C   UNL d   1      32.709  22.379 -21.066  0.00  0.00     0.018 A 
ATOM     19  C   UNL d   1      32.860  23.021 -21.556  0.00  0.00     0.002 A 
ATOM     20  C   UNL d   1      32.329  23.651 -21.580  0.00  0.00     0.000 A 
ATOM     21  C   UNL d   1      31.654  23.631 -21.115  0.00  0.00     0.000 A 
ATOM     22  C   UNL d   1      31.500  22.987 -20.622  0.00  0.00     0.000 A 
ATOM     23  C   UNL d   1      32.034  22.359 -20.600  0.00  0.00     0.002 A 
ENDBRANCH  17  18
ENDBRANCH   2  17
TORSDOF 4
ENDMDL
