MODEL 1
REMARK VINA RESULT:      -7.5      0.000      0.000
REMARK  3 active torsions:
REMARK  status: ('A' for Active; 'I' for Inactive)
REMARK    1  A    between atoms: N_5  and  S_1 
REMARK    2  A    between atoms: C_6  and  S_1 
REMARK    3  A    between atoms: C_2  and  C_9 
ROOT
ATOM      1  C   UNL d   1     -48.014  13.728  22.460  0.00  0.00     0.104 A 
ATOM      2  C   UNL d   1     -46.740  13.218  22.851  0.00  0.00     0.025 A 
ATOM      3  C   UNL d   1     -47.510  13.087  22.600  0.00  0.00     0.015 A 
ATOM      4  C   UNL d   1     -47.740  14.503  22.574  0.00  0.00     0.013 A 
ATOM      5  C   UNL d   1     -46.465  13.993  22.965  0.00  0.00     0.002 A 
ATOM      6  C   UNL d   1     -46.969  14.638  22.826  0.00  0.00     0.001 A 
ENDROOT
BRANCH   2   7
ATOM      7  C   UNL d   1     -46.236  12.577  22.991  0.00  0.00     0.111 A 
ATOM      8  N   UNL d   1     -45.451  12.533  22.769  0.00  0.00    -0.239 NA
ATOM      9  C   UNL d   1     -45.161  11.804  23.016  0.00  0.00     0.088 A 
ATOM     10  C   UNL d   1     -44.426  11.453  22.951  0.00  0.00     0.020 A 
ATOM     11  C   UNL d   1     -45.774  11.399  23.393  0.00  0.00     0.049 A 
ATOM     12  C   UNL d   1     -44.293  10.705  23.255  0.00  0.00     0.002 A 
ATOM     13  C   UNL d   1     -44.905  10.300  23.632  0.00  0.00     0.001 A 
ATOM     14  C   UNL d   1     -45.649  10.655  23.698  0.00  0.00     0.008 A 
ATOM     15  S   UNL d   1     -46.441  11.881  23.377  0.00  0.00    -0.066 SA
ENDBRANCH   2   7
BRANCH   1  16
ATOM     16  S   UNL d   1     -48.788  13.598  22.209  0.00  0.00     0.271 S 
ATOM     17  O   UNL d   1     -49.107  13.666  22.936  0.00  0.00    -0.200 OA
ATOM     18  O   UNL d   1     -48.376  13.522  21.350  0.00  0.00    -0.200 OA
BRANCH  16  19
ATOM     19  N   UNL d   1     -49.590  13.484  22.086  0.00  0.00    -0.229 N 
ATOM     20  C   UNL d   1     -50.209  13.763  22.564  0.00  0.00     0.092 A 
ATOM     21  C   UNL d   1     -50.924  13.516  22.230  0.00  0.00     0.021 A 
ATOM     22  C   UNL d   1     -50.760  13.087  21.551  0.00  0.00     0.021 A 
ATOM     23  C   UNL d   1     -49.938  13.066  21.461  0.00  0.00     0.092 A 
ENDBRANCH  16  19
ENDBRANCH   1  16
TORSDOF 3
ENDMDL
MODEL 2
REMARK VINA RESULT:      -7.3      1.491      4.734
REMARK  3 active torsions:
REMARK  status: ('A' for Active; 'I' for Inactive)
REMARK    1  A    between atoms: N_5  and  S_1 
REMARK    2  A    between atoms: C_6  and  S_1 
REMARK    3  A    between atoms: C_2  and  C_9 
ROOT
ATOM      1  C   UNL d   1     -46.918  12.443  23.032  0.00  0.00     0.104 A 
ATOM      2  C   UNL d   1     -48.290  12.817  23.153  0.00  0.00     0.025 A 
ATOM      3  C   UNL d   1     -47.530  12.983  22.893  0.00  0.00     0.015 A 
ATOM      4  C   UNL d   1     -47.076  11.735  23.435  0.00  0.00     0.013 A 
ATOM      5  C   UNL d   1     -48.448  12.109  23.556  0.00  0.00     0.002 A 
ATOM      6  C   UNL d   1     -47.837  11.565  23.697  0.00  0.00     0.001 A 
ENDROOT
BRANCH   2   7
ATOM      7  C   UNL d   1     -48.902  13.358  23.014  0.00  0.00     0.111 A 
ATOM      8  N   UNL d   1     -48.961  14.102  23.343  0.00  0.00    -0.239 NA
ATOM      9  C   UNL d   1     -49.650  14.448  23.057  0.00  0.00     0.088 A 
ATOM     10  C   UNL d   1     -49.995  15.178  23.188  0.00  0.00     0.020 A 
ATOM     11  C   UNL d   1     -50.015  13.910  22.549  0.00  0.00     0.049 A 
ATOM     12  C   UNL d   1     -50.699  15.377  22.820  0.00  0.00     0.002 A 
ATOM     13  C   UNL d   1     -51.064  14.839  22.312  0.00  0.00     0.001 A 
ATOM     14  C   UNL d   1     -50.715  14.102  22.180  0.00  0.00     0.008 A 
ATOM     15  S   UNL d   1     -49.549  13.232  22.523  0.00  0.00    -0.066 SA
ENDBRANCH   2   7
BRANCH   1  16
ATOM     16  S   UNL d   1     -46.154  12.608  22.772  0.00  0.00     0.271 S 
ATOM     17  O   UNL d   1     -46.312  12.457  22.005  0.00  0.00    -0.200 OA
ATOM     18  O   UNL d   1     -45.997  12.781  23.698  0.00  0.00    -0.200 OA
BRANCH  16  19
ATOM     19  N   UNL d   1     -45.441  12.742  22.391  0.00  0.00    -0.229 N 
ATOM     20  C   UNL d   1     -45.179  13.461  22.067  0.00  0.00     0.092 A 
ATOM     21  C   UNL d   1     -44.430  13.338  21.740  0.00  0.00     0.021 A 
ATOM     22  C   UNL d   1     -44.220  12.554  21.856  0.00  0.00     0.021 A 
ATOM     23  C   UNL d   1     -44.842  12.186  22.257  0.00  0.00     0.092 A 
ENDBRANCH  16  19
ENDBRANCH   1  16
TORSDOF 3
ENDMDL
MODEL 3
REMARK VINA RESULT:      -6.6      8.142      9.227
REMARK  3 active torsions:
REMARK  status: ('A' for Active; 'I' for Inactive)
REMARK    1  A    between atoms: N_5  and  S_1 
REMARK    2  A    between atoms: C_6  and  S_1 
REMARK    3  A    between atoms: C_2  and  C_9 
ROOT
ATOM      1  C   UNL d   1     -39.877  14.622  18.670  0.00  0.00     0.104 A 
ATOM      2  C   UNL d   1     -39.927  14.807  20.084  0.00  0.00     0.025 A 
ATOM      3  C   UNL d   1     -39.572  14.472  19.425  0.00  0.00     0.015 A 
ATOM      4  C   UNL d   1     -40.541  15.112  18.582  0.00  0.00     0.013 A 
ATOM      5  C   UNL d   1     -40.591  15.297  19.996  0.00  0.00     0.002 A 
ATOM      6  C   UNL d   1     -40.899  15.450  19.241  0.00  0.00     0.001 A 
ENDROOT
BRANCH   2   7
ATOM      7  C   UNL d   1     -39.623  14.658  20.839  0.00  0.00     0.111 A 
ATOM      8  N   UNL d   1     -39.571  13.924  21.193  0.00  0.00    -0.239 NA
ATOM      9  C   UNL d   1     -39.237  14.027  21.937  0.00  0.00     0.088 A 
ATOM     10  C   UNL d   1     -39.052  13.502  22.536  0.00  0.00     0.020 A 
ATOM     11  C   UNL d   1     -39.083  14.832  22.040  0.00  0.00     0.049 A 
ATOM     12  C   UNL d   1     -38.715  13.767  23.233  0.00  0.00     0.002 A 
ATOM     13  C   UNL d   1     -38.561  14.572  23.336  0.00  0.00     0.001 A 
ATOM     14  C   UNL d   1     -38.749  15.103  22.730  0.00  0.00     0.008 A 
ATOM     15  S   UNL d   1     -39.323  15.223  21.356  0.00  0.00    -0.066 SA
ENDBRANCH   2   7
BRANCH   1  16
ATOM     16  S   UNL d   1     -39.522  14.286  18.007  0.00  0.00     0.271 S 
ATOM     17  O   UNL d   1     -38.907  14.793  17.997  0.00  0.00    -0.200 OA
ATOM     18  O   UNL d   1     -40.270  13.694  18.045  0.00  0.00    -0.200 OA
BRANCH  16  19
ATOM     19  N   UNL d   1     -39.075  14.046  17.363  0.00  0.00    -0.229 N 
ATOM     20  C   UNL d   1     -38.664  13.328  17.285  0.00  0.00     0.092 A 
ATOM     21  C   UNL d   1     -38.292  13.323  16.547  0.00  0.00     0.021 A 
ATOM     22  C   UNL d   1     -38.465  14.027  16.164  0.00  0.00     0.021 A 
ATOM     23  C   UNL d   1     -38.947  14.473  16.666  0.00  0.00     0.092 A 
ENDBRANCH  16  19
ENDBRANCH   1  16
TORSDOF 3
ENDMDL
MODEL 4
REMARK VINA RESULT:      -6.4      7.953      9.474
REMARK  3 active torsions:
REMARK  status: ('A' for Active; 'I' for Inactive)
REMARK    1  A    between atoms: N_5  and  S_1 
REMARK    2  A    between atoms: C_6  and  S_1 
REMARK    3  A    between atoms: C_2  and  C_9 
ROOT
ATOM      1  C   UNL d   1     -39.910  15.219  20.929  0.00  0.00     0.104 A 
ATOM      2  C   UNL d   1     -40.064  15.444  19.529  0.00  0.00     0.025 A 
ATOM      3  C   UNL d   1     -39.632  15.137  20.154  0.00  0.00     0.015 A 
ATOM      4  C   UNL d   1     -40.627  15.612  21.072  0.00  0.00     0.013 A 
ATOM      5  C   UNL d   1     -40.781  15.838  19.671  0.00  0.00     0.002 A 
ATOM      6  C   UNL d   1     -41.063  15.921  20.447  0.00  0.00     0.001 A 
ENDROOT
BRANCH   2   7
ATOM      7  C   UNL d   1     -39.786  15.363  18.753  0.00  0.00     0.111 A 
ATOM      8  N   UNL d   1     -39.317  15.902  18.359  0.00  0.00    -0.239 NA
ATOM      9  C   UNL d   1     -39.171  15.603  17.606  0.00  0.00     0.088 A 
ATOM     10  C   UNL d   1     -38.743  15.892  16.972  0.00  0.00     0.020 A 
ATOM     11  C   UNL d   1     -39.554  14.875  17.541  0.00  0.00     0.049 A 
ATOM     12  C   UNL d   1     -38.692  15.465  16.275  0.00  0.00     0.002 A 
ATOM     13  C   UNL d   1     -39.075  14.737  16.210  0.00  0.00     0.001 A 
ATOM     14  C   UNL d   1     -39.508  14.445  16.851  0.00  0.00     0.008 A 
ATOM     15  S   UNL d   1     -39.936  14.727  18.255  0.00  0.00    -0.066 SA
ENDBRANCH   2   7
BRANCH   1  16
ATOM     16  S   UNL d   1     -39.477  14.910  21.558  0.00  0.00     0.271 S 
ATOM     17  O   UNL d   1     -39.764  14.171  21.481  0.00  0.00    -0.200 OA
ATOM     18  O   UNL d   1     -39.151  15.806  21.627  0.00  0.00    -0.200 OA
BRANCH  16  19
ATOM     19  N   UNL d   1     -39.106  14.488  22.155  0.00  0.00    -0.229 N 
ATOM     20  C   UNL d   1     -39.071  13.661  22.229  0.00  0.00     0.092 A 
ATOM     21  C   UNL d   1     -38.641  13.482  22.912  0.00  0.00     0.021 A 
ATOM     22  C   UNL d   1     -38.408  14.185  23.265  0.00  0.00     0.021 A 
ATOM     23  C   UNL d   1     -38.693  14.805  22.799  0.00  0.00     0.092 A 
ENDBRANCH  16  19
ENDBRANCH   1  16
TORSDOF 3
ENDMDL
MODEL 5
REMARK VINA RESULT:      -6.3      8.469      9.177
REMARK  3 active torsions:
REMARK  status: ('A' for Active; 'I' for Inactive)
REMARK    1  A    between atoms: N_5  and  S_1 
REMARK    2  A    between atoms: C_6  and  S_1 
REMARK    3  A    between atoms: C_2  and  C_9 
ROOT
ATOM      1  C   UNL d   1     -39.440  14.190  18.316  0.00  0.00     0.104 A 
ATOM      2  C   UNL d   1     -38.811  13.951  19.575  0.00  0.00     0.025 A 
ATOM      3  C   UNL d   1     -39.369  14.350  19.125  0.00  0.00     0.015 A 
ATOM      4  C   UNL d   1     -38.947  13.624  17.962  0.00  0.00     0.013 A 
ATOM      5  C   UNL d   1     -38.318  13.385  19.221  0.00  0.00     0.002 A 
ATOM      6  C   UNL d   1     -38.387  13.222  18.410  0.00  0.00     0.001 A 
ENDROOT
BRANCH   2   7
ATOM      7  C   UNL d   1     -38.740  14.111  20.384  0.00  0.00     0.111 A 
ATOM      8  N   UNL d   1     -39.027  13.643  20.987  0.00  0.00    -0.239 NA
ATOM      9  C   UNL d   1     -38.835  14.007  21.700  0.00  0.00     0.088 A 
ATOM     10  C   UNL d   1     -38.975  13.801  22.479  0.00  0.00     0.020 A 
ATOM     11  C   UNL d   1     -38.427  14.704  21.530  0.00  0.00     0.049 A 
ATOM     12  C   UNL d   1     -38.713  14.280  23.089  0.00  0.00     0.002 A 
ATOM     13  C   UNL d   1     -38.305  14.977  22.919  0.00  0.00     0.001 A 
ATOM     14  C   UNL d   1     -38.164  15.185  22.131  0.00  0.00     0.008 A 
ATOM     15  S   UNL d   1     -38.368  14.767  20.711  0.00  0.00    -0.066 SA
ENDBRANCH   2   7
BRANCH   1  16
ATOM     16  S   UNL d   1     -39.999  14.590  17.863  0.00  0.00     0.271 S 
ATOM     17  O   UNL d   1     -39.531  15.220  17.721  0.00  0.00    -0.200 OA
ATOM     18  O   UNL d   1     -40.537  13.823  18.051  0.00  0.00    -0.200 OA
BRANCH  16  19
ATOM     19  N   UNL d   1     -40.463  15.084  17.401  0.00  0.00    -0.229 N 
ATOM     20  C   UNL d   1     -40.223  15.494  16.719  0.00  0.00     0.092 A 
ATOM     21  C   UNL d   1     -40.870  15.922  16.435  0.00  0.00     0.021 A 
ATOM     22  C   UNL d   1     -41.510  15.784  16.929  0.00  0.00     0.021 A 
ATOM     23  C   UNL d   1     -41.261  15.268  17.524  0.00  0.00     0.092 A 
ENDBRANCH  16  19
ENDBRANCH   1  16
TORSDOF 3
ENDMDL
MODEL 6
REMARK VINA RESULT:      -6.1      1.344      2.054
REMARK  3 active torsions:
REMARK  status: ('A' for Active; 'I' for Inactive)
REMARK    1  A    between atoms: N_5  and  S_1 
REMARK    2  A    between atoms: C_6  and  S_1 
REMARK    3  A    between atoms: C_2  and  C_9 
ROOT
ATOM      1  C   UNL d   1     -47.915  12.626  23.215  0.00  0.00     0.104 A 
ATOM      2  C   UNL d   1     -47.000  11.557  23.456  0.00  0.00     0.025 A 
ATOM      3  C   UNL d   1     -47.143  12.328  23.216  0.00  0.00     0.015 A 
ATOM      4  C   UNL d   1     -48.544  12.141  23.457  0.00  0.00     0.013 A 
ATOM      5  C   UNL d   1     -47.630  11.073  23.698  0.00  0.00     0.002 A 
ATOM      6  C   UNL d   1     -48.405  11.368  23.698  0.00  0.00     0.001 A 
ENDROOT
BRANCH   2   7
ATOM      7  C   UNL d   1     -46.228  11.260  23.457  0.00  0.00     0.111 A 
ATOM      8  N   UNL d   1     -45.553  11.692  23.302  0.00  0.00    -0.239 NA
ATOM      9  C   UNL d   1     -44.910  11.183  23.362  0.00  0.00     0.088 A 
ATOM     10  C   UNL d   1     -44.106  11.297  23.268  0.00  0.00     0.020 A 
ATOM     11  C   UNL d   1     -45.194  10.432  23.555  0.00  0.00     0.049 A 
ATOM     12  C   UNL d   1     -43.583  10.675  23.363  0.00  0.00     0.002 A 
ATOM     13  C   UNL d   1     -43.867   9.924  23.556  0.00  0.00     0.001 A 
ATOM     14  C   UNL d   1     -44.680   9.808  23.651  0.00  0.00     0.008 A 
ATOM     15  S   UNL d   1     -46.014  10.482  23.613  0.00  0.00    -0.066 SA
ENDBRANCH   2   7
BRANCH   1  16
ATOM     16  S   UNL d   1     -48.060  13.400  22.974  0.00  0.00     0.271 S 
ATOM     17  O   UNL d   1     -47.391  13.694  23.293  0.00  0.00    -0.200 OA
ATOM     18  O   UNL d   1     -48.853  13.018  22.603  0.00  0.00    -0.200 OA
BRANCH  16  19
ATOM     19  N   UNL d   1     -48.088  14.199  22.794  0.00  0.00    -0.229 N 
ATOM     20  C   UNL d   1     -47.452  14.675  22.552  0.00  0.00     0.092 A 
ATOM     21  C   UNL d   1     -47.736  15.443  22.432  0.00  0.00     0.021 A 
ATOM     22  C   UNL d   1     -48.540  15.451  22.597  0.00  0.00     0.021 A 
ATOM     23  C   UNL d   1     -48.758  14.686  22.820  0.00  0.00     0.092 A 
ENDBRANCH  16  19
ENDBRANCH   1  16
TORSDOF 3
ENDMDL
