MODEL 1
REMARK VINA RESULT:       5.2      0.000      0.000
REMARK  5 active torsions:
REMARK  status: ('A' for Active; 'I' for Inactive)
REMARK    1  A    between atoms: C_20  and  N_1 
REMARK       I    between atoms: C_6  and  N_7 
REMARK    2  A    between atoms: C_10  and  C_6 
REMARK    3  A    between atoms: N_7  and  C_8 
REMARK    4  A    between atoms: O_22  and  C_13 
REMARK    5  A    between atoms: O_23  and  C_16 
ROOT
ATOM      1  N   UNL d   1      58.270  -6.213  28.462  0.00  0.00    -0.273 N 
ATOM      2  C   UNL d   1      59.206  -6.639  28.460  0.00  0.00     0.265 A 
ATOM      3  C   UNL d   1      58.464  -5.353  28.461  0.00  0.00     0.067 A 
ATOM      4  C   UNL d   1      59.240  -5.244  28.459  0.00  0.00     0.022 A 
ATOM      5  C   UNL d   1      59.737  -5.905  28.458  0.00  0.00     0.058 A 
ATOM      6  C   UNL d   1      59.076  -3.847  28.459  0.00  0.00     0.085 A 
ATOM      7  C   UNL d   1      59.545  -4.496  28.458  0.00  0.00     0.019 A 
ATOM      8  C   UNL d   1      57.950  -4.668  28.462  0.00  0.00     0.019 A 
ATOM      9  O   UNL d   1      59.358  -7.416  28.460  0.00  0.00    -0.267 OA
ATOM     10  C   UNL d   1      58.258  -3.953  28.461  0.00  0.00     0.021 A 
ATOM     11  C   UNL d   1      60.537  -5.794  28.456  0.00  0.00     0.005 A 
ATOM     12  C   UNL d   1      60.372  -4.377  28.456  0.00  0.00     0.002 A 
ATOM     13  C   UNL d   1      60.861  -5.029  28.455  0.00  0.00     0.000 A 
ENDROOT
BRANCH   6  14
ATOM     14  N   UNL d   1      59.386  -3.068  28.458  0.00  0.00    -0.208 NA
ATOM     15  C   UNL d   1      59.440  -2.675  29.170  0.00  0.00     0.279 C 
ATOM     16  O   UNL d   1      59.206  -3.013  29.859  0.00  0.00    -0.265 OA
BRANCH  15  17
ATOM     17  C   UNL d   1      59.734  -1.937  29.178  0.00  0.00     0.060 A 
ATOM     18  C   UNL d   1      59.223  -1.371  29.066  0.00  0.00     0.031 A 
ATOM     19  C   UNL d   1      59.525  -0.534  29.070  0.00  0.00     0.116 A 
ATOM     20  C   UNL d   1      60.337  -0.396  29.193  0.00  0.00     0.116 A 
ATOM     21  C   UNL d   1      60.844  -1.023  29.308  0.00  0.00     0.026 A 
ATOM     22  C   UNL d   1      60.540  -1.804  29.301  0.00  0.00     0.007 A 
BRANCH  19  23
ATOM     23  O   UNL d   1      59.044   0.083  28.960  0.00  0.00    -0.326 OA
ATOM     24  C   UNL d   1      58.278  -0.042  28.700  0.00  0.00     0.181 C 
ENDBRANCH  19  23
BRANCH  20  25
ATOM     25  O   UNL d   1      60.637   0.384  29.200  0.00  0.00    -0.326 OA
ATOM     26  C   UNL d   1      61.084   0.646  29.845  0.00  0.00     0.181 C 
ENDBRANCH  20  25
ENDBRANCH  15  17
ENDBRANCH   6  14
BRANCH   1  27
ATOM     27  C   UNL d   1      57.306  -6.269  28.464  0.00  0.00     0.083 C 
ATOM     28  C   UNL d   1      56.947  -6.991  28.479  0.00  0.00     0.021 C 
ENDBRANCH   1  27
TORSDOF 5
ENDMDL
