MODEL 1
REMARK VINA RESULT:      85.3      0.000      0.000
REMARK  3 active torsions:
REMARK  status: ('A' for Active; 'I' for Inactive)
REMARK    1  A    between atoms: C_9  and  N_1 
REMARK       I    between atoms: C_8  and  N_2 
REMARK    2  A    between atoms: C_3  and  C_9 
REMARK    3  A    between atoms: C_13  and  C_8 
ROOT
ATOM      1  N   UNL d   1     -58.001 -98.976 -43.319  0.00  0.00    -0.194 N 
ATOM      2  C   UNL d   1     -56.798 -99.002 -43.901  0.00  0.00     0.055 A 
ATOM      3  N   UNL d   1     -57.419 -98.882 -42.723  0.00  0.00    -0.163 NA
ATOM      4  C   UNL d   1     -57.610 -99.048 -44.033  0.00  0.00     0.089 A 
ATOM      5  C   UNL d   1     -58.813 -98.990 -43.192  0.00  0.00     0.286 C 
ATOM      6  C   UNL d   1     -56.679 -98.900 -43.094  0.00  0.00     0.104 A 
ATOM      7  O   UNL d   1     -59.321 -99.088 -43.844  0.00  0.00    -0.265 OA
ATOM      8  C   UNL d   1     -57.980 -99.151 -44.766  0.00  0.00     0.021 C 
ATOM      9  C   UNL d   1     -55.948 -98.826 -42.710  0.00  0.00     0.023 C 
ENDROOT
BRANCH   2  10
ATOM     10  C   UNL d   1     -56.206 -99.052 -44.485  0.00  0.00     0.089 C 
BRANCH  10  11
ATOM     11  N   UNL d   1     -55.866 -99.782 -44.672  0.00  0.00    -0.240 N 
ATOM     12  C   UNL d   1     -55.609-100.014 -45.413  0.00  0.00     0.267 A 
ATOM     13  C   UNL d   1     -55.311-100.783 -45.340  0.00  0.00     0.061 A 
ATOM     14  O   UNL d   1     -55.642 -99.563 -46.104  0.00  0.00    -0.267 OA
ATOM     15  C   UNL d   1     -54.981-101.291 -45.896  0.00  0.00     0.005 A 
ATOM     16  C   UNL d   1     -55.384-101.020 -44.561  0.00  0.00     0.061 A 
ATOM     17  C   UNL d   1     -54.724-102.040 -45.670  0.00  0.00     0.000 A 
ATOM     18  C   UNL d   1     -54.798-102.281 -44.884  0.00  0.00     0.000 A 
ATOM     19  C   UNL d   1     -55.128-101.772 -44.327  0.00  0.00     0.005 A 
ATOM     20  C   UNL d   1     -55.730-100.401 -44.136  0.00  0.00     0.267 A 
ATOM     21  O   UNL d   1     -55.907-100.403 -43.328  0.00  0.00    -0.267 OA
ENDBRANCH  10  11
ENDBRANCH   2  10
BRANCH   5  22
ATOM     22  C   UNL d   1     -59.113 -98.908 -42.429  0.00  0.00     0.087 A 
ATOM     23  S   UNL d   1     -59.910 -98.824 -42.230  0.00  0.00    -0.082 SA
ATOM     24  C   UNL d   1     -59.958 -98.760 -41.409  0.00  0.00     0.036 A 
ATOM     25  C   UNL d   1     -59.203 -98.803 -41.103  0.00  0.00     0.008 A 
ATOM     26  C   UNL d   1     -58.674 -98.895 -41.736  0.00  0.00     0.012 A 
ENDBRANCH   5  22
TORSDOF 3
ENDMDL
MODEL 2
REMARK VINA RESULT:      86.3      2.268      3.877
REMARK  3 active torsions:
REMARK  status: ('A' for Active; 'I' for Inactive)
REMARK    1  A    between atoms: C_9  and  N_1 
REMARK       I    between atoms: C_8  and  N_2 
REMARK    2  A    between atoms: C_3  and  C_9 
REMARK    3  A    between atoms: C_13  and  C_8 
ROOT
ATOM      1  N   UNL d   1     -55.017-101.115 -42.656  0.00  0.00    -0.194 N 
ATOM      2  C   UNL d   1     -55.104 -99.993 -43.378  0.00  0.00     0.055 A 
ATOM      3  N   UNL d   1     -55.011-100.462 -42.130  0.00  0.00    -0.163 NA
ATOM      4  C   UNL d   1     -55.074-100.816 -43.415  0.00  0.00     0.089 A 
ATOM      5  C   UNL d   1     -54.973-101.905 -42.434  0.00  0.00     0.286 C 
ATOM      6  C   UNL d   1     -55.066 -99.774 -42.587  0.00  0.00     0.104 A 
ATOM      7  O   UNL d   1     -54.985-102.491 -43.026  0.00  0.00    -0.265 OA
ATOM      8  C   UNL d   1     -55.098-101.274 -44.104  0.00  0.00     0.021 C 
ATOM      9  C   UNL d   1     -55.078 -99.001 -42.290  0.00  0.00     0.023 C 
ENDROOT
BRANCH   2  10
ATOM     10  C   UNL d   1     -55.164 -99.478 -44.031  0.00  0.00     0.089 C 
BRANCH  10  11
ATOM     11  N   UNL d   1     -55.895 -99.349 -44.393  0.00  0.00    -0.240 N 
ATOM     12  C   UNL d   1     -56.566 -99.056 -44.027  0.00  0.00     0.267 A 
ATOM     13  C   UNL d   1     -57.163 -99.020 -44.599  0.00  0.00     0.061 A 
ATOM     14  O   UNL d   1     -56.632 -98.838 -43.233  0.00  0.00    -0.267 OA
ATOM     15  C   UNL d   1     -57.946 -98.772 -44.551  0.00  0.00     0.005 A 
ATOM     16  C   UNL d   1     -56.861 -99.287 -45.311  0.00  0.00     0.061 A 
ATOM     17  C   UNL d   1     -58.427 -98.794 -45.218  0.00  0.00     0.000 A 
ATOM     18  C   UNL d   1     -58.124 -99.064 -45.937  0.00  0.00     0.000 A 
ATOM     19  C   UNL d   1     -57.340 -99.312 -45.985  0.00  0.00     0.005 A 
ATOM     20  C   UNL d   1     -56.070 -99.495 -45.191  0.00  0.00     0.267 A 
ATOM     21  O   UNL d   1     -55.552 -99.793 -45.764  0.00  0.00    -0.267 OA
ENDBRANCH  10  11
ENDBRANCH   2  10
BRANCH   5  22
ATOM     22  C   UNL d   1     -54.917-102.108 -41.638  0.00  0.00     0.087 A 
ATOM     23  S   UNL d   1     -54.727-102.855 -41.342  0.00  0.00    -0.082 SA
ATOM     24  C   UNL d   1     -54.734-102.807 -40.518  0.00  0.00     0.036 A 
ATOM     25  C   UNL d   1     -54.926-102.043 -40.306  0.00  0.00     0.008 A 
ATOM     26  C   UNL d   1     -55.041-101.605 -41.001  0.00  0.00     0.012 A 
ENDBRANCH   5  22
TORSDOF 3
ENDMDL
