MODEL 1
REMARK VINA RESULT:      -3.2      0.000      0.000
REMARK  4 active torsions:
REMARK  status: ('A' for Active; 'I' for Inactive)
REMARK    1  A    between atoms: N_2  and  C_1 
REMARK       I    between atoms: C_4  and  N_2 
REMARK    2  A    between atoms: C_11  and  C_4 
REMARK    3  A    between atoms: C_7  and  C_5 
REMARK    4  A    between atoms: C_9  and  C_7 
REMARK       I    between atoms: N_13  and  C_9 
ROOT
ATOM      1  C   UNL d   1      33.223  20.278 -22.028  0.00  0.00     0.197 A 
ATOM      2  N   UNL d   1      33.220  20.026 -22.805  0.00  0.00    -0.220 NA
ATOM      3  C   UNL d   1      33.231  19.211 -22.810  0.00  0.00     0.095 A 
ATOM      4  S   UNL d   1      33.236  19.612 -21.543  0.00  0.00    -0.046 SA
ATOM      5  C   UNL d   1      33.241  18.951 -22.025  0.00  0.00     0.058 A 
ENDROOT
BRANCH   1   6
ATOM      6  N   UNL d   1      33.215  21.058 -21.770  0.00  0.00    -0.183 NA
ATOM      7  C   UNL d   1      32.543  21.367 -21.399  0.00  0.00     0.281 C 
ATOM      8  O   UNL d   1      31.879  20.883 -21.291  0.00  0.00    -0.265 OA
BRANCH   7   9
ATOM      9  C   UNL d   1      32.535  22.144 -21.142  0.00  0.00     0.058 A 
ATOM     10  C   UNL d   1      32.609  22.305 -20.336  0.00  0.00     0.005 A 
ATOM     11  C   UNL d   1      32.600  23.087 -20.079  0.00  0.00     0.000 A 
ATOM     12  C   UNL d   1      32.518  23.700 -20.615  0.00  0.00     0.000 A 
ATOM     13  C   UNL d   1      32.443  23.537 -21.425  0.00  0.00     0.000 A 
ATOM     14  C   UNL d   1      32.452  22.752 -21.685  0.00  0.00     0.005 A 
ENDBRANCH   7   9
ENDBRANCH   1   6
BRANCH   3  15
ATOM     15  C   UNL d   1      33.233  18.727 -23.479  0.00  0.00     0.084 C 
BRANCH  15  16
ATOM     16  C   UNL d   1      32.562  18.282 -23.668  0.00  0.00     0.306 C 
ATOM     17  O   UNL d   1      32.358  17.632 -23.204  0.00  0.00    -0.263 OA
ATOM     18  N   UNL d   1      32.106  18.491 -24.315  0.00  0.00    -0.053 NA
ATOM     19  O   UNL d   1      31.433  18.050 -24.510  0.00  0.00    -0.058 OA
ENDBRANCH  15  16
ENDBRANCH   3  15
TORSDOF 4
ENDMDL
MODEL 2
REMARK VINA RESULT:      -3.1      1.348      4.821
REMARK  4 active torsions:
REMARK  status: ('A' for Active; 'I' for Inactive)
REMARK    1  A    between atoms: N_2  and  C_1 
REMARK       I    between atoms: C_4  and  N_2 
REMARK    2  A    between atoms: C_11  and  C_4 
REMARK    3  A    between atoms: C_7  and  C_5 
REMARK    4  A    between atoms: C_9  and  C_7 
REMARK       I    between atoms: N_13  and  C_9 
ROOT
ATOM      1  C   UNL d   1      33.162  19.311 -22.564  0.00  0.00     0.197 A 
ATOM      2  N   UNL d   1      33.077  19.588 -21.800  0.00  0.00    -0.220 NA
ATOM      3  C   UNL d   1      33.102  20.402 -21.820  0.00  0.00     0.095 A 
ATOM      4  S   UNL d   1      33.241  19.959 -23.066  0.00  0.00    -0.046 SA
ATOM      5  C   UNL d   1      33.204  20.636 -22.607  0.00  0.00     0.058 A 
ENDROOT
BRANCH   1   6
ATOM      6  N   UNL d   1      33.169  18.522 -22.797  0.00  0.00    -0.183 NA
ATOM      7  C   UNL d   1      32.586  18.233 -23.307  0.00  0.00     0.281 C 
ATOM      8  O   UNL d   1      31.995  18.746 -23.581  0.00  0.00    -0.265 OA
BRANCH   7   9
ATOM      9  C   UNL d   1      32.592  17.448 -23.539  0.00  0.00     0.058 A 
ATOM     10  C   UNL d   1      33.219  17.166 -23.996  0.00  0.00     0.005 A 
ATOM     11  C   UNL d   1      33.224  16.376 -24.228  0.00  0.00     0.000 A 
ATOM     12  C   UNL d   1      32.615  15.874 -24.010  0.00  0.00     0.000 A 
ATOM     13  C   UNL d   1      31.985  16.159 -23.550  0.00  0.00     0.000 A 
ATOM     14  C   UNL d   1      31.980  16.953 -23.316  0.00  0.00     0.005 A 
ENDBRANCH   7   9
ENDBRANCH   1   6
BRANCH   3  15
ATOM     15  C   UNL d   1      33.037  20.909 -21.171  0.00  0.00     0.084 C 
BRANCH  15  16
ATOM     16  C   UNL d   1      32.362  21.378 -21.080  0.00  0.00     0.306 C 
ATOM     17  O   UNL d   1      31.627  21.022 -20.970  0.00  0.00    -0.263 OA
ATOM     18  N   UNL d   1      32.431  22.194 -21.100  0.00  0.00    -0.053 NA
ATOM     19  O   UNL d   1      31.761  22.671 -21.009  0.00  0.00    -0.058 OA
ENDBRANCH  15  16
ENDBRANCH   3  15
TORSDOF 4
ENDMDL
MODEL 3
REMARK VINA RESULT:      -2.9      3.090      5.690
REMARK  4 active torsions:
REMARK  status: ('A' for Active; 'I' for Inactive)
REMARK    1  A    between atoms: N_2  and  C_1 
REMARK       I    between atoms: C_4  and  N_2 
REMARK    2  A    between atoms: C_11  and  C_4 
REMARK    3  A    between atoms: C_7  and  C_5 
REMARK    4  A    between atoms: C_9  and  C_7 
REMARK       I    between atoms: N_13  and  C_9 
ROOT
ATOM      1  C   UNL d   1      31.581  17.022 -24.107  0.00  0.00     0.197 A 
ATOM      2  N   UNL d   1      32.041  17.317 -23.499  0.00  0.00    -0.220 NA
ATOM      3  C   UNL d   1      32.645  17.755 -23.826  0.00  0.00     0.095 A 
ATOM      4  S   UNL d   1      31.902  17.280 -24.820  0.00  0.00    -0.046 SA
ATOM      5  C   UNL d   1      32.561  17.734 -24.648  0.00  0.00     0.058 A 
ENDROOT
BRANCH   1   6
ATOM      6  N   UNL d   1      30.912  16.551 -24.026  0.00  0.00    -0.183 NA
ATOM      7  C   UNL d   1      30.160  16.865 -24.165  0.00  0.00     0.281 C 
ATOM      8  O   UNL d   1      30.088  17.661 -24.387  0.00  0.00    -0.265 OA
BRANCH   7   9
ATOM      9  C   UNL d   1      29.495  16.396 -24.085  0.00  0.00     0.058 A 
ATOM     10  C   UNL d   1      29.140  16.078 -24.758  0.00  0.00     0.005 A 
ATOM     11  C   UNL d   1      28.470  15.606 -24.676  0.00  0.00     0.000 A 
ATOM     12  C   UNL d   1      28.158  15.453 -23.934  0.00  0.00     0.000 A 
ATOM     13  C   UNL d   1      28.516  15.773 -23.258  0.00  0.00     0.000 A 
ATOM     14  C   UNL d   1      29.189  16.248 -23.340  0.00  0.00     0.005 A 
ENDBRANCH   7   9
ENDBRANCH   1   6
BRANCH   3  15
ATOM     15  C   UNL d   1      33.239  18.152 -23.411  0.00  0.00     0.084 C 
BRANCH  15  16
ATOM     16  C   UNL d   1      33.102  18.914 -23.122  0.00  0.00     0.306 C 
ATOM     17  O   UNL d   1      32.996  19.538 -23.649  0.00  0.00    -0.263 OA
ATOM     18  N   UNL d   1      33.073  19.042 -22.314  0.00  0.00    -0.053 NA
ATOM     19  O   UNL d   1      32.937  19.802 -22.017  0.00  0.00    -0.058 OA
ENDBRANCH  15  16
ENDBRANCH   3  15
TORSDOF 4
ENDMDL
MODEL 4
REMARK VINA RESULT:      -2.9      2.593      5.233
REMARK  4 active torsions:
REMARK  status: ('A' for Active; 'I' for Inactive)
REMARK    1  A    between atoms: N_2  and  C_1 
REMARK       I    between atoms: C_4  and  N_2 
REMARK    2  A    between atoms: C_11  and  C_4 
REMARK    3  A    between atoms: C_7  and  C_5 
REMARK    4  A    between atoms: C_9  and  C_7 
REMARK       I    between atoms: N_13  and  C_9 
ROOT
ATOM      1  C   UNL d   1      32.999  22.602 -19.920  0.00  0.00     0.197 A 
ATOM      2  N   UNL d   1      33.241  22.630 -19.141  0.00  0.00    -0.220 NA
ATOM      3  C   UNL d   1      32.917  23.295 -18.797  0.00  0.00     0.095 A 
ATOM      4  S   UNL d   1      32.520  23.256 -20.066  0.00  0.00    -0.046 SA
ATOM      5  C   UNL d   1      32.468  23.686 -19.371  0.00  0.00     0.058 A 
ENDROOT
BRANCH   1   6
ATOM      6  N   UNL d   1      33.198  22.022 -20.470  0.00  0.00    -0.183 NA
ATOM      7  C   UNL d   1      32.650  21.439 -20.676  0.00  0.00     0.281 C 
ATOM      8  O   UNL d   1      31.899  21.444 -20.324  0.00  0.00    -0.265 OA
BRANCH   7   9
ATOM      9  C   UNL d   1      32.847  20.862 -21.223  0.00  0.00     0.058 A 
ATOM     10  C   UNL d   1      32.865  21.055 -22.025  0.00  0.00     0.005 A 
ATOM     11  C   UNL d   1      33.063  20.474 -22.574  0.00  0.00     0.000 A 
ATOM     12  C   UNL d   1      33.241  19.713 -22.329  0.00  0.00     0.000 A 
ATOM     13  C   UNL d   1      33.222  19.521 -21.521  0.00  0.00     0.000 A 
ATOM     14  C   UNL d   1      33.023  20.105 -20.969  0.00  0.00     0.005 A 
ENDBRANCH   7   9
ENDBRANCH   1   6
BRANCH   3  15
ATOM     15  C   UNL d   1      33.018  23.538 -18.015  0.00  0.00     0.084 C 
BRANCH  15  16
ATOM     16  C   UNL d   1      32.686  23.096 -17.399  0.00  0.00     0.306 C 
ATOM     17  O   UNL d   1      31.871  22.982 -17.371  0.00  0.00    -0.263 OA
ATOM     18  N   UNL d   1      33.172  22.777 -16.822  0.00  0.00    -0.053 NA
ATOM     19  O   UNL d   1      32.847  22.334 -16.204  0.00  0.00    -0.058 OA
ENDBRANCH  15  16
ENDBRANCH   3  15
TORSDOF 4
ENDMDL
MODEL 5
REMARK VINA RESULT:      -2.3      3.391      4.853
REMARK  4 active torsions:
REMARK  status: ('A' for Active; 'I' for Inactive)
REMARK    1  A    between atoms: N_2  and  C_1 
REMARK       I    between atoms: C_4  and  N_2 
REMARK    2  A    between atoms: C_11  and  C_4 
REMARK    3  A    between atoms: C_7  and  C_5 
REMARK    4  A    between atoms: C_9  and  C_7 
REMARK       I    between atoms: N_13  and  C_9 
ROOT
ATOM      1  C   UNL d   1      31.049  16.730 -24.629  0.00  0.00     0.197 A 
ATOM      2  N   UNL d   1      30.252  16.643 -24.469  0.00  0.00    -0.220 NA
ATOM      3  C   UNL d   1      30.053  15.861 -24.585  0.00  0.00     0.095 A 
ATOM      4  S   UNL d   1      31.350  15.995 -24.847  0.00  0.00    -0.046 SA
ATOM      5  C   UNL d   1      30.734  15.455 -24.820  0.00  0.00     0.058 A 
ENDROOT
BRANCH   1   6
ATOM      6  N   UNL d   1      31.480  17.429 -24.582  0.00  0.00    -0.183 NA
ATOM      7  C   UNL d   1      31.951  17.584 -23.920  0.00  0.00     0.281 C 
ATOM      8  O   UNL d   1      31.984  17.029 -23.305  0.00  0.00    -0.265 OA
BRANCH   7   9
ATOM      9  C   UNL d   1      32.381  18.279 -23.873  0.00  0.00     0.058 A 
ATOM     10  C   UNL d   1      32.452  18.757 -24.542  0.00  0.00     0.005 A 
ATOM     11  C   UNL d   1      32.885  19.456 -24.493  0.00  0.00     0.000 A 
ATOM     12  C   UNL d   1      33.241  19.676 -23.790  0.00  0.00     0.000 A 
ATOM     13  C   UNL d   1      33.168  19.194 -23.118  0.00  0.00     0.000 A 
ATOM     14  C   UNL d   1      32.734  18.492 -23.166  0.00  0.00     0.005 A 
ENDBRANCH   7   9
ENDBRANCH   1   6
BRANCH   3  15
ATOM     15  C   UNL d   1      29.303  15.529 -24.486  0.00  0.00     0.084 C 
BRANCH  15  16
ATOM     16  C   UNL d   1      28.874  15.678 -23.795  0.00  0.00     0.306 C 
ATOM     17  O   UNL d   1      29.187  15.462 -23.064  0.00  0.00    -0.263 OA
ATOM     18  N   UNL d   1      28.140  16.039 -23.843  0.00  0.00    -0.053 NA
ATOM     19  O   UNL d   1      27.705  16.191 -23.157  0.00  0.00    -0.058 OA
ENDBRANCH  15  16
ENDBRANCH   3  15
TORSDOF 4
ENDMDL
MODEL 6
REMARK VINA RESULT:      -2.0      1.416      2.232
REMARK  4 active torsions:
REMARK  status: ('A' for Active; 'I' for Inactive)
REMARK    1  A    between atoms: N_2  and  C_1 
REMARK       I    between atoms: C_4  and  N_2 
REMARK    2  A    between atoms: C_11  and  C_4 
REMARK    3  A    between atoms: C_7  and  C_5 
REMARK    4  A    between atoms: C_9  and  C_7 
REMARK       I    between atoms: N_13  and  C_9 
ROOT
ATOM      1  C   UNL d   1      32.760  18.963 -23.472  0.00  0.00     0.197 A 
ATOM      2  N   UNL d   1      32.278  18.320 -23.324  0.00  0.00    -0.220 NA
ATOM      3  C   UNL d   1      32.451  17.740 -23.870  0.00  0.00     0.095 A 
ATOM      4  S   UNL d   1      33.239  18.781 -24.117  0.00  0.00    -0.046 SA
ATOM      5  C   UNL d   1      33.049  18.025 -24.365  0.00  0.00     0.058 A 
ENDROOT
BRANCH   1   6
ATOM      6  N   UNL d   1      32.770  19.670 -23.053  0.00  0.00    -0.183 NA
ATOM      7  C   UNL d   1      33.010  19.683 -22.262  0.00  0.00     0.281 C 
ATOM      8  O   UNL d   1      33.241  18.976 -21.896  0.00  0.00    -0.265 OA
BRANCH   7   9
ATOM      9  C   UNL d   1      33.020  20.387 -21.845  0.00  0.00     0.058 A 
ATOM     10  C   UNL d   1      32.985  21.101 -22.256  0.00  0.00     0.005 A 
ATOM     11  C   UNL d   1      32.994  21.809 -21.835  0.00  0.00     0.000 A 
ATOM     12  C   UNL d   1      33.038  21.806 -21.017  0.00  0.00     0.000 A 
ATOM     13  C   UNL d   1      33.073  21.086 -20.605  0.00  0.00     0.000 A 
ATOM     14  C   UNL d   1      33.063  20.375 -21.028  0.00  0.00     0.005 A 
ENDBRANCH   7   9
ENDBRANCH   1   6
BRANCH   3  15
ATOM     15  C   UNL d   1      32.094  16.997 -23.922  0.00  0.00     0.084 C 
BRANCH  15  16
ATOM     16  C   UNL d   1      31.367  16.915 -24.307  0.00  0.00     0.306 C 
ATOM     17  O   UNL d   1      31.071  17.537 -24.759  0.00  0.00    -0.263 OA
ATOM     18  N   UNL d   1      30.947  16.215 -24.236  0.00  0.00    -0.053 NA
ATOM     19  O   UNL d   1      30.219  16.125 -24.619  0.00  0.00    -0.058 OA
ENDBRANCH  15  16
ENDBRANCH   3  15
TORSDOF 4
ENDMDL
