MODEL 1
REMARK VINA RESULT:      -4.1      0.000      0.000
REMARK  3 active torsions:
REMARK  status: ('A' for Active; 'I' for Inactive)
REMARK    1  A    between atoms: C_10  and  C_1 
REMARK    2  A    between atoms: C_8  and  N_5 
REMARK    3  A    between atoms: N_9  and  C_10 
ROOT
ATOM      1  C   UNL d   1      57.603  -0.347  30.259  0.00  0.00     0.084 C 
ENDROOT
BRANCH   1   2
ATOM      2  N   UNL d   1      57.211  -0.210  30.973  0.00  0.00    -0.300 N 
ATOM      3  C   UNL d   1      57.140  -0.816  31.526  0.00  0.00     0.100 A 
ATOM      4  C   UNL d   1      56.747  -0.680  32.244  0.00  0.00     0.101 A 
ATOM      5  N   UNL d   1      56.428   0.063  32.402  0.00  0.00    -0.286 N 
ATOM      6  C   UNL d   1      56.498   0.682  31.844  0.00  0.00     0.101 A 
ATOM      7  C   UNL d   1      56.897   0.537  31.121  0.00  0.00     0.100 A 
BRANCH   5   8
ATOM      8  C   UNL d   1      56.036   0.215  33.107  0.00  0.00     0.148 A 
ATOM      9  N   UNL d   1      56.482   0.493  33.762  0.00  0.00    -0.227 NA
ATOM     10  C   UNL d   1      56.091   0.651  34.483  0.00  0.00     0.101 A 
ATOM     11  C   UNL d   1      55.277   0.531  34.540  0.00  0.00     0.021 A 
ATOM     12  C   UNL d   1      54.844   0.255  33.889  0.00  0.00     0.005 A 
ATOM     13  C   UNL d   1      55.224   0.099  33.176  0.00  0.00     0.037 A 
ENDBRANCH   5   8
ENDBRANCH   1   2
BRANCH   1  14
ATOM     14  C   UNL d   1      58.389  -0.102  30.158  0.00  0.00     0.059 A 
ATOM     15  C   UNL d   1      58.740  -0.128  29.396  0.00  0.00     0.214 A 
ATOM     16  C   UNL d   1      59.519   0.119  29.316  0.00  0.00     0.121 A 
ATOM     17  O   UNL d   1      58.311  -0.395  28.751  0.00  0.00    -0.285 OA
ATOM     18  N   UNL d   1      59.868   0.095  28.571  0.00  0.00    -0.241 NA
ATOM     19  C   UNL d   1      59.946   0.385  29.959  0.00  0.00     0.032 A 
ATOM     20  C   UNL d   1      60.663   0.343  28.464  0.00  0.00     0.099 A 
ATOM     21  C   UNL d   1      61.094   0.611  29.113  0.00  0.00     0.021 A 
ATOM     22  C   UNL d   1      60.736   0.633  29.865  0.00  0.00     0.004 A 
ATOM     23  C   UNL d   1      59.609   0.413  30.705  0.00  0.00     0.059 A 
ATOM     24  C   UNL d   1      58.808   0.162  30.806  0.00  0.00     0.016 A 
ATOM     25 CL   UNL d   1      60.042   0.682  31.357  0.00  0.00    -0.082 Cl
ENDBRANCH   1  14
TORSDOF 3
ENDMDL
MODEL 2
REMARK VINA RESULT:      -3.4      1.678      5.022
REMARK  3 active torsions:
REMARK  status: ('A' for Active; 'I' for Inactive)
REMARK    1  A    between atoms: C_10  and  C_1 
REMARK    2  A    between atoms: C_8  and  N_5 
REMARK    3  A    between atoms: N_9  and  C_10 
ROOT
ATOM      1  C   UNL d   1      56.458   0.681  31.820  0.00  0.00     0.084 C 
ENDROOT
BRANCH   1   2
ATOM      2  N   UNL d   1      56.978   0.262  31.334  0.00  0.00    -0.300 N 
ATOM      3  C   UNL d   1      57.004  -0.559  31.371  0.00  0.00     0.100 A 
ATOM      4  C   UNL d   1      57.525  -0.982  30.883  0.00  0.00     0.101 A 
ATOM      5  N   UNL d   1      58.018  -0.577  30.362  0.00  0.00    -0.286 N 
ATOM      6  C   UNL d   1      57.996   0.258  30.320  0.00  0.00     0.101 A 
ATOM      7  C   UNL d   1      57.466   0.678  30.816  0.00  0.00     0.100 A 
BRANCH   5   8
ATOM      8  C   UNL d   1      58.540  -0.979  29.872  0.00  0.00     0.148 A 
ATOM      9  N   UNL d   1      59.152  -0.545  29.497  0.00  0.00    -0.227 NA
ATOM     10  C   UNL d   1      59.688  -0.947  28.997  0.00  0.00     0.101 A 
ATOM     11  C   UNL d   1      59.607  -1.759  28.881  0.00  0.00     0.021 A 
ATOM     12  C   UNL d   1      58.998  -2.181  29.256  0.00  0.00     0.005 A 
ATOM     13  C   UNL d   1      58.468  -1.790  29.749  0.00  0.00     0.037 A 
ENDBRANCH   5   8
ENDBRANCH   1   2
BRANCH   1  14
ATOM     14  C   UNL d   1      56.562   0.681  32.643  0.00  0.00     0.059 A 
ATOM     15  C   UNL d   1      55.892   0.681  33.148  0.00  0.00     0.214 A 
ATOM     16  C   UNL d   1      56.015   0.681  33.961  0.00  0.00     0.121 A 
ATOM     17  O   UNL d   1      55.136   0.681  32.834  0.00  0.00    -0.285 OA
ATOM     18  N   UNL d   1      55.361   0.681  34.460  0.00  0.00    -0.241 NA
ATOM     19  C   UNL d   1      56.768   0.681  34.274  0.00  0.00     0.032 A 
ATOM     20  C   UNL d   1      55.461   0.681  35.294  0.00  0.00     0.099 A 
ATOM     21  C   UNL d   1      56.222   0.681  35.610  0.00  0.00     0.021 A 
ATOM     22  C   UNL d   1      56.880   0.681  35.100  0.00  0.00     0.004 A 
ATOM     23  C   UNL d   1      57.426   0.682  33.786  0.00  0.00     0.059 A 
ATOM     24  C   UNL d   1      57.319   0.682  32.948  0.00  0.00     0.016 A 
ATOM     25 CL   UNL d   1      58.191   0.682  34.103  0.00  0.00    -0.082 Cl
ENDBRANCH   1  14
TORSDOF 3
ENDMDL
