MODEL 1
REMARK VINA RESULT:      65.9      0.000      0.000
REMARK  6 active torsions:
REMARK  status: ('A' for Active; 'I' for Inactive)
REMARK    1  A    between atoms: C_11  and  N_2 
REMARK    2  A    between atoms: O_15  and  C_9 
REMARK    3  A    between atoms: C_10  and  O_14 
REMARK    4  A    between atoms: C_16  and  C_11 
REMARK    5  A    between atoms: O_14  and  C_17 
REMARK    6  A    between atoms: C_17  and  C_16 
ROOT
ATOM      1  C   UNL d   1      61.513  47.285  50.423  0.00  0.00     0.087 C 
ENDROOT
BRANCH   1   2
ATOM      2  N   UNL d   1      61.780  46.669  49.938  0.00  0.00    -0.251 N 
ATOM      3  C   UNL d   1      62.343  46.695  49.332  0.00  0.00     0.378 A 
ATOM      4  O   UNL d   1      62.412  45.928  49.016  0.00  0.00    -0.258 OA
ATOM      5  O   UNL d   1      62.763  47.361  49.085  0.00  0.00    -0.237 OA
ATOM      6  C   UNL d   1      61.892  45.433  49.426  0.00  0.00     0.121 A 
ATOM      7  C   UNL d   1      61.716  44.621  49.362  0.00  0.00     0.026 A 
ATOM      8  C   UNL d   1      61.501  45.890  49.996  0.00  0.00     0.092 A 
ATOM      9  C   UNL d   1      61.159  44.276  49.861  0.00  0.00     0.002 A 
ATOM     10  C   UNL d   1      60.770  44.736  50.430  0.00  0.00     0.002 A 
ATOM     11  C   UNL d   1      60.941  45.539  50.497  0.00  0.00     0.020 A 
ATOM     12  C   UNL d   1      60.213  44.392  50.928  0.00  0.00     0.000 C 
ENDBRANCH   1   2
BRANCH   1  13
ATOM     13  C   UNL d   1      61.168  47.954  50.095  0.00  0.00     0.046 C 
BRANCH  13  14
ATOM     14  C   UNL d   1      61.339  48.705  50.396  0.00  0.00     0.124 C 
BRANCH  14  15
ATOM     15  O   UNL d   1      60.754  49.273  50.444  0.00  0.00    -0.303 OA
BRANCH  15  16
ATOM     16  C   UNL d   1      60.456  49.418  51.196  0.00  0.00     0.122 A 
ATOM     17  C   UNL d   1      59.645  49.562  51.298  0.00  0.00     0.117 A 
ATOM     18  C   UNL d   1      59.346  49.708  52.054  0.00  0.00     0.026 A 
ATOM     19  C   UNL d   1      59.859  49.708  52.700  0.00  0.00     0.002 A 
ATOM     20  C   UNL d   1      60.663  49.564  52.592  0.00  0.00     0.002 A 
ATOM     21  C   UNL d   1      60.961  49.419  51.840  0.00  0.00     0.027 A 
BRANCH  17  22
ATOM     22  O   UNL d   1      59.141  49.559  50.647  0.00  0.00    -0.326 OA
ATOM     23  C   UNL d   1      58.370  49.279  50.663  0.00  0.00     0.181 C 
ENDBRANCH  17  22
ENDBRANCH  15  16
ENDBRANCH  14  15
ENDBRANCH  13  14
ENDBRANCH   1  13
TORSDOF 6
ENDMDL
