MODEL 1
REMARK VINA RESULT:      86.7      0.000      0.000
REMARK  7 active torsions:
REMARK  status: ('A' for Active; 'I' for Inactive)
REMARK    1  A    between atoms: C_7  and  C_1 
REMARK    2  A    between atoms: S_8  and  C_3 
REMARK       I    between atoms: C_6  and  N_13 
REMARK    3  A    between atoms: C_10  and  C_6 
REMARK    4  A    between atoms: C_20  and  S_8 
REMARK    5  A    between atoms: N_13  and  C_21 
REMARK    6  A    between atoms: O_19  and  C_14 
REMARK    7  A    between atoms: C_21  and  C_20 
ROOT
ATOM      1  C   UNL d   1     -51.602  26.232  38.168  0.00  0.00     0.087 A 
ATOM      2  N   UNL d   1     -51.216  26.717  38.706  0.00  0.00    -0.245 NA
ATOM      3  C   UNL d   1     -51.396  26.474  37.408  0.00  0.00     0.049 A 
ATOM      4  C   UNL d   1     -50.882  27.110  37.469  0.00  0.00     0.025 A 
ATOM      5  C   UNL d   1     -50.768  27.263  38.277  0.00  0.00     0.082 A 
ATOM      6  C   UNL d   1     -50.501  27.570  36.908  0.00  0.00     0.002 A 
ATOM      7  C   UNL d   1     -50.272  27.878  38.516  0.00  0.00     0.019 A 
ATOM      8  C   UNL d   1     -50.005  28.185  37.147  0.00  0.00     0.000 A 
ATOM      9  C   UNL d   1     -49.893  28.336  37.946  0.00  0.00     0.002 A 
ENDROOT
BRANCH   3  10
ATOM     10  S   UNL d   1     -51.661  26.137  36.701  0.00  0.00    -0.083 SA
BRANCH  10  11
ATOM     11  C   UNL d   1     -51.183  26.184  36.020  0.00  0.00     0.056 C 
BRANCH  11  12
ATOM     12  C   UNL d   1     -51.508  26.007  35.281  0.00  0.00     0.109 C 
BRANCH  12  13
ATOM     13  N   UNL d   1     -51.496  26.574  34.695  0.00  0.00    -0.206 NA
ATOM     14  C   UNL d   1     -51.492  26.343  33.906  0.00  0.00     0.279 C 
ATOM     15  O   UNL d   1     -51.480  26.924  33.306  0.00  0.00    -0.265 OA
BRANCH  14  16
ATOM     16  C   UNL d   1     -51.500  25.541  33.707  0.00  0.00     0.058 A 
ATOM     17  C   UNL d   1     -50.781  25.137  33.588  0.00  0.00     0.005 A 
ATOM     18  C   UNL d   1     -50.788  24.334  33.389  0.00  0.00     0.000 A 
ATOM     19  C   UNL d   1     -51.511  23.936  33.308  0.00  0.00     0.000 A 
ATOM     20  C   UNL d   1     -52.221  24.336  33.425  0.00  0.00     0.000 A 
ATOM     21  C   UNL d   1     -52.214  25.137  33.624  0.00  0.00     0.005 A 
ENDBRANCH  14  16
ENDBRANCH  12  13
ENDBRANCH  11  12
ENDBRANCH  10  11
ENDBRANCH   3  10
BRANCH   1  22
ATOM     22  C   UNL d   1     -52.101  25.622  38.394  0.00  0.00     0.018 A 
ATOM     23  C   UNL d   1     -51.802  24.977  38.817  0.00  0.00     0.004 A 
ATOM     24  C   UNL d   1     -52.298  24.363  39.045  0.00  0.00     0.024 A 
ATOM     25  C   UNL d   1     -53.097  24.391  38.850  0.00  0.00     0.094 A 
ATOM     26  C   UNL d   1     -53.401  25.037  38.424  0.00  0.00     0.024 A 
ATOM     27  C   UNL d   1     -52.906  25.650  38.197  0.00  0.00     0.004 A 
BRANCH  25  28
ATOM     28  O   UNL d   1     -53.601  23.767  39.081  0.00  0.00    -0.328 OA
ATOM     29  C   UNL d   1     -53.555  23.460  39.851  0.00  0.00     0.181 C 
ENDBRANCH  25  28
ENDBRANCH   1  22
TORSDOF 7
ENDMDL
MODEL 2
REMARK VINA RESULT:      89.3      1.708      3.868
REMARK  7 active torsions:
REMARK  status: ('A' for Active; 'I' for Inactive)
REMARK    1  A    between atoms: C_7  and  C_1 
REMARK    2  A    between atoms: S_8  and  C_3 
REMARK       I    between atoms: C_6  and  N_13 
REMARK    3  A    between atoms: C_10  and  C_6 
REMARK    4  A    between atoms: C_20  and  S_8 
REMARK    5  A    between atoms: N_13  and  C_21 
REMARK    6  A    between atoms: O_19  and  C_14 
REMARK    7  A    between atoms: C_21  and  C_20 
ROOT
ATOM      1  C   UNL d   1     -49.834  27.794  37.201  0.00  0.00     0.087 A 
ATOM      2  N   UNL d   1     -50.018  27.889  37.996  0.00  0.00    -0.245 NA
ATOM      3  C   UNL d   1     -50.317  27.200  36.894  0.00  0.00     0.049 A 
ATOM      4  C   UNL d   1     -50.801  26.924  37.495  0.00  0.00     0.025 A 
ATOM      5  C   UNL d   1     -50.617  27.351  38.183  0.00  0.00     0.082 A 
ATOM      6  C   UNL d   1     -51.382  26.346  37.516  0.00  0.00     0.002 A 
ATOM      7  C   UNL d   1     -51.018  27.195  38.887  0.00  0.00     0.019 A 
ATOM      8  C   UNL d   1     -51.783  26.190  38.221  0.00  0.00     0.000 A 
ATOM      9  C   UNL d   1     -51.600  26.613  38.900  0.00  0.00     0.002 A 
ENDROOT
BRANCH   3  10
ATOM     10  S   UNL d   1     -50.316  26.926  36.114  0.00  0.00    -0.083 SA
BRANCH  10  11
ATOM     11  C   UNL d   1     -51.031  26.681  35.765  0.00  0.00     0.056 C 
BRANCH  11  12
ATOM     12  C   UNL d   1     -51.041  26.461  34.968  0.00  0.00     0.109 C 
BRANCH  12  13
ATOM     13  N   UNL d   1     -51.612  26.771  34.476  0.00  0.00    -0.206 NA
ATOM     14  C   UNL d   1     -51.853  26.348  33.814  0.00  0.00     0.279 C 
ATOM     15  O   UNL d   1     -52.438  26.666  33.311  0.00  0.00    -0.265 OA
BRANCH  14  16
ATOM     16  C   UNL d   1     -51.517  25.611  33.647  0.00  0.00     0.058 A 
ATOM     17  C   UNL d   1     -50.704  25.555  33.475  0.00  0.00     0.005 A 
ATOM     18  C   UNL d   1     -50.369  24.818  33.307  0.00  0.00     0.000 A 
ATOM     19  C   UNL d   1     -50.844  24.139  33.311  0.00  0.00     0.000 A 
ATOM     20  C   UNL d   1     -51.648  24.194  33.481  0.00  0.00     0.000 A 
ATOM     21  C   UNL d   1     -51.982  24.930  33.648  0.00  0.00     0.005 A 
ENDBRANCH  14  16
ENDBRANCH  12  13
ENDBRANCH  11  12
ENDBRANCH  10  11
ENDBRANCH   3  10
BRANCH   1  22
ATOM     22  C   UNL d   1     -49.261  28.237  36.818  0.00  0.00     0.018 A 
ATOM     23  C   UNL d   1     -48.863  28.840  37.221  0.00  0.00     0.004 A 
ATOM     24  C   UNL d   1     -48.288  29.285  36.841  0.00  0.00     0.024 A 
ATOM     25  C   UNL d   1     -48.107  29.130  36.054  0.00  0.00     0.094 A 
ATOM     26  C   UNL d   1     -48.504  28.525  35.644  0.00  0.00     0.024 A 
ATOM     27  C   UNL d   1     -49.079  28.080  36.024  0.00  0.00     0.004 A 
BRANCH  25  28
ATOM     28  O   UNL d   1     -47.522  29.584  35.667  0.00  0.00    -0.328 OA
ATOM     29  C   UNL d   1     -47.744  30.213  35.173  0.00  0.00     0.181 C 
ENDBRANCH  25  28
ENDBRANCH   1  22
TORSDOF 7
ENDMDL
