MODEL 1
REMARK VINA RESULT:      -8.1      0.000      0.000
REMARK  3 active torsions:
REMARK  status: ('A' for Active; 'I' for Inactive)
REMARK       I    between atoms: N_2  and  C_1 
REMARK    1  A    between atoms: C_4  and  C_1 
REMARK    2  A    between atoms: C_3  and  N_2 
REMARK    3  A    between atoms: C_5  and  C_6 
ROOT
ATOM      1  C   UNL d   1     -48.886  14.419  22.442  0.00  0.00     0.058 A 
ATOM      2  C   UNL d   1     -47.407  13.771  22.463  0.00  0.00    -0.023 A 
ATOM      3  C   UNL d   1     -48.600  14.102  21.772  0.00  0.00     0.004 A 
ATOM      4  C   UNL d   1     -48.471  14.439  23.157  0.00  0.00     0.004 A 
ATOM      5  C   UNL d   1     -47.718  14.105  23.154  0.00  0.00    -0.004 A 
ATOM      6  C   UNL d   1     -47.845  13.771  21.782  0.00  0.00    -0.004 A 
ENDROOT
BRANCH   1   7
ATOM      7  C   UNL d   1     -49.655  14.752  22.419  0.00  0.00     0.279 C 
ATOM      8  N   UNL d   1     -50.326  14.296  22.580  0.00  0.00    -0.207 NA
ATOM      9  O   UNL d   1     -49.753  15.540  22.236  0.00  0.00    -0.265 OA
BRANCH   8  10
ATOM     10  C   UNL d   1     -50.231  13.503  22.765  0.00  0.00     0.095 A 
ATOM     11  C   UNL d   1     -50.439  12.935  22.245  0.00  0.00     0.075 A 
ATOM     12 CL   UNL d   1     -50.762  13.131  21.496  0.00  0.00    -0.081 Cl
ATOM     13  C   UNL d   1     -50.345  12.124  22.425  0.00  0.00     0.013 A 
ATOM     14  C   UNL d   1     -50.022  11.928  23.174  0.00  0.00     0.001 A 
ATOM     15  C   UNL d   1     -49.813  12.519  23.697  0.00  0.00     0.002 A 
ATOM     16  C   UNL d   1     -49.910  13.290  23.509  0.00  0.00     0.020 A 
ENDBRANCH   8  10
ENDBRANCH   1   7
BRANCH   2  17
ATOM     17  C   UNL d   1     -46.654  13.441  22.473  0.00  0.00     0.019 C 
ATOM     18  C   UNL d   1     -46.805  13.075  21.749  0.00  0.00     0.004 C 
ATOM     19  C   UNL d   1     -46.504  13.807  23.194  0.00  0.00     0.004 C 
ATOM     20  C   UNL d   1     -45.899  13.110  22.483  0.00  0.00     0.004 C 
ENDBRANCH   2  17
TORSDOF 3
ENDMDL
MODEL 2
REMARK VINA RESULT:      -6.5      2.296      3.744
REMARK  3 active torsions:
REMARK  status: ('A' for Active; 'I' for Inactive)
REMARK       I    between atoms: N_2  and  C_1 
REMARK    1  A    between atoms: C_4  and  C_1 
REMARK    2  A    between atoms: C_3  and  N_2 
REMARK    3  A    between atoms: C_5  and  C_6 
ROOT
ATOM      1  C   UNL d   1     -47.889  11.779  23.128  0.00  0.00     0.058 A 
ATOM      2  C   UNL d   1     -49.283  12.305  22.505  0.00  0.00    -0.023 A 
ATOM      3  C   UNL d   1     -48.017  11.686  22.349  0.00  0.00     0.004 A 
ATOM      4  C   UNL d   1     -48.428  12.130  23.645  0.00  0.00     0.004 A 
ATOM      5  C   UNL d   1     -49.136  12.395  23.316  0.00  0.00    -0.004 A 
ATOM      6  C   UNL d   1     -48.728  11.955  22.031  0.00  0.00    -0.004 A 
ENDROOT
BRANCH   1   7
ATOM      7  C   UNL d   1     -47.161  11.501  23.440  0.00  0.00     0.279 C 
ATOM      8  N   UNL d   1     -46.500  11.996  23.492  0.00  0.00    -0.207 NA
ATOM      9  O   UNL d   1     -47.095  10.731  23.698  0.00  0.00    -0.265 OA
BRANCH   8  10
ATOM     10  C   UNL d   1     -46.564  12.771  23.233  0.00  0.00     0.095 A 
ATOM     11  C   UNL d   1     -46.162  13.020  22.590  0.00  0.00     0.075 A 
ATOM     12 CL   UNL d   1     -45.664  12.499  22.162  0.00  0.00    -0.081 Cl
ATOM     13  C   UNL d   1     -46.221  13.809  22.318  0.00  0.00     0.013 A 
ATOM     14  C   UNL d   1     -46.720  14.330  22.747  0.00  0.00     0.001 A 
ATOM     15  C   UNL d   1     -47.125  14.061  23.402  0.00  0.00     0.002 A 
ATOM     16  C   UNL d   1     -47.058  13.305  23.649  0.00  0.00     0.020 A 
ENDBRANCH   8  10
ENDBRANCH   1   7
BRANCH   2  17
ATOM     17  C   UNL d   1     -49.992  12.573  22.188  0.00  0.00     0.019 C 
ATOM     18  C   UNL d   1     -49.654  12.577  21.435  0.00  0.00     0.004 C 
ATOM     19  C   UNL d   1     -50.329  12.569  22.938  0.00  0.00     0.004 C 
ATOM     20  C   UNL d   1     -50.704  12.842  21.870  0.00  0.00     0.004 C 
ENDBRANCH   2  17
TORSDOF 3
ENDMDL
MODEL 3
REMARK VINA RESULT:      -5.9      1.339      2.033
REMARK  3 active torsions:
REMARK  status: ('A' for Active; 'I' for Inactive)
REMARK       I    between atoms: N_2  and  C_1 
REMARK    1  A    between atoms: C_4  and  C_1 
REMARK    2  A    between atoms: C_3  and  N_2 
REMARK    3  A    between atoms: C_5  and  C_6 
ROOT
ATOM      1  C   UNL d   1     -49.233  12.818  22.168  0.00  0.00     0.058 A 
ATOM      2  C   UNL d   1     -47.726  12.729  22.740  0.00  0.00    -0.023 A 
ATOM      3  C   UNL d   1     -49.113  12.466  22.871  0.00  0.00     0.004 A 
ATOM      4  C   UNL d   1     -48.631  13.144  21.706  0.00  0.00     0.004 A 
ATOM      5  C   UNL d   1     -47.866  13.093  22.009  0.00  0.00    -0.004 A 
ATOM      6  C   UNL d   1     -48.344  12.421  23.163  0.00  0.00    -0.004 A 
ENDROOT
BRANCH   1   7
ATOM      7  C   UNL d   1     -50.020  12.858  21.881  0.00  0.00     0.279 C 
ATOM      8  N   UNL d   1     -50.502  13.512  22.040  0.00  0.00    -0.207 NA
ATOM      9  O   UNL d   1     -50.324  12.246  21.438  0.00  0.00    -0.265 OA
BRANCH   8  10
ATOM     10  C   UNL d   1     -50.199  14.128  22.485  0.00  0.00     0.095 A 
ATOM     11  C   UNL d   1     -50.445  14.249  23.235  0.00  0.00     0.075 A 
ATOM     12 CL   UNL d   1     -51.019  13.750  23.588  0.00  0.00    -0.081 Cl
ATOM     13  C   UNL d   1     -50.140  14.876  23.698  0.00  0.00     0.013 A 
ATOM     14  C   UNL d   1     -49.566  15.374  23.345  0.00  0.00     0.001 A 
ATOM     15  C   UNL d   1     -49.323  15.239  22.577  0.00  0.00     0.002 A 
ATOM     16  C   UNL d   1     -49.624  14.637  22.148  0.00  0.00     0.020 A 
ENDBRANCH   8  10
ENDBRANCH   1   7
BRANCH   2  17
ATOM     17  C   UNL d   1     -46.958  12.684  23.032  0.00  0.00     0.019 C 
ATOM     18  C   UNL d   1     -46.686  13.108  22.379  0.00  0.00     0.004 C 
ATOM     19  C   UNL d   1     -47.230  12.260  23.682  0.00  0.00     0.004 C 
ATOM     20  C   UNL d   1     -46.188  12.638  23.324  0.00  0.00     0.004 C 
ENDBRANCH   2  17
TORSDOF 3
ENDMDL
