MODEL 1
REMARK VINA RESULT:      40.9      0.000      0.000
REMARK  3 active torsions:
REMARK  status: ('A' for Active; 'I' for Inactive)
REMARK    1  A    between atoms: N_2  and  C_1 
REMARK       I    between atoms: C_4  and  N_2 
REMARK    2  A    between atoms: C_8  and  C_4 
REMARK    3  A    between atoms: C_10  and  C_5 
ROOT
ATOM      1  C   UNL d   1      13.512  12.892  -3.525  0.00  0.00     0.197 A 
ATOM      2  N   UNL d   1      13.870  13.015  -2.806  0.00  0.00    -0.221 NA
ATOM      3  C   UNL d   1      13.721  12.296  -2.360  0.00  0.00     0.090 A 
ATOM      4  S   UNL d   1      13.149  12.146  -3.560  0.00  0.00    -0.046 SA
ATOM      5  C   UNL d   1      13.275  11.779  -2.849  0.00  0.00     0.058 A 
ENDROOT
BRANCH   1   6
ATOM      6  N   UNL d   1      13.509  13.454  -4.159  0.00  0.00    -0.183 NA
ATOM      7  C   UNL d   1      13.503  14.276  -3.965  0.00  0.00     0.281 C 
ATOM      8  O   UNL d   1      13.499  14.522  -3.173  0.00  0.00    -0.265 OA
BRANCH   7   9
ATOM      9  C   UNL d   1      13.500  14.851  -4.557  0.00  0.00     0.058 A 
ATOM     10  C   UNL d   1      14.216  15.093  -4.865  0.00  0.00     0.005 A 
ATOM     11  C   UNL d   1      14.223  15.677  -5.467  0.00  0.00     0.000 A 
ATOM     12  C   UNL d   1      13.528  16.009  -5.750  0.00  0.00     0.000 A 
ATOM     13  C   UNL d   1      12.796  15.753  -5.425  0.00  0.00     0.000 A 
ATOM     14  C   UNL d   1      13.513  16.539  -6.293  0.00  0.00     0.000 C 
ATOM     15  C   UNL d   1      12.790  15.171  -4.827  0.00  0.00     0.005 A 
ENDBRANCH   7   9
ENDBRANCH   1   6
BRANCH   3  16
ATOM     16  C   UNL d   1      13.961  12.125  -1.596  0.00  0.00     0.018 A 
ATOM     17  C   UNL d   1      14.755  12.079  -1.431  0.00  0.00     0.002 A 
ATOM     18  C   UNL d   1      15.016  11.905  -0.656  0.00  0.00     0.000 A 
ATOM     19  C   UNL d   1      14.474  11.780  -0.053  0.00  0.00     0.000 A 
ATOM     20  C   UNL d   1      13.657  11.826  -0.214  0.00  0.00     0.000 A 
ATOM     21  C   UNL d   1      13.412  12.000  -0.994  0.00  0.00     0.002 A 
ENDBRANCH   3  16
TORSDOF 3
ENDMDL
MODEL 2
REMARK VINA RESULT:      43.8      2.515      3.334
REMARK  3 active torsions:
REMARK  status: ('A' for Active; 'I' for Inactive)
REMARK    1  A    between atoms: N_2  and  C_1 
REMARK       I    between atoms: C_4  and  N_2 
REMARK    2  A    between atoms: C_8  and  C_4 
REMARK    3  A    between atoms: C_10  and  C_5 
ROOT
ATOM      1  C   UNL d   1      14.212  13.445  -1.490  0.00  0.00     0.197 A 
ATOM      2  N   UNL d   1      14.664  14.116  -1.566  0.00  0.00    -0.221 NA
ATOM      3  C   UNL d   1      14.829  14.361  -0.759  0.00  0.00     0.090 A 
ATOM      4  S   UNL d   1      14.083  13.253  -0.693  0.00  0.00    -0.046 SA
ATOM      5  C   UNL d   1      14.459  13.812  -0.243  0.00  0.00     0.058 A 
ENDROOT
BRANCH   1   6
ATOM      6  N   UNL d   1      13.911  12.997  -2.144  0.00  0.00    -0.183 NA
ATOM      7  C   UNL d   1      13.892  13.362  -2.904  0.00  0.00     0.281 C 
ATOM      8  O   UNL d   1      14.163  14.139  -3.006  0.00  0.00    -0.265 OA
BRANCH   7   9
ATOM      9  C   UNL d   1      13.606  12.956  -3.563  0.00  0.00     0.058 A 
ATOM     10  C   UNL d   1      13.622  13.332  -4.287  0.00  0.00     0.005 A 
ATOM     11  C   UNL d   1      13.332  12.927  -4.962  0.00  0.00     0.000 A 
ATOM     12  C   UNL d   1      13.035  12.164  -4.910  0.00  0.00     0.000 A 
ATOM     13  C   UNL d   1      13.023  11.786  -4.158  0.00  0.00     0.000 A 
ATOM     14  C   UNL d   1      12.769  11.780  -5.507  0.00  0.00     0.000 C 
ATOM     15  C   UNL d   1      13.311  12.189  -3.487  0.00  0.00     0.005 A 
ENDBRANCH   7   9
ENDBRANCH   1   6
BRANCH   3  16
ATOM     16  C   UNL d   1      15.265  15.011  -0.516  0.00  0.00     0.018 A 
ATOM     17  C   UNL d   1      16.035  14.904  -0.278  0.00  0.00     0.002 A 
ATOM     18  C   UNL d   1      16.494  15.557  -0.027  0.00  0.00     0.000 A 
ATOM     19  C   UNL d   1      16.172  16.311  -0.018  0.00  0.00     0.000 A 
ATOM     20  C   UNL d   1      15.383  16.430  -0.260  0.00  0.00     0.000 A 
ATOM     21  C   UNL d   1      14.938  15.767  -0.508  0.00  0.00     0.002 A 
ENDBRANCH   3  16
TORSDOF 3
ENDMDL
