MODEL 1
REMARK VINA RESULT:      84.9      0.000      0.000
REMARK  2 active torsions:
REMARK  status: ('A' for Active; 'I' for Inactive)
REMARK    1  A    between atoms: N_10  and  C_5 
REMARK    2  A    between atoms: C_22  and  N_12 
ROOT
ATOM      1  N   UNL d   1      58.770  49.381  50.971  0.00  0.00    -0.175 N 
ATOM      2  C   UNL d   1      58.985  49.416  50.169  0.00  0.00     0.167 A 
ATOM      3  N   UNL d   1      59.348  49.429  51.572  0.00  0.00    -0.143 NA
ATOM      4  C   UNL d   1      57.974  49.296  51.196  0.00  0.00     0.283 A 
ATOM      5  C   UNL d   1      60.143  49.513  51.347  0.00  0.00     0.168 A 
ATOM      6  N   UNL d   1      58.404  49.367  49.598  0.00  0.00    -0.227 NA
ATOM      7  C   UNL d   1      57.401  49.248  50.597  0.00  0.00     0.076 A 
ATOM      8  C   UNL d   1      59.778  49.500  49.974  0.00  0.00     0.039 A 
ATOM      9  C   UNL d   1      60.359  49.549  50.545  0.00  0.00     0.039 A 
ATOM     10  C   UNL d   1      57.617  49.284  49.795  0.00  0.00     0.088 A 
ATOM     11  O   UNL d   1      57.764  49.261  51.974  0.00  0.00    -0.265 OA
ATOM     12  C   UNL d   1      56.606  49.164  50.822  0.00  0.00     0.006 A 
ATOM     13  C   UNL d   1      59.994  49.536  49.172  0.00  0.00     0.003 A 
ATOM     14  C   UNL d   1      61.146  49.633  50.348  0.00  0.00     0.003 A 
ATOM     15  C   UNL d   1      57.036  49.235  49.224  0.00  0.00     0.019 A 
ATOM     16  C   UNL d   1      56.033  49.116  50.223  0.00  0.00     0.000 A 
ATOM     17  C   UNL d   1      60.780  49.619  48.982  0.00  0.00     0.000 A 
ATOM     18  C   UNL d   1      61.362  49.669  49.546  0.00  0.00     0.000 A 
ATOM     19  C   UNL d   1      56.249  49.152  49.421  0.00  0.00     0.002 A 
ENDROOT
BRANCH   5  20
ATOM     20  N   UNL d   1      60.716  49.561  51.946  0.00  0.00    -0.285 N 
ATOM     21  C   UNL d   1      60.502  49.636  52.720  0.00  0.00     0.101 A 
ATOM     22  C   UNL d   1      61.081  49.681  53.297  0.00  0.00     0.100 A 
ATOM     23  N   UNL d   1      61.874  49.652  53.099  0.00  0.00    -0.300 N 
ATOM     24  C   UNL d   1      62.089  49.577  52.324  0.00  0.00     0.100 A 
ATOM     25  C   UNL d   1      61.516  49.530  51.725  0.00  0.00     0.101 A 
BRANCH  23  26
ATOM     26  C   UNL d   1      62.454  49.698  53.676  0.00  0.00     0.080 C 
ATOM     27  C   UNL d   1      62.464  49.143  54.287  0.00  0.00     0.021 C 
ENDBRANCH  23  26
ENDBRANCH   5  20
TORSDOF 2
ENDMDL
