MODEL 1
REMARK VINA RESULT:     103.8      0.000      0.000
REMARK  4 active torsions:
REMARK  status: ('A' for Active; 'I' for Inactive)
REMARK    1  A    between atoms: N_5  and  S_1 
REMARK    2  A    between atoms: C_8  and  S_1 
REMARK    3  A    between atoms: C_2  and  C_11 
REMARK       I    between atoms: C_12  and  N_13 
REMARK    4  A    between atoms: N_13  and  C_21 
ROOT
ATOM      1  N   UNL d   1      41.756 -16.101  37.093  0.00  0.00    -0.229 N 
ATOM      2  C   UNL d   1      40.195 -17.030  37.229  0.00  0.00     0.039 A 
ATOM      3  C   UNL d   1      41.283 -16.092  37.878  0.00  0.00     0.092 A 
ATOM      4  C   UNL d   1      41.447 -16.575  36.379  0.00  0.00     0.092 A 
ATOM      5  C   UNL d   1      40.661 -17.043  36.445  0.00  0.00     0.023 A 
ATOM      6  C   UNL d   1      40.504 -16.556  37.943  0.00  0.00     0.023 A 
ENDROOT
BRANCH   1   7
ATOM      7  S   UNL d   1      42.465 -15.677  37.035  0.00  0.00     0.271 S 
ATOM      8  O   UNL d   1      42.796 -16.285  36.581  0.00  0.00    -0.200 OA
ATOM      9  O   UNL d   1      42.131 -15.071  37.491  0.00  0.00    -0.200 OA
BRANCH   7  10
ATOM     10  C   UNL d   1      43.166 -15.243  36.987  0.00  0.00     0.104 A 
ATOM     11  C   UNL d   1      43.694 -15.364  36.380  0.00  0.00     0.015 A 
ATOM     12  C   UNL d   1      44.391 -14.932  36.332  0.00  0.00     0.033 A 
ATOM     13  C   UNL d   1      44.556 -14.359  36.919  0.00  0.00     0.135 A 
ATOM     14  C   UNL d   1      44.022 -14.230  37.541  0.00  0.00     0.033 A 
ATOM     15  C   UNL d   1      43.324 -14.675  37.573  0.00  0.00     0.015 A 
BRANCH  13  16
ATOM     16  N   UNL d   1      45.252 -13.920  36.880  0.00  0.00    -0.365 NA
ATOM     17  C   UNL d   1      45.955 -13.481  36.847  0.00  0.00     0.328 C 
ATOM     18  O   UNL d   1      46.165 -13.743  37.597  0.00  0.00    -0.251 OA
ATOM     19  C   UNL d   1      46.646 -13.041  36.802  0.00  0.00     0.082 C 
ENDBRANCH  13  16
ENDBRANCH   7  10
ENDBRANCH   1   7
BRANCH   2  20
ATOM     20  C   UNL d   1      39.410 -17.498  37.295  0.00  0.00     0.163 A 
ATOM     21  N   UNL d   1      39.035 -17.628  37.940  0.00  0.00    -0.225 NA
ATOM     22  C   UNL d   1      38.417 -18.030  37.771  0.00  0.00     0.101 A 
ATOM     23  C   UNL d   1      37.862 -18.300  38.220  0.00  0.00     0.021 A 
ATOM     24  C   UNL d   1      38.409 -18.150  37.025  0.00  0.00     0.101 A 
ATOM     25  C   UNL d   1      37.298 -18.693  37.897  0.00  0.00     0.002 A 
ATOM     26  C   UNL d   1      37.286 -18.815  37.148  0.00  0.00     0.002 A 
ATOM     27  C   UNL d   1      37.837 -18.544  36.722  0.00  0.00     0.021 A 
ATOM     28  N   UNL d   1      39.022 -17.821  36.728  0.00  0.00    -0.225 NA
ENDBRANCH   2  20
TORSDOF 4
ENDMDL
MODEL 2
REMARK VINA RESULT:     105.6      1.330      6.634
REMARK  4 active torsions:
REMARK  status: ('A' for Active; 'I' for Inactive)
REMARK    1  A    between atoms: N_5  and  S_1 
REMARK    2  A    between atoms: C_8  and  S_1 
REMARK    3  A    between atoms: C_2  and  C_11 
REMARK       I    between atoms: C_12  and  N_13 
REMARK    4  A    between atoms: N_13  and  C_21 
ROOT
ATOM      1  N   UNL d   1      42.112 -15.979  37.100  0.00  0.00    -0.229 N 
ATOM      2  C   UNL d   1      43.657 -15.016  37.143  0.00  0.00     0.039 A 
ATOM      3  C   UNL d   1      42.552 -15.854  37.893  0.00  0.00     0.092 A 
ATOM      4  C   UNL d   1      42.445 -15.622  36.330  0.00  0.00     0.092 A 
ATOM      5  C   UNL d   1      43.223 -15.137  36.350  0.00  0.00     0.023 A 
ATOM      6  C   UNL d   1      43.323 -15.373  37.913  0.00  0.00     0.023 A 
ENDROOT
BRANCH   1   7
ATOM      7  S   UNL d   1      41.409 -16.417  37.083  0.00  0.00     0.271 S 
ATOM      8  O   UNL d   1      40.993 -15.749  36.828  0.00  0.00    -0.200 OA
ATOM      9  O   UNL d   1      41.829 -17.084  37.339  0.00  0.00    -0.200 OA
BRANCH   7  10
ATOM     10  C   UNL d   1      40.717 -16.868  37.072  0.00  0.00     0.104 A 
ATOM     11  C   UNL d   1      40.230 -16.907  37.722  0.00  0.00     0.015 A 
ATOM     12  C   UNL d   1      39.542 -17.354  37.710  0.00  0.00     0.033 A 
ATOM     13  C   UNL d   1      39.343 -17.776  37.016  0.00  0.00     0.135 A 
ATOM     14  C   UNL d   1      39.834 -17.741  36.348  0.00  0.00     0.033 A 
ATOM     15  C   UNL d   1      40.524 -17.285  36.378  0.00  0.00     0.015 A 
BRANCH  13  16
ATOM     16  N   UNL d   1      38.654 -18.228  36.994  0.00  0.00    -0.365 NA
ATOM     17  C   UNL d   1      37.958 -18.678  36.969  0.00  0.00     0.328 C 
ATOM     18  O   UNL d   1      37.537 -18.030  36.688  0.00  0.00    -0.251 OA
ATOM     19  C   UNL d   1      37.276 -19.134  36.949  0.00  0.00     0.082 C 
ENDBRANCH  13  16
ENDBRANCH   7  10
ENDBRANCH   1   7
BRANCH   2  20
ATOM     20  C   UNL d   1      44.434 -14.531  37.163  0.00  0.00     0.163 A 
ATOM     21  N   UNL d   1      44.608 -14.010  37.686  0.00  0.00    -0.225 NA
ATOM     22  C   UNL d   1      45.291 -13.733  37.516  0.00  0.00     0.101 A 
ATOM     23  C   UNL d   1      45.711 -13.200  37.867  0.00  0.00     0.021 A 
ATOM     24  C   UNL d   1      45.540 -14.079  36.893  0.00  0.00     0.101 A 
ATOM     25  C   UNL d   1      46.389 -13.026  37.572  0.00  0.00     0.002 A 
ATOM     26  C   UNL d   1      46.643 -13.372  36.946  0.00  0.00     0.002 A 
ATOM     27  C   UNL d   1      46.219 -13.891  36.614  0.00  0.00     0.021 A 
ATOM     28  N   UNL d   1      45.011 -14.573  36.673  0.00  0.00    -0.225 NA
ENDBRANCH   2  20
TORSDOF 4
ENDMDL
