MODEL 1
REMARK VINA RESULT:      21.9      0.000      0.000
REMARK  2 active torsions:
REMARK  status: ('A' for Active; 'I' for Inactive)
REMARK    1  A    between atoms: C_12  and  C_9 
REMARK    2  A    between atoms: N_15  and  C_12 
ROOT
ATOM      1  C   UNL d   1      13.625  12.881  -3.199  0.00  0.00     0.176 A 
ATOM      2  C   UNL d   1      13.786  13.686  -3.119  0.00  0.00     0.174 A 
ATOM      3  N   UNL d   1      13.284  12.593  -3.912  0.00  0.00    -0.240 N 
ATOM      4  N   UNL d   1      13.273  13.921  -4.443  0.00  0.00    -0.223 N 
ATOM      5  C   UNL d   1      13.110  13.103  -4.525  0.00  0.00     0.343 A 
ATOM      6  C   UNL d   1      13.607  14.216  -3.749  0.00  0.00     0.289 A 
ATOM      7  N   UNL d   1      13.792  12.352  -2.597  0.00  0.00    -0.206 NA
ATOM      8  N   UNL d   1      14.295  13.448  -1.803  0.00  0.00    -0.217 NA
ATOM      9  C   UNL d   1      14.127  12.633  -1.897  0.00  0.00     0.182 A 
ATOM     10  O   UNL d   1      12.773  12.818  -5.229  0.00  0.00    -0.245 OA
ATOM     11  O   UNL d   1      13.769  15.025  -3.668  0.00  0.00    -0.265 OA
ATOM     12  C   UNL d   1      13.122  11.780  -3.993  0.00  0.00     0.105 C 
ATOM     13  C   UNL d   1      13.086  14.468  -5.100  0.00  0.00     0.107 C 
ENDROOT
BRANCH   9  14
ATOM     14  C   UNL d   1      14.218  11.973  -1.428  0.00  0.00     0.120 C 
BRANCH  14  15
ATOM     15  N   UNL d   1      14.318  11.852  -0.644  0.00  0.00    -0.297 N 
ATOM     16  C   UNL d   1      13.679  11.779  -0.157  0.00  0.00     0.100 C 
ATOM     17  C   UNL d   1      15.063  11.802  -0.340  0.00  0.00     0.100 C 
ENDBRANCH  14  15
ENDBRANCH   9  14
TORSDOF 2
ENDMDL
