MODEL 1
REMARK VINA RESULT:       8.3      0.000      0.000
REMARK  7 active torsions:
REMARK  status: ('A' for Active; 'I' for Inactive)
REMARK    1  A    between atoms: C_8  and  N_2 
REMARK    2  A    between atoms: C_13  and  C_8 
REMARK    3  A    between atoms: O_17  and  C_13 
REMARK    4  A    between atoms: O_18  and  C_15 
REMARK    5  A    between atoms: C_21  and  O_17 
REMARK    6  A    between atoms: C_23  and  C_21 
REMARK    7  A    between atoms: C_24  and  C_23 
ROOT
ATOM      1  C   UNL d   1     -41.606-122.019 -52.437  0.00  0.00     0.166 A 
ATOM      2  N   UNL d   1     -41.499-121.610 -51.736  0.00  0.00    -0.285 N 
ATOM      3  C   UNL d   1     -42.010-122.720 -52.263  0.00  0.00     0.117 A 
ATOM      4  C   UNL d   1     -42.150-122.742 -51.453  0.00  0.00     0.039 A 
ATOM      5  C   UNL d   1     -41.834-122.054 -51.123  0.00  0.00     0.067 A 
ATOM      6  N   UNL d   1     -41.392-121.848 -53.209  0.00  0.00    -0.225 NA
ATOM      7  N   UNL d   1     -42.200-123.257 -52.868  0.00  0.00    -0.241 NA
ATOM      8  C   UNL d   1     -41.579-122.380 -53.821  0.00  0.00     0.101 A 
ATOM      9  C   UNL d   1     -41.982-123.082 -53.648  0.00  0.00     0.099 A 
ATOM     10  C   UNL d   1     -41.892-121.920 -50.310  0.00  0.00     0.020 A 
ATOM     11  C   UNL d   1     -42.524-123.296 -50.971  0.00  0.00     0.027 A 
ATOM     12  C   UNL d   1     -42.581-123.162 -50.159  0.00  0.00     0.094 A 
ATOM     13  C   UNL d   1     -42.266-122.475 -49.828  0.00  0.00     0.026 A 
ATOM     14  C   UNL d   1     -42.168-123.607 -54.251  0.00  0.00     0.021 A 
ATOM     15  C   UNL d   1     -41.362-122.205 -54.593  0.00  0.00     0.021 A 
ATOM     16  C   UNL d   1     -41.950-123.432 -55.027  0.00  0.00     0.002 A 
ATOM     17  C   UNL d   1     -41.546-122.730 -55.205  0.00  0.00     0.002 A 
ENDROOT
BRANCH   2  18
ATOM     18  C   UNL d   1     -41.123-120.883 -51.652  0.00  0.00     0.151 C 
BRANCH  18  19
ATOM     19  C   UNL d   1     -41.539-120.192 -51.824  0.00  0.00     0.318 C 
ATOM     20  O   UNL d   1     -42.224-120.002 -51.413  0.00  0.00    -0.257 OA
BRANCH  19  21
ATOM     21  O   UNL d   1     -41.263-119.689 -52.413  0.00  0.00    -0.270 OA
BRANCH  21  22
ATOM     22  C   UNL d   1     -41.424-118.884 -52.372  0.00  0.00     0.126 C 
BRANCH  22  23
ATOM     23  C   UNL d   1     -41.151-118.385 -52.967  0.00  0.00     0.027 C 
BRANCH  23  24
ATOM     24  C   UNL d   1     -41.191-117.567 -52.868  0.00  0.00     0.002 C 
ATOM     25  C   UNL d   1     -41.123-117.067 -53.518  0.00  0.00     0.000 C 
ENDBRANCH  23  24
ENDBRANCH  22  23
ENDBRANCH  21  22
ENDBRANCH  19  21
ENDBRANCH  18  19
ENDBRANCH   2  18
BRANCH  12  26
ATOM     26  O   UNL d   1     -42.954-123.717 -49.681  0.00  0.00    -0.328 OA
ATOM     27  C   UNL d   1     -42.717-123.817 -48.906  0.00  0.00     0.181 C 
ENDBRANCH  12  26
TORSDOF 7
ENDMDL
MODEL 2
REMARK VINA RESULT:       9.7      1.048      3.237
REMARK  7 active torsions:
REMARK  status: ('A' for Active; 'I' for Inactive)
REMARK    1  A    between atoms: C_8  and  N_2 
REMARK    2  A    between atoms: C_13  and  C_8 
REMARK    3  A    between atoms: O_17  and  C_13 
REMARK    4  A    between atoms: O_18  and  C_15 
REMARK    5  A    between atoms: C_21  and  O_17 
REMARK    6  A    between atoms: C_23  and  C_21 
REMARK    7  A    between atoms: C_24  and  C_23 
ROOT
ATOM      1  C   UNL d   1     -41.755-122.044 -51.190  0.00  0.00     0.166 A 
ATOM      2  N   UNL d   1     -41.443-121.569 -51.779  0.00  0.00    -0.285 N 
ATOM      3  C   UNL d   1     -42.011-122.748 -51.540  0.00  0.00     0.117 A 
ATOM      4  C   UNL d   1     -41.856-122.705 -52.347  0.00  0.00     0.039 A 
ATOM      5  C   UNL d   1     -41.503-121.974 -52.498  0.00  0.00     0.067 A 
ATOM      6  N   UNL d   1     -41.840-121.930 -50.383  0.00  0.00    -0.225 NA
ATOM      7  N   UNL d   1     -42.356-123.346 -51.079  0.00  0.00    -0.241 NA
ATOM      8  C   UNL d   1     -42.185-122.525 -49.913  0.00  0.00     0.101 A 
ATOM      9  C   UNL d   1     -42.442-123.229 -50.263  0.00  0.00     0.099 A 
ATOM     10  C   UNL d   1     -41.283-121.772 -53.268  0.00  0.00     0.020 A 
ATOM     11  C   UNL d   1     -41.988-123.234 -52.965  0.00  0.00     0.027 A 
ATOM     12  C   UNL d   1     -41.768-123.032 -53.734  0.00  0.00     0.094 A 
ATOM     13  C   UNL d   1     -41.416-122.302 -53.886  0.00  0.00     0.026 A 
ATOM     14  C   UNL d   1     -42.782-123.816 -49.800  0.00  0.00     0.021 A 
ATOM     15  C   UNL d   1     -42.269-122.407 -49.105  0.00  0.00     0.021 A 
ATOM     16  C   UNL d   1     -42.866-123.698 -48.988  0.00  0.00     0.002 A 
ATOM     17  C   UNL d   1     -42.611-122.994 -48.634  0.00  0.00     0.002 A 
ENDROOT
BRANCH   2  18
ATOM     18  C   UNL d   1     -41.123-120.817 -51.677  0.00  0.00     0.151 C 
BRANCH  18  19
ATOM     19  C   UNL d   1     -41.630-120.173 -51.584  0.00  0.00     0.318 C 
ATOM     20  O   UNL d   1     -42.437-120.286 -51.482  0.00  0.00    -0.257 OA
BRANCH  19  21
ATOM     21  O   UNL d   1     -41.322-119.410 -51.592  0.00  0.00    -0.270 OA
BRANCH  21  22
ATOM     22  C   UNL d   1     -41.633-118.850 -52.106  0.00  0.00     0.126 C 
BRANCH  22  23
ATOM     23  C   UNL d   1     -41.127-118.425 -52.597  0.00  0.00     0.027 C 
BRANCH  23  24
ATOM     24  C   UNL d   1     -41.181-117.602 -52.631  0.00  0.00     0.002 C 
ATOM     25  C   UNL d   1     -41.157-117.215 -53.357  0.00  0.00     0.000 C 
ENDBRANCH  23  24
ENDBRANCH  22  23
ENDBRANCH  21  22
ENDBRANCH  19  21
ENDBRANCH  18  19
ENDBRANCH   2  18
BRANCH  12  26
ATOM     26  O   UNL d   1     -41.902-123.561 -54.348  0.00  0.00    -0.328 OA
ATOM     27  C   UNL d   1     -41.317-123.710 -54.897  0.00  0.00     0.181 C 
ENDBRANCH  12  26
TORSDOF 7
ENDMDL
