MODEL 1
REMARK VINA RESULT:      -1.4      0.000      0.000
REMARK  9 active torsions:
REMARK  status: ('A' for Active; 'I' for Inactive)
REMARK    1  A    between atoms: N_2  and  S_1 
REMARK    2  A    between atoms: C_5  and  S_1 
REMARK    3  A    between atoms: C_15  and  C_3 
REMARK       I    between atoms: C_4  and  N_11 
REMARK    4  A    between atoms: C_7  and  C_4 
REMARK       I    between atoms: N_22  and  C_7 
REMARK    5  A    between atoms: N_8  and  C_28 
REMARK    6  A    between atoms: N_11  and  C_15 
REMARK    7  A    between atoms: C_30  and  N_22 
REMARK    8  A    between atoms: C_28  and  C_29 
REMARK    9  A    between atoms: C_29  and  C_30 
ROOT
ATOM      1  N   UNL d   1      60.300  -0.525  29.007  0.00  0.00    -0.207 N 
ATOM      2  C   UNL d   1      60.230   0.047  29.588  0.00  0.00     0.197 A 
ATOM      3  O   UNL d   1      60.728   0.679  29.414  0.00  0.00    -0.285 OA
ATOM      4  C   UNL d   1      60.854  -0.250  28.455  0.00  0.00     0.120 A 
ATOM      5  C   UNL d   1      61.124   0.497  28.700  0.00  0.00     0.144 A 
ENDROOT
BRANCH   2   6
ATOM      6  C   UNL d   1      59.737   0.005  30.249  0.00  0.00     0.146 C 
BRANCH   6   7
ATOM      7  N   UNL d   1      60.023   0.199  30.996  0.00  0.00    -0.199 NA
ATOM      8  C   UNL d   1      59.508   0.477  31.570  0.00  0.00     0.337 C 
ATOM      9  O   UNL d   1      59.794   0.672  32.317  0.00  0.00    -0.260 OA
BRANCH   8  10
ATOM     10  C   UNL d   1      58.703   0.564  31.405  0.00  0.00     0.337 C 
ATOM     11  O   UNL d   1      58.452   0.621  30.624  0.00  0.00    -0.260 OA
ATOM     12  N   UNL d   1      58.161   0.593  32.007  0.00  0.00    -0.202 NA
BRANCH  12  13
ATOM     13  C   UNL d   1      57.353   0.680  31.848  0.00  0.00     0.104 C 
BRANCH  13  14
ATOM     14  C   UNL d   1      56.793   0.239  32.254  0.00  0.00     0.040 C 
BRANCH  14  15
ATOM     15  C   UNL d   1      56.064   0.549  32.431  0.00  0.00     0.083 C 
BRANCH  15  16
ATOM     16  N   UNL d   1      55.675   0.348  33.123  0.00  0.00    -0.285 N 
ATOM     17  C   UNL d   1      55.070  -0.210  33.029  0.00  0.00     0.183 A 
ATOM     18  N   UNL d   1      54.731  -0.358  33.766  0.00  0.00    -0.222 NA
ATOM     19  C   UNL d   1      55.127   0.109  34.323  0.00  0.00     0.120 A 
ATOM     20  C   UNL d   1      55.708   0.544  33.926  0.00  0.00     0.102 A 
ENDBRANCH  15  16
ENDBRANCH  14  15
ENDBRANCH  13  14
ENDBRANCH  12  13
ENDBRANCH   8  10
ENDBRANCH   6   7
ENDBRANCH   2   6
BRANCH   1  21
ATOM     21  S   UNL d   1      59.900  -1.240  28.972  0.00  0.00     0.273 S 
ATOM     22  O   UNL d   1      60.510  -1.602  29.388  0.00  0.00    -0.200 OA
ATOM     23  O   UNL d   1      59.291  -0.880  28.557  0.00  0.00    -0.200 OA
BRANCH  21  24
ATOM     24  C   UNL d   1      59.500  -1.957  28.937  0.00  0.00     0.104 A 
ATOM     25  C   UNL d   1      58.739  -1.993  28.592  0.00  0.00     0.013 A 
ATOM     26  C   UNL d   1      58.338  -2.709  28.557  0.00  0.00     0.007 A 
ATOM     27  C   UNL d   1      58.689  -3.400  28.865  0.00  0.00     0.035 A 
ATOM     28  C   UNL d   1      59.443  -3.359  29.205  0.00  0.00     0.007 A 
ATOM     29 BR   UNL d   1      58.290  -4.120  28.831  0.00  0.00    -0.049 Br
ATOM     30  C   UNL d   1      59.843  -2.643  29.240  0.00  0.00     0.013 A 
ENDBRANCH  21  24
ENDBRANCH   1  21
TORSDOF 9
ENDMDL
