MODEL 1
REMARK VINA RESULT:      -3.7      0.000      0.000
REMARK  6 active torsions:
REMARK  status: ('A' for Active; 'I' for Inactive)
REMARK       I    between atoms: C_2  and  N_1 
REMARK    1  A    between atoms: C_3  and  C_2 
REMARK    2  A    between atoms: C_12  and  C_4 
REMARK       I    between atoms: C_5  and  N_8 
REMARK    3  A    between atoms: C_6  and  C_5 
REMARK       I    between atoms: N_9  and  C_6 
REMARK    4  A    between atoms: N_8  and  C_12 
REMARK    5  A    between atoms: C_19  and  N_9 
REMARK    6  A    between atoms: C_21  and  C_19 
ROOT
ATOM      1  C   UNL d   1      58.284  -0.143  30.604  0.00  0.00     0.337 C 
ATOM      2  N   UNL d   1      58.713  -0.466  29.982  0.00  0.00    -0.199 NA
ATOM      3  O   UNL d   1      58.595  -0.155  31.377  0.00  0.00    -0.260 OA
ENDROOT
BRANCH   2   4
ATOM      4  C   UNL d   1      59.452  -0.802  30.124  0.00  0.00     0.146 C 
BRANCH   4   5
ATOM      5  C   UNL d   1      59.968  -0.951  29.485  0.00  0.00     0.190 A 
ATOM      6  N   UNL d   1      60.187  -1.700  29.220  0.00  0.00    -0.250 N 
ATOM      7  C   UNL d   1      59.984  -2.464  29.477  0.00  0.00     0.272 C 
ATOM      8  C   UNL d   1      60.702  -1.586  28.581  0.00  0.00     0.112 A 
ATOM      9  O   UNL d   1      59.468  -2.561  30.118  0.00  0.00    -0.266 OA
ATOM     10  C   UNL d   1      60.795  -0.778  28.459  0.00  0.00     0.144 A 
ATOM     11  O   UNL d   1      60.332  -0.387  29.030  0.00  0.00    -0.285 OA
BRANCH   7  12
ATOM     12  C   UNL d   1      60.295  -3.127  29.098  0.00  0.00     0.086 A 
ATOM     13  S   UNL d   1      61.043  -3.269  28.765  0.00  0.00    -0.082 SA
ATOM     14  C   UNL d   1      61.037  -4.049  28.455  0.00  0.00     0.036 A 
ATOM     15  C   UNL d   1      60.289  -4.370  28.602  0.00  0.00     0.008 A 
ATOM     16  C   UNL d   1      59.830  -3.810  28.995  0.00  0.00     0.012 A 
ENDBRANCH   7  12
ENDBRANCH   4   5
ENDBRANCH   2   4
BRANCH   1  17
ATOM     17  C   UNL d   1      57.556   0.188  30.464  0.00  0.00     0.337 C 
ATOM     18  N   UNL d   1      56.961   0.149  31.023  0.00  0.00    -0.202 NA
ATOM     19  O   UNL d   1      57.411   0.576  29.740  0.00  0.00    -0.260 OA
BRANCH  18  20
ATOM     20  C   UNL d   1      57.101  -0.237  31.746  0.00  0.00     0.102 C 
BRANCH  20  21
ATOM     21  C   UNL d   1      56.502  -0.238  32.330  0.00  0.00     0.019 A 
ATOM     22  C   UNL d   1      56.185  -0.940  32.613  0.00  0.00     0.004 A 
ATOM     23  C   UNL d   1      55.595  -0.924  33.189  0.00  0.00     0.030 A 
ATOM     24  C   UNL d   1      55.316  -0.216  33.487  0.00  0.00     0.140 A 
ATOM     25  C   UNL d   1      55.628   0.491  33.209  0.00  0.00     0.030 A 
ATOM     26  F   UNL d   1      54.720  -0.210  34.068  0.00  0.00    -0.204 F 
ATOM     27  C   UNL d   1      56.217   0.486  32.635  0.00  0.00     0.004 A 
ENDBRANCH  20  21
ENDBRANCH  18  20
ENDBRANCH   1  17
TORSDOF 6
ENDMDL
MODEL 2
REMARK VINA RESULT:      -3.4      8.140      8.781
REMARK  6 active torsions:
REMARK  status: ('A' for Active; 'I' for Inactive)
REMARK       I    between atoms: C_2  and  N_1 
REMARK    1  A    between atoms: C_3  and  C_2 
REMARK    2  A    between atoms: C_12  and  C_4 
REMARK       I    between atoms: C_5  and  N_8 
REMARK    3  A    between atoms: C_6  and  C_5 
REMARK       I    between atoms: N_9  and  C_6 
REMARK    4  A    between atoms: N_8  and  C_12 
REMARK    5  A    between atoms: C_19  and  N_9 
REMARK    6  A    between atoms: C_21  and  C_19 
ROOT
ATOM      1  C   UNL d   1      59.166  -9.460  34.657  0.00  0.00     0.337 C 
ATOM      2  N   UNL d   1      58.685  -9.393  33.993  0.00  0.00    -0.199 NA
ATOM      3  O   UNL d   1      59.915  -9.818  34.595  0.00  0.00    -0.260 OA
ENDROOT
BRANCH   2   4
ATOM      4  C   UNL d   1      58.946  -9.681  33.266  0.00  0.00     0.146 C 
BRANCH   4   5
ATOM      5  C   UNL d   1      58.444  -9.639  32.601  0.00  0.00     0.190 A 
ATOM      6  N   UNL d   1      58.698  -9.669  31.817  0.00  0.00    -0.250 N 
ATOM      7  C   UNL d   1      59.453  -9.743  31.476  0.00  0.00     0.272 C 
ATOM      8  C   UNL d   1      58.020  -9.609  31.344  0.00  0.00     0.112 A 
ATOM      9  O   UNL d   1      60.121  -9.802  31.963  0.00  0.00    -0.266 OA
ATOM     10  C   UNL d   1      57.363  -9.543  31.835  0.00  0.00     0.144 A 
ATOM     11  O   UNL d   1      57.637  -9.563  32.621  0.00  0.00    -0.285 OA
BRANCH   7  12
ATOM     12  C   UNL d   1      59.540  -9.757  30.657  0.00  0.00     0.086 A 
ATOM     13  S   UNL d   1      58.979  -9.813  30.045  0.00  0.00    -0.082 SA
ATOM     14  C   UNL d   1      59.398  -9.801  29.318  0.00  0.00     0.036 A 
ATOM     15  C   UNL d   1      60.203  -9.739  29.495  0.00  0.00     0.008 A 
ATOM     16  C   UNL d   1      60.297  -9.712  30.313  0.00  0.00     0.012 A 
ENDBRANCH   7  12
ENDBRANCH   4   5
ENDBRANCH   2   4
BRANCH   1  17
ATOM     17  C   UNL d   1      58.908  -9.176  35.373  0.00  0.00     0.337 C 
ATOM     18  N   UNL d   1      59.275  -8.539  35.729  0.00  0.00    -0.202 NA
ATOM     19  O   UNL d   1      58.260  -9.538  35.752  0.00  0.00    -0.260 OA
BRANCH  18  20
ATOM     20  C   UNL d   1      59.922  -8.174  35.354  0.00  0.00     0.102 C 
BRANCH  20  21
ATOM     21  C   UNL d   1      60.154  -7.408  35.597  0.00  0.00     0.019 A 
ATOM     22  C   UNL d   1      60.918  -7.135  35.471  0.00  0.00     0.004 A 
ATOM     23  C   UNL d   1      61.132  -6.377  35.716  0.00  0.00     0.030 A 
ATOM     24  C   UNL d   1      60.593  -5.887  36.085  0.00  0.00     0.140 A 
ATOM     25  C   UNL d   1      59.827  -6.152  36.215  0.00  0.00     0.030 A 
ATOM     26  F   UNL d   1      60.818  -5.123  36.329  0.00  0.00    -0.204 F 
ATOM     27  C   UNL d   1      59.604  -6.907  35.974  0.00  0.00     0.004 A 
ENDBRANCH  20  21
ENDBRANCH  18  20
ENDBRANCH   1  17
TORSDOF 6
ENDMDL
