MODEL 1
REMARK VINA RESULT:      19.4      0.000      0.000
REMARK  4 active torsions:
REMARK  status: ('A' for Active; 'I' for Inactive)
REMARK    1  A    between atoms: C_9  and  C_4 
REMARK    2  A    between atoms: C_7  and  C_11 
REMARK    3  A    between atoms: O_12  and  C_7 
REMARK    4  A    between atoms: C_11  and  C_9 
ROOT
ATOM      1  N   UNL d   1      14.504  13.764  -1.551  0.00  0.00    -0.239 NA
ATOM      2  N   UNL d   1      15.376  13.284  -0.230  0.00  0.00    -0.205 NA
ATOM      3  C   UNL d   1      14.951  12.730  -0.671  0.00  0.00     0.297 A 
ATOM      4  C   UNL d   1      14.512  12.970  -1.337  0.00  0.00     0.139 A 
ATOM      5  C   UNL d   1      14.928  14.314  -1.111  0.00  0.00     0.099 A 
ATOM      6  C   UNL d   1      15.363  14.077  -0.452  0.00  0.00     0.102 A 
ATOM      7  O   UNL d   1      14.958  11.932  -0.456  0.00  0.00    -0.264 OA
ATOM      8  C   UNL d   1      14.915  15.111  -1.333  0.00  0.00     0.021 A 
ATOM      9  C   UNL d   1      15.786  14.637  -0.014  0.00  0.00     0.021 A 
ATOM     10  C   UNL d   1      15.773  15.429  -0.236  0.00  0.00     0.002 A 
ATOM     11  C   UNL d   1      15.338  15.666  -0.896  0.00  0.00     0.002 A 
ENDROOT
BRANCH   4  12
ATOM     12  C   UNL d   1      14.090  12.414  -1.773  0.00  0.00     0.029 C 
BRANCH  12  13
ATOM     13  C   UNL d   1      14.017  12.497  -2.586  0.00  0.00     0.070 C 
BRANCH  13  14
ATOM     14  C   UNL d   1      13.443  12.060  -2.993  0.00  0.00     0.296 C 
ATOM     15  O   UNL d   1      12.774  11.779  -2.601  0.00  0.00    -0.259 OA
BRANCH  14  16
ATOM     16  O   UNL d   1      13.544  11.903  -3.803  0.00  0.00    -0.296 OA
ATOM     17  C   UNL d   1      12.885  11.792  -4.287  0.00  0.00     0.185 C 
ENDBRANCH  14  16
ENDBRANCH  13  14
ENDBRANCH  12  13
ENDBRANCH   4  12
TORSDOF 4
ENDMDL
MODEL 2
REMARK VINA RESULT:      19.9      1.743      2.508
REMARK  4 active torsions:
REMARK  status: ('A' for Active; 'I' for Inactive)
REMARK    1  A    between atoms: C_9  and  C_4 
REMARK    2  A    between atoms: C_7  and  C_11 
REMARK    3  A    between atoms: O_12  and  C_7 
REMARK    4  A    between atoms: C_11  and  C_9 
ROOT
ATOM      1  N   UNL d   1      13.868  12.082  -2.421  0.00  0.00    -0.239 NA
ATOM      2  N   UNL d   1      14.150  13.692  -2.168  0.00  0.00    -0.205 NA
ATOM      3  C   UNL d   1      13.784  13.439  -2.862  0.00  0.00     0.297 A 
ATOM      4  C   UNL d   1      13.641  12.628  -2.992  0.00  0.00     0.139 A 
ATOM      5  C   UNL d   1      14.234  12.336  -1.730  0.00  0.00     0.099 A 
ATOM      6  C   UNL d   1      14.376  13.138  -1.602  0.00  0.00     0.102 A 
ATOM      7  O   UNL d   1      13.554  13.987  -3.437  0.00  0.00    -0.264 OA
ATOM      8  C   UNL d   1      14.461  11.780  -1.160  0.00  0.00     0.021 A 
ATOM      9  C   UNL d   1      14.744  13.386  -0.904  0.00  0.00     0.021 A 
ATOM     10  C   UNL d   1      14.968  12.832  -0.338  0.00  0.00     0.002 A 
ATOM     11  C   UNL d   1      14.827  12.030  -0.466  0.00  0.00     0.002 A 
ENDROOT
BRANCH   4  12
ATOM     12  C   UNL d   1      13.274  12.380  -3.686  0.00  0.00     0.029 C 
BRANCH  12  13
ATOM     13  C   UNL d   1      13.689  11.931  -4.234  0.00  0.00     0.070 C 
BRANCH  13  14
ATOM     14  C   UNL d   1      13.536  12.027  -5.042  0.00  0.00     0.296 C 
ATOM     15  O   UNL d   1      12.769  12.177  -5.308  0.00  0.00    -0.259 OA
BRANCH  14  16
ATOM     16  O   UNL d   1      14.159  11.971  -5.588  0.00  0.00    -0.296 OA
ATOM     17  C   UNL d   1      14.003  11.783  -6.376  0.00  0.00     0.185 C 
ENDBRANCH  14  16
ENDBRANCH  13  14
ENDBRANCH  12  13
ENDBRANCH   4  12
TORSDOF 4
ENDMDL
MODEL 3
REMARK VINA RESULT:      20.0      1.539      2.316
REMARK  4 active torsions:
REMARK  status: ('A' for Active; 'I' for Inactive)
REMARK    1  A    between atoms: C_9  and  C_4 
REMARK    2  A    between atoms: C_7  and  C_11 
REMARK    3  A    between atoms: O_12  and  C_7 
REMARK    4  A    between atoms: C_11  and  C_9 
ROOT
ATOM      1  N   UNL d   1      14.273  13.264  -2.094  0.00  0.00    -0.239 NA
ATOM      2  N   UNL d   1      13.672  11.779  -1.680  0.00  0.00    -0.205 NA
ATOM      3  C   UNL d   1      13.422  12.150  -2.373  0.00  0.00     0.297 A 
ATOM      4  C   UNL d   1      13.723  12.898  -2.583  0.00  0.00     0.139 A 
ATOM      5  C   UNL d   1      14.521  12.893  -1.403  0.00  0.00     0.099 A 
ATOM      6  C   UNL d   1      14.223  12.153  -1.195  0.00  0.00     0.102 A 
ATOM      7  O   UNL d   1      12.869  11.783  -2.867  0.00  0.00    -0.264 OA
ATOM      8  C   UNL d   1      15.075  13.267  -0.915  0.00  0.00     0.021 A 
ATOM      9  C   UNL d   1      14.478  11.786  -0.499  0.00  0.00     0.021 A 
ATOM     10  C   UNL d   1      15.028  12.160  -0.014  0.00  0.00     0.002 A 
ATOM     11  C   UNL d   1      15.327  12.900  -0.222  0.00  0.00     0.002 A 
ENDROOT
BRANCH   4  12
ATOM     12  C   UNL d   1      13.470  13.264  -3.276  0.00  0.00     0.029 C 
BRANCH  12  13
ATOM     13  C   UNL d   1      13.480  12.854  -3.987  0.00  0.00     0.070 C 
BRANCH  13  14
ATOM     14  C   UNL d   1      13.068  13.154  -4.639  0.00  0.00     0.296 C 
ATOM     15  O   UNL d   1      12.902  13.961  -4.695  0.00  0.00    -0.259 OA
BRANCH  14  16
ATOM     16  O   UNL d   1      12.820  12.639  -5.241  0.00  0.00    -0.296 OA
ATOM     17  C   UNL d   1      13.377  12.217  -5.680  0.00  0.00     0.185 C 
ENDBRANCH  14  16
ENDBRANCH  13  14
ENDBRANCH  12  13
ENDBRANCH   4  12
TORSDOF 4
ENDMDL
