MODEL 1
REMARK VINA RESULT:      -5.6      0.000      0.000
REMARK  5 active torsions:
REMARK  status: ('A' for Active; 'I' for Inactive)
REMARK    1  A    between atoms: S_3  and  C_17 
REMARK    2  A    between atoms: N_11  and  S_3 
REMARK    3  A    between atoms: C_13  and  C_10 
REMARK    4  A    between atoms: C_12  and  N_11 
REMARK       I    between atoms: N_19  and  C_13 
REMARK    5  A    between atoms: C_31  and  N_19 
ROOT
ATOM      1  C   UNL d   1     -40.666  14.592  20.293  0.00  0.00     0.105 A 
ATOM      2  C   UNL d   1     -41.268  15.088  20.396  0.00  0.00     0.015 A 
ATOM      3  C   UNL d   1     -40.704  13.840  20.588  0.00  0.00     0.015 A 
ATOM      4  C   UNL d   1     -41.947  14.123  21.072  0.00  0.00     0.085 A 
ATOM      5  C   UNL d   1     -41.348  13.626  20.971  0.00  0.00     0.020 A 
ATOM      6  C   UNL d   1     -41.932  14.850  20.798  0.00  0.00     0.020 A 
ENDROOT
BRANCH   4   7
ATOM      7  N   UNL d   1     -42.586  13.918  21.450  0.00  0.00    -0.208 NA
ATOM      8  C   UNL d   1     -43.042  13.280  21.177  0.00  0.00     0.285 C 
ATOM      9  O   UNL d   1     -42.809  12.860  20.492  0.00  0.00    -0.265 OA
BRANCH   8  10
ATOM     10  C   UNL d   1     -43.739  13.052  21.581  0.00  0.00     0.089 A 
ATOM     11  C   UNL d   1     -44.428  13.498  21.659  0.00  0.00     0.018 A 
ATOM     12  C   UNL d   1     -44.978  13.050  22.107  0.00  0.00     0.081 A 
ATOM     13  C   UNL d   1     -44.614  12.322  22.302  0.00  0.00     0.117 A 
ATOM     14  C   UNL d   1     -45.752  13.212  22.357  0.00  0.00     0.268 A 
ATOM     15  N   UNL d   1     -45.033  11.765  22.747  0.00  0.00    -0.221 NA
ATOM     16  S   UNL d   1     -43.849  12.323  21.978  0.00  0.00    -0.063 SA
ATOM     17  C   UNL d   1     -45.812  11.921  23.002  0.00  0.00     0.151 A 
ATOM     18  N   UNL d   1     -46.166  12.644  22.805  0.00  0.00    -0.258 N 
ATOM     19  C   UNL d   1     -46.226  11.361  23.446  0.00  0.00     0.038 A 
ATOM     20  C   UNL d   1     -46.950  12.811  23.057  0.00  0.00     0.084 A 
ATOM     21  C   UNL d   1     -47.356  12.237  23.504  0.00  0.00     0.019 A 
ATOM     22  C   UNL d   1     -46.996  11.516  23.698  0.00  0.00     0.005 A 
ATOM     23  O   UNL d   1     -46.116  13.940  22.161  0.00  0.00    -0.267 OA
ENDBRANCH   8  10
ENDBRANCH   4   7
BRANCH   1  24
ATOM     24  S   UNL d   1     -40.055  14.827  19.917  0.00  0.00     0.287 S 
ATOM     25  O   UNL d   1     -39.264  15.544  19.797  0.00  0.00    -0.198 OA
ATOM     26  O   UNL d   1     -39.993  15.663  20.599  0.00  0.00    -0.198 OA
BRANCH  24  27
ATOM     27  N   UNL d   1     -39.700  14.317  19.129  0.00  0.00    -0.139 NA
BRANCH  27  28
ATOM     28  C   UNL d   1     -39.634  14.675  18.445  0.00  0.00     0.178 A 
ATOM     29  N   UNL d   1     -40.322  14.757  18.003  0.00  0.00    -0.207 NA
ATOM     30  C   UNL d   1     -40.238  15.135  17.285  0.00  0.00     0.164 A 
ATOM     31  C   UNL d   1     -40.867  15.216  16.869  0.00  0.00     0.042 C 
ATOM     32  N   UNL d   1     -39.499  15.424  17.009  0.00  0.00    -0.227 NA
ATOM     33  C   UNL d   1     -38.824  15.335  17.460  0.00  0.00     0.086 A 
ATOM     34  C   UNL d   1     -38.895  14.960  18.177  0.00  0.00     0.059 A 
ATOM     35  C   UNL d   1     -38.161  15.592  17.217  0.00  0.00     0.021 C 
ENDBRANCH  27  28
ENDBRANCH  24  27
ENDBRANCH   1  24
TORSDOF 5
ENDMDL
MODEL 2
REMARK VINA RESULT:      -5.2      1.578      7.392
REMARK  5 active torsions:
REMARK  status: ('A' for Active; 'I' for Inactive)
REMARK    1  A    between atoms: S_3  and  C_17 
REMARK    2  A    between atoms: N_11  and  S_3 
REMARK    3  A    between atoms: C_13  and  C_10 
REMARK    4  A    between atoms: C_12  and  N_11 
REMARK       I    between atoms: N_19  and  C_13 
REMARK    5  A    between atoms: C_31  and  N_19 
ROOT
ATOM      1  C   UNL d   1     -45.807  12.802  22.687  0.00  0.00     0.105 A 
ATOM      2  C   UNL d   1     -45.620  13.566  22.690  0.00  0.00     0.015 A 
ATOM      3  C   UNL d   1     -45.346  12.273  22.285  0.00  0.00     0.015 A 
ATOM      4  C   UNL d   1     -44.537  13.303  21.910  0.00  0.00     0.085 A 
ATOM      5  C   UNL d   1     -44.721  12.540  21.906  0.00  0.00     0.020 A 
ATOM      6  C   UNL d   1     -44.964  13.830  22.289  0.00  0.00     0.020 A 
ENDROOT
BRANCH   4   7
ATOM      7  N   UNL d   1     -43.920  13.575  21.537  0.00  0.00    -0.208 NA
ATOM      8  C   UNL d   1     -43.213  13.139  21.533  0.00  0.00     0.285 C 
ATOM      9  O   UNL d   1     -43.170  12.405  21.933  0.00  0.00    -0.265 OA
BRANCH   8  10
ATOM     10  C   UNL d   1     -42.538  13.427  21.130  0.00  0.00     0.089 A 
ATOM     11  C   UNL d   1     -41.893  13.813  21.471  0.00  0.00     0.018 A 
ATOM     12  C   UNL d   1     -41.351  14.001  20.859  0.00  0.00     0.081 A 
ATOM     13  C   UNL d   1     -41.674  13.724  20.138  0.00  0.00     0.117 A 
ATOM     14  C   UNL d   1     -40.615  14.383  20.869  0.00  0.00     0.268 A 
ATOM     15  N   UNL d   1     -41.253  13.835  19.436  0.00  0.00    -0.221 NA
ATOM     16  S   UNL d   1     -42.407  13.370  20.306  0.00  0.00    -0.063 SA
ATOM     17  C   UNL d   1     -40.512  14.219  19.437  0.00  0.00     0.151 A 
ATOM     18  N   UNL d   1     -40.199  14.490  20.155  0.00  0.00    -0.258 N 
ATOM     19  C   UNL d   1     -40.096  14.327  18.733  0.00  0.00     0.038 A 
ATOM     20  C   UNL d   1     -39.453  14.878  20.168  0.00  0.00     0.084 A 
ATOM     21  C   UNL d   1     -39.044  14.981  19.449  0.00  0.00     0.019 A 
ATOM     22  C   UNL d   1     -39.364  14.707  18.735  0.00  0.00     0.005 A 
ATOM     23  O   UNL d   1     -40.292  14.660  21.590  0.00  0.00    -0.267 OA
ENDBRANCH   8  10
ENDBRANCH   4   7
BRANCH   1  24
ATOM     24  S   UNL d   1     -46.419  12.571  23.064  0.00  0.00     0.287 S 
ATOM     25  O   UNL d   1     -46.894  11.845  23.697  0.00  0.00    -0.198 OA
ATOM     26  O   UNL d   1     -45.856  11.708  23.389  0.00  0.00    -0.198 OA
BRANCH  24  27
ATOM     27  N   UNL d   1     -47.269  13.105  23.053  0.00  0.00    -0.139 NA
BRANCH  27  28
ATOM     28  C   UNL d   1     -47.923  12.770  22.810  0.00  0.00     0.178 A 
ATOM     29  N   UNL d   1     -48.087  12.824  22.006  0.00  0.00    -0.207 NA
ATOM     30  C   UNL d   1     -48.780  12.468  21.762  0.00  0.00     0.164 A 
ATOM     31  C   UNL d   1     -48.941  12.512  21.023  0.00  0.00     0.042 C 
ATOM     32  N   UNL d   1     -49.296  12.071  22.293  0.00  0.00    -0.227 NA
ATOM     33  C   UNL d   1     -49.118  12.026  23.088  0.00  0.00     0.086 A 
ATOM     34  C   UNL d   1     -48.432  12.377  23.343  0.00  0.00     0.059 A 
ATOM     35  C   UNL d   1     -49.578  11.671  23.567  0.00  0.00     0.021 C 
ENDBRANCH  27  28
ENDBRANCH  24  27
ENDBRANCH   1  24
TORSDOF 5
ENDMDL
MODEL 3
REMARK VINA RESULT:      -4.0      1.714      2.975
REMARK  5 active torsions:
REMARK  status: ('A' for Active; 'I' for Inactive)
REMARK    1  A    between atoms: S_3  and  C_17 
REMARK    2  A    between atoms: N_11  and  S_3 
REMARK    3  A    between atoms: C_13  and  C_10 
REMARK    4  A    between atoms: C_12  and  N_11 
REMARK       I    between atoms: N_19  and  C_13 
REMARK    5  A    between atoms: C_31  and  N_19 
ROOT
ATOM      1  C   UNL d   1     -42.917  13.378  21.459  0.00  0.00     0.105 A 
ATOM      2  C   UNL d   1     -43.414  13.978  21.569  0.00  0.00     0.015 A 
ATOM      3  C   UNL d   1     -43.196  12.620  21.425  0.00  0.00     0.015 A 
ATOM      4  C   UNL d   1     -44.456  13.104  21.614  0.00  0.00     0.085 A 
ATOM      5  C   UNL d   1     -43.962  12.504  21.504  0.00  0.00     0.020 A 
ATOM      6  C   UNL d   1     -44.211  13.841  21.650  0.00  0.00     0.020 A 
ENDROOT
BRANCH   4   7
ATOM      7  N   UNL d   1     -45.215  12.998  21.692  0.00  0.00    -0.208 NA
ATOM      8  C   UNL d   1     -45.531  12.805  22.436  0.00  0.00     0.285 C 
ATOM      9  O   UNL d   1     -45.027  12.726  23.099  0.00  0.00    -0.265 OA
BRANCH   8  10
ATOM     10  C   UNL d   1     -46.354  12.688  22.530  0.00  0.00     0.089 A 
ATOM     11  C   UNL d   1     -46.948  12.956  22.023  0.00  0.00     0.018 A 
ATOM     12  C   UNL d   1     -47.687  12.710  22.336  0.00  0.00     0.081 A 
ATOM     13  C   UNL d   1     -47.536  12.287  23.043  0.00  0.00     0.117 A 
ATOM     14  C   UNL d   1     -48.465  12.818  22.070  0.00  0.00     0.268 A 
ATOM     15  N   UNL d   1     -48.170  11.978  23.473  0.00  0.00    -0.221 NA
ATOM     16  S   UNL d   1     -46.714  12.274  23.162  0.00  0.00    -0.063 SA
ATOM     17  C   UNL d   1     -48.955  12.081  23.212  0.00  0.00     0.151 A 
ATOM     18  N   UNL d   1     -49.096  12.501  22.511  0.00  0.00    -0.258 N 
ATOM     19  C   UNL d   1     -49.585  11.770  23.645  0.00  0.00     0.038 A 
ATOM     20  C   UNL d   1     -49.884  12.612  22.239  0.00  0.00     0.084 A 
ATOM     21  C   UNL d   1     -50.510  12.292  22.686  0.00  0.00     0.019 A 
ATOM     22  C   UNL d   1     -50.361  11.873  23.386  0.00  0.00     0.005 A 
ATOM     23  O   UNL d   1     -48.615  13.241  21.363  0.00  0.00    -0.267 OA
ENDBRANCH   8  10
ENDBRANCH   4   7
BRANCH   1  24
ATOM     24  S   UNL d   1     -42.179  13.520  21.386  0.00  0.00     0.287 S 
ATOM     25  O   UNL d   1     -41.161  13.202  21.515  0.00  0.00    -0.198 OA
ATOM     26  O   UNL d   1     -41.980  12.550  21.818  0.00  0.00    -0.198 OA
BRANCH  24  27
ATOM     27  N   UNL d   1     -41.851  14.384  20.994  0.00  0.00    -0.139 NA
BRANCH  27  28
ATOM     28  C   UNL d   1     -41.203  14.386  20.571  0.00  0.00     0.178 A 
ATOM     29  N   UNL d   1     -41.283  14.200  19.774  0.00  0.00    -0.207 NA
ATOM     30  C   UNL d   1     -40.593  14.206  19.339  0.00  0.00     0.164 A 
ATOM     31  C   UNL d   1     -40.655  14.035  18.603  0.00  0.00     0.042 C 
ATOM     32  N   UNL d   1     -39.846  14.390  19.677  0.00  0.00    -0.227 NA
ATOM     33  C   UNL d   1     -39.783  14.573  20.469  0.00  0.00     0.086 A 
ATOM     34  C   UNL d   1     -40.463  14.570  20.913  0.00  0.00     0.059 A 
ATOM     35  C   UNL d   1     -39.116  14.738  20.776  0.00  0.00     0.021 C 
ENDBRANCH  27  28
ENDBRANCH  24  27
ENDBRANCH   1  24
TORSDOF 5
ENDMDL
MODEL 4
REMARK VINA RESULT:      -3.5      1.966      2.638
REMARK  5 active torsions:
REMARK  status: ('A' for Active; 'I' for Inactive)
REMARK    1  A    between atoms: S_3  and  C_17 
REMARK    2  A    between atoms: N_11  and  S_3 
REMARK    3  A    between atoms: C_13  and  C_10 
REMARK    4  A    between atoms: C_12  and  N_11 
REMARK       I    between atoms: N_19  and  C_13 
REMARK    5  A    between atoms: C_31  and  N_19 
ROOT
ATOM      1  C   UNL d   1     -41.279  14.167  20.625  0.00  0.00     0.105 A 
ATOM      2  C   UNL d   1     -41.747  14.750  20.870  0.00  0.00     0.015 A 
ATOM      3  C   UNL d   1     -41.537  13.401  20.649  0.00  0.00     0.015 A 
ATOM      4  C   UNL d   1     -42.720  13.845  21.163  0.00  0.00     0.085 A 
ATOM      5  C   UNL d   1     -42.255  13.262  20.920  0.00  0.00     0.020 A 
ATOM      6  C   UNL d   1     -42.493  14.588  21.149  0.00  0.00     0.020 A 
ENDROOT
BRANCH   4   7
ATOM      7  N   UNL d   1     -43.430  13.715  21.431  0.00  0.00    -0.208 NA
ATOM      8  C   UNL d   1     -43.626  12.968  21.736  0.00  0.00     0.285 C 
ATOM      9  O   UNL d   1     -43.055  12.357  21.753  0.00  0.00    -0.265 OA
BRANCH   8  10
ATOM     10  C   UNL d   1     -44.396  12.818  22.030  0.00  0.00     0.089 A 
ATOM     11  C   UNL d   1     -44.606  12.237  22.577  0.00  0.00     0.018 A 
ATOM     12  C   UNL d   1     -45.433  12.290  22.707  0.00  0.00     0.081 A 
ATOM     13  C   UNL d   1     -45.726  12.913  22.230  0.00  0.00     0.117 A 
ATOM     14  C   UNL d   1     -45.947  11.856  23.192  0.00  0.00     0.268 A 
ATOM     15  N   UNL d   1     -46.533  13.092  22.247  0.00  0.00    -0.221 NA
ATOM     16  S   UNL d   1     -45.086  13.238  21.813  0.00  0.00    -0.063 SA
ATOM     17  C   UNL d   1     -47.056  12.660  22.732  0.00  0.00     0.151 A 
ATOM     18  N   UNL d   1     -46.759  12.044  23.201  0.00  0.00    -0.258 N 
ATOM     19  C   UNL d   1     -47.861  12.842  22.746  0.00  0.00     0.038 A 
ATOM     20  C   UNL d   1     -47.277  11.603  23.694  0.00  0.00     0.084 A 
ATOM     21  C   UNL d   1     -48.088  11.798  23.698  0.00  0.00     0.019 A 
ATOM     22  C   UNL d   1     -48.378  12.414  23.226  0.00  0.00     0.005 A 
ATOM     23  O   UNL d   1     -45.654  11.234  23.668  0.00  0.00    -0.267 OA
ENDBRANCH   8  10
ENDBRANCH   4   7
BRANCH   1  24
ATOM     24  S   UNL d   1     -40.589  14.332  20.368  0.00  0.00     0.287 S 
ATOM     25  O   UNL d   1     -39.850  14.257  19.592  0.00  0.00    -0.198 OA
ATOM     26  O   UNL d   1     -40.824  13.781  19.469  0.00  0.00    -0.198 OA
BRANCH  24  27
ATOM     27  N   UNL d   1     -39.947  14.879  20.913  0.00  0.00    -0.139 NA
BRANCH  27  28
ATOM     28  C   UNL d   1     -39.406  14.520  21.334  0.00  0.00     0.178 A 
ATOM     29  N   UNL d   1     -39.321  14.767  22.113  0.00  0.00    -0.207 NA
ATOM     30  C   UNL d   1     -38.747  14.381  22.546  0.00  0.00     0.164 A 
ATOM     31  C   UNL d   1     -38.661  14.601  23.267  0.00  0.00     0.042 C 
ATOM     32  N   UNL d   1     -38.270  13.770  22.223  0.00  0.00    -0.227 NA
ATOM     33  C   UNL d   1     -38.366  13.536  21.447  0.00  0.00     0.086 A 
ATOM     34  C   UNL d   1     -38.935  13.913  21.005  0.00  0.00     0.059 A 
ATOM     35  C   UNL d   1     -37.941  12.989  21.153  0.00  0.00     0.021 C 
ENDBRANCH  27  28
ENDBRANCH  24  27
ENDBRANCH   1  24
TORSDOF 5
ENDMDL
