MODEL 1
REMARK VINA RESULT:      17.1      0.000      0.000
REMARK  0 active torsions:
REMARK  status: ('A' for Active; 'I' for Inactive)
ROOT
ATOM      1  N   UNL d   1     -56.850 -98.756 -43.508  0.00  0.00    -0.202 NA
ATOM      2  N   UNL d   1     -56.853 -98.758 -45.151  0.00  0.00    -0.202 NA
ATOM      3  C   UNL d   1     -56.138 -98.758 -44.746  0.00  0.00     0.337 A 
ATOM      4  C   UNL d   1     -56.134 -98.757 -43.918  0.00  0.00     0.337 A 
ATOM      5  C   UNL d   1     -57.560 -98.757 -44.739  0.00  0.00     0.102 A 
ATOM      6  C   UNL d   1     -57.556 -98.756 -43.924  0.00  0.00     0.102 A 
ATOM      7  C   UNL d   1     -58.267 -98.756 -43.502  0.00  0.00     0.021 A 
ATOM      8  C   UNL d   1     -58.275 -98.757 -45.158  0.00  0.00     0.021 A 
ATOM      9  C   UNL d   1     -58.989 -98.757 -44.732  0.00  0.00     0.002 A 
ATOM     10  C   UNL d   1     -58.985 -98.756 -43.910  0.00  0.00     0.002 A 
ATOM     11  O   UNL d   1     -55.427 -98.758 -45.158  0.00  0.00    -0.260 OA
ATOM     12  O   UNL d   1     -55.419 -98.757 -43.508  0.00  0.00    -0.260 OA
ATOM     13  C   UNL d   1     -59.697 -98.755 -43.495  0.00  0.00     0.000 C 
ATOM     14  C   UNL d   1     -59.698 -98.757 -45.142  0.00  0.00     0.000 C 
ENDROOT
TORSDOF 0
ENDMDL
