MODEL 1
REMARK VINA RESULT:      -2.5      0.000      0.000
REMARK  4 active torsions:
REMARK  status: ('A' for Active; 'I' for Inactive)
REMARK    1  A    between atoms: N_2  and  S_1 
REMARK    2  A    between atoms: C_6  and  S_1 
REMARK    3  A    between atoms: O_17  and  C_12 
REMARK    4  A    between atoms: C_19  and  O_17 
ROOT
ATOM      1  S   UNL d   1      31.631  17.246 -24.107  0.00  0.00     0.271 S 
ATOM      2  O   UNL d   1      31.896  16.769 -23.480  0.00  0.00    -0.200 OA
ATOM      3  O   UNL d   1      31.368  17.721 -24.730  0.00  0.00    -0.200 OA
ENDROOT
BRANCH   1   4
ATOM      4  N   UNL d   1      31.226  16.597 -24.430  0.00  0.00    -0.232 N 
ATOM      5  C   UNL d   1      31.562  15.987 -24.876  0.00  0.00     0.075 A 
ATOM      6  C   UNL d   1      30.966  15.459 -25.086  0.00  0.00     0.020 A 
ATOM      7  C   UNL d   1      32.362  15.923 -25.076  0.00  0.00     0.020 C 
ATOM      8  C   UNL d   1      30.254  15.744 -24.766  0.00  0.00     0.018 A 
ATOM      9  C   UNL d   1      30.420  16.445 -24.364  0.00  0.00     0.075 A 
ATOM     10  C   UNL d   1      29.483  15.456 -24.792  0.00  0.00     0.002 A 
ATOM     11  C   UNL d   1      29.811  16.859 -23.984  0.00  0.00     0.018 A 
ATOM     12  C   UNL d   1      29.043  16.570 -24.010  0.00  0.00     0.002 A 
ATOM     13  C   UNL d   1      28.874  15.871 -24.412  0.00  0.00     0.000 A 
ENDBRANCH   1   4
BRANCH   1  14
ATOM     14  C   UNL d   1      32.034  17.892 -23.785  0.00  0.00     0.104 A 
ATOM     15  C   UNL d   1      32.221  18.541 -24.265  0.00  0.00     0.015 A 
ATOM     16  C   UNL d   1      32.622  19.184 -23.946  0.00  0.00     0.025 A 
ATOM     17  C   UNL d   1      32.840  19.185 -23.142  0.00  0.00     0.100 A 
ATOM     18  C   UNL d   1      32.649  18.532 -22.670  0.00  0.00     0.025 A 
ATOM     19  C   UNL d   1      32.248  17.889 -22.989  0.00  0.00     0.015 A 
BRANCH  17  20
ATOM     20  O   UNL d   1      33.241  19.827 -22.822  0.00  0.00    -0.305 OA
BRANCH  20  21
ATOM     21  C   UNL d   1      32.996  20.151 -22.109  0.00  0.00     0.123 C 
ATOM     22  C   UNL d   1      33.235  20.910 -21.898  0.00  0.00     0.029 C 
ENDBRANCH  20  21
ENDBRANCH  17  20
ENDBRANCH   1  14
TORSDOF 4
ENDMDL
MODEL 2
REMARK VINA RESULT:      -1.8      1.436      4.215
REMARK  4 active torsions:
REMARK  status: ('A' for Active; 'I' for Inactive)
REMARK    1  A    between atoms: N_2  and  S_1 
REMARK    2  A    between atoms: C_6  and  S_1 
REMARK    3  A    between atoms: O_17  and  C_12 
REMARK    4  A    between atoms: C_19  and  O_17 
ROOT
ATOM      1  S   UNL d   1      30.860  16.460 -23.970  0.00  0.00     0.271 S 
ATOM      2  O   UNL d   1      30.563  16.776 -24.678  0.00  0.00    -0.200 OA
ATOM      3  O   UNL d   1      31.155  16.145 -23.265  0.00  0.00    -0.200 OA
ENDROOT
BRANCH   1   4
ATOM      4  N   UNL d   1      31.624  16.711 -24.177  0.00  0.00    -0.232 N 
ATOM      5  C   UNL d   1      32.151  16.309 -24.672  0.00  0.00     0.075 A 
ATOM      6  C   UNL d   1      32.843  16.751 -24.729  0.00  0.00     0.020 A 
ATOM      7  C   UNL d   1      32.003  15.584 -25.044  0.00  0.00     0.020 C 
ATOM      8  C   UNL d   1      32.744  17.434 -24.266  0.00  0.00     0.018 A 
ATOM      9  C   UNL d   1      31.992  17.404 -23.928  0.00  0.00     0.075 A 
ATOM     10  C   UNL d   1      33.241  18.072 -24.111  0.00  0.00     0.002 A 
ATOM     11  C   UNL d   1      31.736  18.017 -23.433  0.00  0.00     0.018 A 
ATOM     12  C   UNL d   1      32.232  18.652 -23.280  0.00  0.00     0.002 A 
ATOM     13  C   UNL d   1      32.984  18.685 -23.615  0.00  0.00     0.000 A 
ENDBRANCH   1   4
BRANCH   1  14
ATOM     14  C   UNL d   1      30.100  16.210 -23.763  0.00  0.00     0.104 A 
ATOM     15  C   UNL d   1      29.993  15.720 -23.104  0.00  0.00     0.015 A 
ATOM     16  C   UNL d   1      29.237  15.471 -22.898  0.00  0.00     0.025 A 
ATOM     17  C   UNL d   1      28.579  15.709 -23.350  0.00  0.00     0.100 A 
ATOM     18  C   UNL d   1      28.696  16.199 -24.007  0.00  0.00     0.025 A 
ATOM     19  C   UNL d   1      29.452  16.448 -24.213  0.00  0.00     0.015 A 
BRANCH  17  20
ATOM     20  O   UNL d   1      27.823  15.461 -23.144  0.00  0.00    -0.305 OA
BRANCH  20  21
ATOM     21  C   UNL d   1      27.188  15.622 -23.639  0.00  0.00     0.123 C 
ATOM     22  C   UNL d   1      26.421  15.453 -23.394  0.00  0.00     0.029 C 
ENDBRANCH  20  21
ENDBRANCH  17  20
ENDBRANCH   1  14
TORSDOF 4
ENDMDL
MODEL 3
REMARK VINA RESULT:      -1.3      1.028      1.408
REMARK  4 active torsions:
REMARK  status: ('A' for Active; 'I' for Inactive)
REMARK    1  A    between atoms: N_2  and  S_1 
REMARK    2  A    between atoms: C_6  and  S_1 
REMARK    3  A    between atoms: O_17  and  C_12 
REMARK    4  A    between atoms: C_19  and  O_17 
ROOT
ATOM      1  S   UNL d   1      32.326  18.271 -23.667  0.00  0.00     0.271 S 
ATOM      2  O   UNL d   1      32.916  17.802 -23.316  0.00  0.00    -0.200 OA
ATOM      3  O   UNL d   1      31.741  18.738 -24.015  0.00  0.00    -0.200 OA
ENDROOT
BRANCH   1   4
ATOM      4  N   UNL d   1      32.096  17.628 -24.140  0.00  0.00    -0.232 N 
ATOM      5  C   UNL d   1      32.515  17.326 -24.787  0.00  0.00     0.075 A 
ATOM      6  C   UNL d   1      32.091  16.691 -25.096  0.00  0.00     0.020 A 
ATOM      7  C   UNL d   1      33.236  17.616 -25.071  0.00  0.00     0.020 C 
ATOM      8  C   UNL d   1      31.405  16.599 -24.638  0.00  0.00     0.018 A 
ATOM      9  C   UNL d   1      31.413  17.178 -24.050  0.00  0.00     0.075 A 
ATOM     10  C   UNL d   1      30.780  16.065 -24.681  0.00  0.00     0.002 A 
ATOM     11  C   UNL d   1      30.792  17.223 -23.504  0.00  0.00     0.018 A 
ATOM     12  C   UNL d   1      30.170  16.690 -23.548  0.00  0.00     0.002 A 
ATOM     13  C   UNL d   1      30.159  16.110 -24.134  0.00  0.00     0.000 A 
ENDBRANCH   1   4
BRANCH   1  14
ATOM     14  C   UNL d   1      32.555  18.910 -23.196  0.00  0.00     0.104 A 
ATOM     15  C   UNL d   1      32.411  19.684 -23.454  0.00  0.00     0.015 A 
ATOM     16  C   UNL d   1      32.639  20.320 -22.986  0.00  0.00     0.025 A 
ATOM     17  C   UNL d   1      33.013  20.190 -22.253  0.00  0.00     0.100 A 
ATOM     18  C   UNL d   1      33.153  19.413 -22.003  0.00  0.00     0.025 A 
ATOM     19  C   UNL d   1      32.925  18.777 -22.472  0.00  0.00     0.015 A 
BRANCH  17  20
ATOM     20  O   UNL d   1      33.241  20.826 -21.785  0.00  0.00    -0.305 OA
BRANCH  20  21
ATOM     21  C   UNL d   1      32.723  21.131 -21.227  0.00  0.00     0.123 C 
ATOM     22  C   UNL d   1      32.959  21.753 -20.742  0.00  0.00     0.029 C 
ENDBRANCH  20  21
ENDBRANCH  17  20
ENDBRANCH   1  14
TORSDOF 4
ENDMDL
MODEL 4
REMARK VINA RESULT:      -1.0      1.175      1.692
REMARK  4 active torsions:
REMARK  status: ('A' for Active; 'I' for Inactive)
REMARK    1  A    between atoms: N_2  and  S_1 
REMARK    2  A    between atoms: C_6  and  S_1 
REMARK    3  A    between atoms: O_17  and  C_12 
REMARK    4  A    between atoms: C_19  and  O_17 
ROOT
ATOM      1  S   UNL d   1      30.568  17.075 -24.333  0.00  0.00     0.271 S 
ATOM      2  O   UNL d   1      30.923  16.623 -23.732  0.00  0.00    -0.200 OA
ATOM      3  O   UNL d   1      30.215  17.524 -24.930  0.00  0.00    -0.200 OA
ENDROOT
BRANCH   1   4
ATOM      4  N   UNL d   1      29.906  16.573 -24.319  0.00  0.00    -0.232 N 
ATOM      5  C   UNL d   1      29.854  15.826 -24.671  0.00  0.00     0.075 A 
ATOM      6  C   UNL d   1      29.104  15.521 -24.524  0.00  0.00     0.020 A 
ATOM      7  C   UNL d   1      30.457  15.453 -25.097  0.00  0.00     0.020 C 
ATOM      8  C   UNL d   1      28.686  16.084 -24.078  0.00  0.00     0.018 A 
ATOM      9  C   UNL d   1      29.185  16.729 -23.955  0.00  0.00     0.075 A 
ATOM     10  C   UNL d   1      27.922  16.089 -23.771  0.00  0.00     0.002 A 
ATOM     11  C   UNL d   1      28.917  17.383 -23.522  0.00  0.00     0.018 A 
ATOM     12  C   UNL d   1      28.155  17.387 -23.217  0.00  0.00     0.002 A 
ATOM     13  C   UNL d   1      27.655  16.743 -23.339  0.00  0.00     0.000 A 
ENDBRANCH   1   4
BRANCH   1  14
ATOM     14  C   UNL d   1      31.226  17.574 -24.346  0.00  0.00     0.104 A 
ATOM     15  C   UNL d   1      31.595  17.788 -23.636  0.00  0.00     0.015 A 
ATOM     16  C   UNL d   1      32.250  18.285 -23.650  0.00  0.00     0.025 A 
ATOM     17  C   UNL d   1      32.544  18.572 -24.374  0.00  0.00     0.100 A 
ATOM     18  C   UNL d   1      32.169  18.352 -25.079  0.00  0.00     0.025 A 
ATOM     19  C   UNL d   1      31.514  17.856 -25.065  0.00  0.00     0.015 A 
BRANCH  17  20
ATOM     20  O   UNL d   1      33.199  19.069 -24.387  0.00  0.00    -0.305 OA
BRANCH  20  21
ATOM     21  C   UNL d   1      33.131  19.846 -24.134  0.00  0.00     0.123 C 
ATOM     22  C   UNL d   1      33.238  20.464 -24.667  0.00  0.00     0.029 C 
ENDBRANCH  20  21
ENDBRANCH  17  20
ENDBRANCH   1  14
TORSDOF 4
ENDMDL
MODEL 5
REMARK VINA RESULT:      -0.2      2.247      5.187
REMARK  4 active torsions:
REMARK  status: ('A' for Active; 'I' for Inactive)
REMARK    1  A    between atoms: N_2  and  S_1 
REMARK    2  A    between atoms: C_6  and  S_1 
REMARK    3  A    between atoms: O_17  and  C_12 
REMARK    4  A    between atoms: C_19  and  O_17 
ROOT
ATOM      1  S   UNL d   1      32.771  20.283 -22.431  0.00  0.00     0.271 S 
ATOM      2  O   UNL d   1      32.300  20.440 -23.098  0.00  0.00    -0.200 OA
ATOM      3  O   UNL d   1      33.239  20.128 -21.769  0.00  0.00    -0.200 OA
ENDROOT
BRANCH   1   4
ATOM      4  N   UNL d   1      32.744  21.088 -22.224  0.00  0.00    -0.232 N 
ATOM      5  C   UNL d   1      32.960  21.722 -22.709  0.00  0.00     0.075 A 
ATOM      6  C   UNL d   1      32.849  22.421 -22.287  0.00  0.00     0.020 A 
ATOM      7  C   UNL d   1      33.239  21.661 -23.485  0.00  0.00     0.020 C 
ATOM      8  C   UNL d   1      32.562  22.217 -21.534  0.00  0.00     0.018 A 
ATOM      9  C   UNL d   1      32.500  21.395 -21.501  0.00  0.00     0.075 A 
ATOM     10  C   UNL d   1      32.352  22.673 -20.882  0.00  0.00     0.002 A 
ATOM     11  C   UNL d   1      32.225  21.028 -20.811  0.00  0.00     0.018 A 
ATOM     12  C   UNL d   1      32.017  21.484 -20.161  0.00  0.00     0.002 A 
ATOM     13  C   UNL d   1      32.078  22.305 -20.191  0.00  0.00     0.000 A 
ENDBRANCH   1   4
BRANCH   1  14
ATOM     14  C   UNL d   1      32.797  19.484 -22.638  0.00  0.00     0.104 A 
ATOM     15  C   UNL d   1      32.403  19.221 -23.317  0.00  0.00     0.015 A 
ATOM     16  C   UNL d   1      32.429  18.425 -23.522  0.00  0.00     0.025 A 
ATOM     17  C   UNL d   1      32.850  17.883 -23.050  0.00  0.00     0.100 A 
ATOM     18  C   UNL d   1      33.241  18.155 -22.373  0.00  0.00     0.025 A 
ATOM     19  C   UNL d   1      33.215  18.951 -22.168  0.00  0.00     0.015 A 
BRANCH  17  20
ATOM     20  O   UNL d   1      32.876  17.088 -23.256  0.00  0.00    -0.305 OA
BRANCH  20  21
ATOM     21  C   UNL d   1      32.191  16.636 -23.238  0.00  0.00     0.123 C 
ATOM     22  C   UNL d   1      32.224  15.830 -23.402  0.00  0.00     0.029 C 
ENDBRANCH  20  21
ENDBRANCH  17  20
ENDBRANCH   1  14
TORSDOF 4
ENDMDL
