MODEL 1
REMARK VINA RESULT:      77.5      0.000      0.000
REMARK  8 active torsions:
REMARK  status: ('A' for Active; 'I' for Inactive)
REMARK    1  A    between atoms: C_2  and  C_1 
REMARK    2  A    between atoms: C_3  and  C_1 
REMARK    3  A    between atoms: C_5  and  C_1 
REMARK    4  A    between atoms: N_4  and  C_6 
REMARK    5  A    between atoms: C_7  and  N_4 
REMARK    6  A    between atoms: C_8  and  N_4 
REMARK    7  A    between atoms: C_20  and  C_7 
REMARK    8  A    between atoms: C_21  and  C_8 
ROOT
ATOM      1  C   UNL d   1     -51.850  26.082  37.001  0.00  0.00     0.044 A 
ATOM      2  C   UNL d   1     -51.760  25.911  35.357  0.00  0.00     0.064 A 
ATOM      3  C   UNL d   1     -51.116  25.945  36.642  0.00  0.00     0.004 A 
ATOM      4  C   UNL d   1     -52.532  26.133  36.542  0.00  0.00     0.004 A 
ATOM      5  C   UNL d   1     -51.069  25.858  35.817  0.00  0.00     0.018 A 
ATOM      6  C   UNL d   1     -52.485  26.047  35.717  0.00  0.00     0.018 A 
ENDROOT
BRANCH   2   7
ATOM      7  N   UNL d   1     -51.714  25.826  34.543  0.00  0.00    -0.304 N 
BRANCH   7   8
ATOM      8  C   UNL d   1     -51.007  25.976  34.152  0.00  0.00     0.080 C 
BRANCH   8   9
ATOM      9  C   UNL d   1     -50.836  26.724  33.872  0.00  0.00     0.018 A 
ATOM     10  C   UNL d   1     -50.051  26.977  33.858  0.00  0.00     0.002 A 
ATOM     11  C   UNL d   1     -49.859  27.739  33.575  0.00  0.00     0.000 A 
ATOM     12  C   UNL d   1     -50.469  28.243  33.306  0.00  0.00     0.000 A 
ATOM     13  C   UNL d   1     -51.254  27.990  33.320  0.00  0.00     0.000 A 
ATOM     14  C   UNL d   1     -51.435  27.226  33.605  0.00  0.00     0.002 A 
ENDBRANCH   8   9
ENDBRANCH   7   8
BRANCH   7  15
ATOM     15  C   UNL d   1     -52.372  25.591  34.115  0.00  0.00     0.080 C 
BRANCH  15  16
ATOM     16  C   UNL d   1     -52.436  24.821  33.850  0.00  0.00     0.018 A 
ATOM     17  C   UNL d   1     -53.176  24.501  33.660  0.00  0.00     0.002 A 
ATOM     18  C   UNL d   1     -53.241  23.724  33.392  0.00  0.00     0.000 A 
ATOM     19  C   UNL d   1     -52.566  23.258  33.311  0.00  0.00     0.000 A 
ATOM     20  C   UNL d   1     -51.818  23.568  33.499  0.00  0.00     0.000 A 
ATOM     21  C   UNL d   1     -51.766  24.356  33.769  0.00  0.00     0.002 A 
ENDBRANCH  15  16
ENDBRANCH   7  15
ENDBRANCH   2   7
BRANCH   1  22
ATOM     22  C   UNL d   1     -51.896  26.168  37.820  0.00  0.00     0.297 C 
ATOM     23  O   UNL d   1     -51.942  26.253  38.639  0.00  0.00    -0.281 OA
BRANCH  22  24
ATOM     24  C   UNL d   1     -52.513  25.632  37.841  0.00  0.00     0.457 C 
ATOM     25  F   UNL d   1     -53.052  26.251  37.761  0.00  0.00    -0.163 F 
ATOM     26  F   UNL d   1     -51.973  25.014  37.921  0.00  0.00    -0.163 F 
ATOM     27  F   UNL d   1     -53.136  25.092  37.862  0.00  0.00    -0.163 F 
ENDBRANCH  22  24
BRANCH  22  28
ATOM     28  C   UNL d   1     -51.266  26.714  37.799  0.00  0.00     0.457 C 
ATOM     29  F   UNL d   1     -50.650  27.248  37.778  0.00  0.00    -0.163 F 
ATOM     30  F   UNL d   1     -51.791  27.311  37.578  0.00  0.00    -0.163 F 
ATOM     31  F   UNL d   1     -50.741  26.117  38.019  0.00  0.00    -0.163 F 
ENDBRANCH  22  28
ENDBRANCH   1  22
TORSDOF 8
ENDMDL
MODEL 2
REMARK VINA RESULT:      78.0      0.420      2.899
REMARK  8 active torsions:
REMARK  status: ('A' for Active; 'I' for Inactive)
REMARK    1  A    between atoms: C_2  and  C_1 
REMARK    2  A    between atoms: C_3  and  C_1 
REMARK    3  A    between atoms: C_5  and  C_1 
REMARK    4  A    between atoms: N_4  and  C_6 
REMARK    5  A    between atoms: C_7  and  N_4 
REMARK    6  A    between atoms: C_8  and  N_4 
REMARK    7  A    between atoms: C_20  and  C_7 
REMARK    8  A    between atoms: C_21  and  C_8 
ROOT
ATOM      1  C   UNL d   1     -51.913  25.972  37.323  0.00  0.00     0.044 A 
ATOM      2  C   UNL d   1     -51.841  25.754  35.684  0.00  0.00     0.064 A 
ATOM      3  C   UNL d   1     -51.288  26.303  36.892  0.00  0.00     0.004 A 
ATOM      4  C   UNL d   1     -52.497  25.536  36.938  0.00  0.00     0.004 A 
ATOM      5  C   UNL d   1     -51.250  26.194  36.069  0.00  0.00     0.018 A 
ATOM      6  C   UNL d   1     -52.459  25.428  36.115  0.00  0.00     0.018 A 
ENDROOT
BRANCH   2   7
ATOM      7  N   UNL d   1     -51.804  25.647  34.872  0.00  0.00    -0.304 N 
BRANCH   7   8
ATOM      8  C   UNL d   1     -52.477  25.434  34.453  0.00  0.00     0.080 C 
BRANCH   8   9
ATOM      9  C   UNL d   1     -52.540  24.694  34.111  0.00  0.00     0.018 A 
ATOM     10  C   UNL d   1     -53.229  24.256  34.226  0.00  0.00     0.002 A 
ATOM     11  C   UNL d   1     -53.308  23.499  33.883  0.00  0.00     0.000 A 
ATOM     12  C   UNL d   1     -52.684  23.188  33.422  0.00  0.00     0.000 A 
ATOM     13  C   UNL d   1     -51.994  23.627  33.308  0.00  0.00     0.000 A 
ATOM     14  C   UNL d   1     -51.925  24.383  33.655  0.00  0.00     0.002 A 
ENDBRANCH   8   9
ENDBRANCH   7   8
BRANCH   7  15
ATOM     15  C   UNL d   1     -51.095  25.752  34.474  0.00  0.00     0.080 C 
BRANCH  15  16
ATOM     16  C   UNL d   1     -50.940  26.455  34.089  0.00  0.00     0.018 A 
ATOM     17  C   UNL d   1     -50.176  26.773  34.084  0.00  0.00     0.002 A 
ATOM     18  C   UNL d   1     -50.019  27.484  33.695  0.00  0.00     0.000 A 
ATOM     19  C   UNL d   1     -50.626  27.884  33.308  0.00  0.00     0.000 A 
ATOM     20  C   UNL d   1     -51.397  27.574  33.307  0.00  0.00     0.000 A 
ATOM     21  C   UNL d   1     -51.542  26.855  33.703  0.00  0.00     0.002 A 
ENDBRANCH  15  16
ENDBRANCH   7  15
ENDBRANCH   2   7
BRANCH   1  22
ATOM     22  C   UNL d   1     -51.951  26.080  38.140  0.00  0.00     0.297 C 
ATOM     23  O   UNL d   1     -51.988  26.187  38.957  0.00  0.00    -0.281 OA
BRANCH  22  24
ATOM     24  C   UNL d   1     -51.428  26.705  38.081  0.00  0.00     0.457 C 
ATOM     25  F   UNL d   1     -50.806  26.205  38.288  0.00  0.00    -0.163 F 
ATOM     26  F   UNL d   1     -52.051  27.205  37.875  0.00  0.00    -0.163 F 
ATOM     27  F   UNL d   1     -50.901  27.337  38.022  0.00  0.00    -0.163 F 
ENDBRANCH  22  24
BRANCH  22  28
ATOM     28  C   UNL d   1     -52.483  25.441  38.200  0.00  0.00     0.457 C 
ATOM     29  F   UNL d   1     -53.005  24.816  38.259  0.00  0.00    -0.163 F 
ATOM     30  F   UNL d   1     -51.849  24.914  38.225  0.00  0.00    -0.163 F 
ATOM     31  F   UNL d   1     -53.118  25.968  38.175  0.00  0.00    -0.163 F 
ENDBRANCH  22  28
ENDBRANCH   1  22
TORSDOF 8
ENDMDL
