MODEL 1
REMARK VINA RESULT:      76.6      0.000      0.000
REMARK  5 active torsions:
REMARK  status: ('A' for Active; 'I' for Inactive)
REMARK    1  A    between atoms: C_8  and  C_1 
REMARK    2  A    between atoms: C_7  and  O_11 
REMARK    3  A    between atoms: C_9  and  C_7 
REMARK    4  A    between atoms: O_11  and  C_15 
REMARK    5  A    between atoms: O_23  and  C_18 
ROOT
ATOM      1  C   UNL d   1     -54.940-101.275 -40.653  0.00  0.00     0.064 A 
ATOM      2  C   UNL d   1     -54.957-101.716 -41.352  0.00  0.00     0.199 A 
ATOM      3  C   UNL d   1     -54.863-100.454 -40.685  0.00  0.00     0.103 A 
ATOM      4  C   UNL d   1     -54.896-101.336 -42.080  0.00  0.00     0.062 A 
ATOM      5  C   UNL d   1     -54.818-100.515 -42.112  0.00  0.00     0.105 A 
ATOM      6  O   UNL d   1     -54.802-100.075 -41.418  0.00  0.00    -0.307 OA
ATOM      7  C   UNL d   1     -54.757-100.136 -42.841  0.00  0.00     0.050 A 
ATOM      8  C   UNL d   1     -54.912-101.777 -42.775  0.00  0.00     0.007 A 
ATOM      9  O   UNL d   1     -55.034-102.537 -41.319  0.00  0.00    -0.286 OA
ATOM     10  C   UNL d   1     -54.774-100.584 -43.543  0.00  0.00     0.105 A 
ATOM     11  C   UNL d   1     -54.851-101.397 -43.510  0.00  0.00     0.025 A 
ATOM     12  C   UNL d   1     -54.847-100.013 -39.990  0.00  0.00     0.027 C 
ENDROOT
BRANCH   1  13
ATOM     13  C   UNL d   1     -55.002-101.663 -39.924  0.00  0.00     0.027 A 
ATOM     14  C   UNL d   1     -54.895-101.250 -39.218  0.00  0.00     0.094 A 
ATOM     15  C   UNL d   1     -54.957-101.642 -38.497  0.00  0.00     0.024 A 
ATOM     16  C   UNL d   1     -55.129-102.454 -38.477  0.00  0.00     0.002 A 
ATOM     17  C   UNL d   1     -55.238-102.871 -39.190  0.00  0.00     0.000 A 
ATOM     18  C   UNL d   1     -55.175-102.480 -39.911  0.00  0.00     0.002 A 
BRANCH  14  19
ATOM     19  O   UNL d   1     -54.725-100.448 -39.241  0.00  0.00    -0.328 OA
ATOM     20  C   UNL d   1     -55.312 -99.903 -39.044  0.00  0.00     0.181 C 
ENDBRANCH  14  19
ENDBRANCH   1  13
BRANCH  10  21
ATOM     21  O   UNL d   1     -54.712-100.197 -44.276  0.00  0.00    -0.271 OA
BRANCH  21  22
ATOM     22  C   UNL d   1     -55.137 -99.498 -44.399  0.00  0.00     0.323 C 
ATOM     23  O   UNL d   1     -54.743 -98.775 -44.470  0.00  0.00    -0.257 OA
BRANCH  22  24
ATOM     24  C   UNL d   1     -55.964 -99.523 -44.452  0.00  0.00     0.163 A 
ATOM     25  O   UNL d   1     -56.410-100.165 -44.711  0.00  0.00    -0.300 OA
ATOM     26  C   UNL d   1     -57.207 -99.948 -44.673  0.00  0.00     0.123 A 
ATOM     27  C   UNL d   1     -57.253 -99.177 -44.392  0.00  0.00     0.029 A 
ATOM     28  C   UNL d   1     -56.481 -98.910 -44.253  0.00  0.00     0.032 A 
ENDBRANCH  22  24
ENDBRANCH  21  22
ENDBRANCH  10  21
TORSDOF 5
ENDMDL
