MODEL 1
REMARK VINA RESULT:      -2.4      0.000      0.000
REMARK  3 active torsions:
REMARK  status: ('A' for Active; 'I' for Inactive)
REMARK    1  A    between atoms: C_2  and  S_1 
REMARK    2  A    between atoms: N_3  and  S_1 
REMARK    3  A    between atoms: C_10  and  N_3 
ROOT
ATOM      1  C   UNL d   1      32.459  17.596 -23.819  0.00  0.00     0.107 A 
ATOM      2  C   UNL d   1      32.556  18.179 -24.395  0.00  0.00     0.040 A 
ATOM      3  C   UNL d   1      32.783  18.939 -24.205  0.00  0.00     0.123 A 
ATOM      4  C   UNL d   1      32.919  19.131 -23.422  0.00  0.00     0.123 A 
ATOM      5  O   UNL d   1      32.871  19.487 -24.770  0.00  0.00    -0.301 OA
ATOM      6  O   UNL d   1      33.144  19.872 -23.199  0.00  0.00    -0.301 OA
ATOM      7  C   UNL d   1      32.600  17.794 -23.011  0.00  0.00     0.015 A 
ATOM      8  C   UNL d   1      32.829  18.564 -22.824  0.00  0.00     0.028 A 
ATOM      9  C   UNL d   1      33.100  20.258 -24.583  0.00  0.00     0.149 A 
ATOM     10  C   UNL d   1      33.241  20.456 -23.775  0.00  0.00     0.149 A 
ENDROOT
BRANCH   1  11
ATOM     11  S   UNL d   1      32.224  16.824 -24.056  0.00  0.00     0.285 S 
ATOM     12  O   UNL d   1      31.993  16.041 -24.297  0.00  0.00    -0.198 OA
ATOM     13  O   UNL d   1      33.016  16.611 -24.234  0.00  0.00    -0.198 OA
BRANCH  11  14
ATOM     14  N   UNL d   1      31.438  16.993 -23.894  0.00  0.00    -0.157 NA
BRANCH  14  15
ATOM     15  C   UNL d   1      30.853  16.489 -24.083  0.00  0.00     0.113 A 
ATOM     16  C   UNL d   1      30.615  16.401 -24.868  0.00  0.00     0.119 A 
ATOM     17  N   UNL d   1      30.009  15.879 -25.063  0.00  0.00    -0.241 NA
ATOM     18  C   UNL d   1      29.647  15.453 -24.487  0.00  0.00     0.099 A 
ATOM     19  C   UNL d   1      29.884  15.535 -23.681  0.00  0.00     0.022 A 
ATOM     20  C   UNL d   1      30.487  16.058 -23.509  0.00  0.00     0.023 A 
ENDBRANCH  14  15
ENDBRANCH  11  14
ENDBRANCH   1  11
TORSDOF 3
ENDMDL
MODEL 2
REMARK VINA RESULT:      -1.9      1.939      4.316
REMARK  3 active torsions:
REMARK  status: ('A' for Active; 'I' for Inactive)
REMARK    1  A    between atoms: C_2  and  S_1 
REMARK    2  A    between atoms: N_3  and  S_1 
REMARK    3  A    between atoms: C_10  and  N_3 
ROOT
ATOM      1  C   UNL d   1      29.955  17.095 -24.583  0.00  0.00     0.107 A 
ATOM      2  C   UNL d   1      29.360  17.244 -24.032  0.00  0.00     0.040 A 
ATOM      3  C   UNL d   1      28.761  16.709 -23.887  0.00  0.00     0.123 A 
ATOM      4  C   UNL d   1      28.749  16.004 -24.298  0.00  0.00     0.123 A 
ATOM      5  O   UNL d   1      28.197  16.869 -23.354  0.00  0.00    -0.301 OA
ATOM      6  O   UNL d   1      28.173  15.453 -24.179  0.00  0.00    -0.301 OA
ATOM      7  C   UNL d   1      29.943  16.366 -25.008  0.00  0.00     0.015 A 
ATOM      8  C   UNL d   1      29.335  15.828 -24.857  0.00  0.00     0.028 A 
ATOM      9  C   UNL d   1      27.590  16.331 -23.203  0.00  0.00     0.149 A 
ATOM     10  C   UNL d   1      27.577  15.602 -23.628  0.00  0.00     0.149 A 
ENDROOT
BRANCH   1  11
ATOM     11  S   UNL d   1      30.554  17.672 -24.704  0.00  0.00     0.285 S 
ATOM     12  O   UNL d   1      31.156  18.260 -24.829  0.00  0.00    -0.198 OA
ATOM     13  O   UNL d   1      30.017  18.184 -25.095  0.00  0.00    -0.198 OA
BRANCH  11  14
ATOM     14  N   UNL d   1      31.110  17.201 -24.327  0.00  0.00    -0.157 NA
BRANCH  14  15
ATOM     15  C   UNL d   1      31.808  17.492 -24.080  0.00  0.00     0.113 A 
ATOM     16  C   UNL d   1      31.837  18.040 -23.464  0.00  0.00     0.119 A 
ATOM     17  N   UNL d   1      32.559  18.340 -23.208  0.00  0.00    -0.241 NA
ATOM     18  C   UNL d   1      33.240  18.100 -23.559  0.00  0.00     0.099 A 
ATOM     19  C   UNL d   1      33.221  17.540 -24.190  0.00  0.00     0.022 A 
ATOM     20  C   UNL d   1      32.494  17.254 -24.429  0.00  0.00     0.023 A 
ENDBRANCH  14  15
ENDBRANCH  11  14
ENDBRANCH   1  11
TORSDOF 3
ENDMDL
MODEL 3
REMARK VINA RESULT:      -1.7      1.688      4.008
REMARK  3 active torsions:
REMARK  status: ('A' for Active; 'I' for Inactive)
REMARK    1  A    between atoms: C_2  and  S_1 
REMARK    2  A    between atoms: N_3  and  S_1 
REMARK    3  A    between atoms: C_10  and  N_3 
ROOT
ATOM      1  C   UNL d   1      32.639  18.142 -23.720  0.00  0.00     0.107 A 
ATOM      2  C   UNL d   1      31.902  18.025 -24.073  0.00  0.00     0.040 A 
ATOM      3  C   UNL d   1      31.578  17.282 -24.162  0.00  0.00     0.123 A 
ATOM      4  C   UNL d   1      31.994  16.632 -23.894  0.00  0.00     0.123 A 
ATOM      5  O   UNL d   1      30.870  17.188 -24.504  0.00  0.00    -0.301 OA
ATOM      6  O   UNL d   1      31.704  15.883 -23.965  0.00  0.00    -0.301 OA
ATOM      7  C   UNL d   1      33.068  17.470 -23.443  0.00  0.00     0.015 A 
ATOM      8  C   UNL d   1      32.736  16.720 -23.535  0.00  0.00     0.028 A 
ATOM      9  C   UNL d   1      30.538  16.438 -24.596  0.00  0.00     0.149 A 
ATOM     10  C   UNL d   1      30.968  15.766 -24.319  0.00  0.00     0.149 A 
ENDROOT
BRANCH   1  11
ATOM     11  S   UNL d   1      32.937  18.925 -23.647  0.00  0.00     0.285 S 
ATOM     12  O   UNL d   1      33.241  19.717 -23.580  0.00  0.00    -0.198 OA
ATOM     13  O   UNL d   1      33.157  18.942 -24.456  0.00  0.00    -0.198 OA
BRANCH  11  14
ATOM     14  N   UNL d   1      32.738  18.948 -22.852  0.00  0.00    -0.157 NA
BRANCH  14  15
ATOM     15  C   UNL d   1      32.838  19.603 -22.413  0.00  0.00     0.113 A 
ATOM     16  C   UNL d   1      32.645  20.344 -22.719  0.00  0.00     0.119 A 
ATOM     17  N   UNL d   1      32.750  21.022 -22.264  0.00  0.00    -0.241 NA
ATOM     18  C   UNL d   1      33.040  20.962 -21.518  0.00  0.00     0.099 A 
ATOM     19  C   UNL d   1      33.241  20.209 -21.196  0.00  0.00     0.022 A 
ATOM     20  C   UNL d   1      33.130  19.548 -21.664  0.00  0.00     0.023 A 
ENDBRANCH  14  15
ENDBRANCH  11  14
ENDBRANCH   1  11
TORSDOF 3
ENDMDL
MODEL 4
REMARK VINA RESULT:      -1.4      3.405      5.528
REMARK  3 active torsions:
REMARK  status: ('A' for Active; 'I' for Inactive)
REMARK    1  A    between atoms: C_2  and  S_1 
REMARK    2  A    between atoms: N_3  and  S_1 
REMARK    3  A    between atoms: C_10  and  N_3 
ROOT
ATOM      1  C   UNL d   1      33.074  20.830 -22.169  0.00  0.00     0.107 A 
ATOM      2  C   UNL d   1      32.973  20.444 -22.892  0.00  0.00     0.040 A 
ATOM      3  C   UNL d   1      33.002  19.632 -22.956  0.00  0.00     0.123 A 
ATOM      4  C   UNL d   1      33.135  19.184 -22.286  0.00  0.00     0.123 A 
ATOM      5  O   UNL d   1      32.903  19.278 -23.658  0.00  0.00    -0.301 OA
ATOM      6  O   UNL d   1      33.170  18.379 -22.313  0.00  0.00    -0.301 OA
ATOM      7  C   UNL d   1      33.211  20.367 -21.477  0.00  0.00     0.015 A 
ATOM      8  C   UNL d   1      33.240  19.545 -21.547  0.00  0.00     0.028 A 
ATOM      9  C   UNL d   1      32.932  18.456 -23.728  0.00  0.00     0.149 A 
ATOM     10  C   UNL d   1      33.069  17.994 -23.035  0.00  0.00     0.149 A 
ENDROOT
BRANCH   1  11
ATOM     11  S   UNL d   1      33.037  21.669 -22.146  0.00  0.00     0.285 S 
ATOM     12  O   UNL d   1      33.001  22.519 -22.128  0.00  0.00    -0.198 OA
ATOM     13  O   UNL d   1      33.241  21.726 -22.957  0.00  0.00    -0.198 OA
BRANCH  11  14
ATOM     14  N   UNL d   1      32.836  21.657 -21.351  0.00  0.00    -0.157 NA
BRANCH  14  15
ATOM     15  C   UNL d   1      32.691  22.325 -20.944  0.00  0.00     0.113 A 
ATOM     16  C   UNL d   1      33.241  22.608 -20.399  0.00  0.00     0.119 A 
ATOM     17  N   UNL d   1      33.091  23.300 -19.978  0.00  0.00    -0.241 NA
ATOM     18  C   UNL d   1      32.407  23.701 -20.098  0.00  0.00     0.099 A 
ATOM     19  C   UNL d   1      31.837  23.420 -20.655  0.00  0.00     0.022 A 
ATOM     20  C   UNL d   1      32.006  22.732 -21.062  0.00  0.00     0.023 A 
ENDBRANCH  14  15
ENDBRANCH  11  14
ENDBRANCH   1  11
TORSDOF 3
ENDMDL
MODEL 5
REMARK VINA RESULT:       0.1      1.048      1.589
REMARK  3 active torsions:
REMARK  status: ('A' for Active; 'I' for Inactive)
REMARK    1  A    between atoms: C_2  and  S_1 
REMARK    2  A    between atoms: N_3  and  S_1 
REMARK    3  A    between atoms: C_10  and  N_3 
ROOT
ATOM      1  C   UNL d   1      31.537  16.916 -24.298  0.00  0.00     0.107 A 
ATOM      2  C   UNL d   1      31.923  17.150 -23.607  0.00  0.00     0.040 A 
ATOM      3  C   UNL d   1      32.364  17.835 -23.570  0.00  0.00     0.123 A 
ATOM      4  C   UNL d   1      32.426  18.306 -24.234  0.00  0.00     0.123 A 
ATOM      5  O   UNL d   1      32.728  18.045 -22.898  0.00  0.00    -0.301 OA
ATOM      6  O   UNL d   1      32.853  18.990 -24.232  0.00  0.00    -0.301 OA
ATOM      7  C   UNL d   1      31.601  17.402 -24.985  0.00  0.00     0.015 A 
ATOM      8  C   UNL d   1      32.048  18.095 -24.942  0.00  0.00     0.028 A 
ATOM      9  C   UNL d   1      33.175  18.737 -22.855  0.00  0.00     0.149 A 
ATOM     10  C   UNL d   1      33.239  19.224 -23.541  0.00  0.00     0.149 A 
ENDROOT
BRANCH   1  11
ATOM     11  S   UNL d   1      31.093  16.202 -24.296  0.00  0.00     0.285 S 
ATOM     12  O   UNL d   1      30.649  15.476 -24.296  0.00  0.00    -0.198 OA
ATOM     13  O   UNL d   1      31.747  15.765 -24.588  0.00  0.00    -0.198 OA
BRANCH  11  14
ATOM     14  N   UNL d   1      30.431  16.592 -24.010  0.00  0.00    -0.157 NA
BRANCH  14  15
ATOM     15  C   UNL d   1      29.737  16.219 -23.902  0.00  0.00     0.113 A 
ATOM     16  C   UNL d   1      29.175  16.201 -24.506  0.00  0.00     0.119 A 
ATOM     17  N   UNL d   1      28.457  15.814 -24.394  0.00  0.00    -0.241 NA
ATOM     18  C   UNL d   1      28.302  15.452 -23.694  0.00  0.00     0.099 A 
ATOM     19  C   UNL d   1      28.871  15.465 -23.071  0.00  0.00     0.022 A 
ATOM     20  C   UNL d   1      29.577  15.855 -23.202  0.00  0.00     0.023 A 
ENDBRANCH  14  15
ENDBRANCH  11  14
ENDBRANCH   1  11
TORSDOF 3
ENDMDL
