MODEL 1
REMARK VINA RESULT:      -4.4      0.000      0.000
REMARK  1 active torsions:
REMARK  status: ('A' for Active; 'I' for Inactive)
REMARK    1  A    between atoms: C_9  and  C_4 
ROOT
ATOM      1  S   UNL d   1      55.977   0.256  32.889  0.00  0.00    -0.085 SA
ATOM      2  N   UNL d   1      56.561   0.639  34.562  0.00  0.00    -0.207 NA
ATOM      3  C   UNL d   1      57.272   0.568  34.179  0.00  0.00     0.280 A 
ATOM      4  C   UNL d   1      56.779   0.245  32.768  0.00  0.00     0.034 A 
ATOM      5  C   UNL d   1      57.376   0.386  33.350  0.00  0.00     0.069 A 
ATOM      6  C   UNL d   1      55.660   0.383  33.492  0.00  0.00     0.047 A 
ATOM      7  C   UNL d   1      55.915   0.559  34.256  0.00  0.00     0.091 A 
ATOM      8  O   UNL d   1      57.952   0.682  34.628  0.00  0.00    -0.265 OA
ATOM      9  C   UNL d   1      54.855   0.331  33.326  0.00  0.00     0.008 A 
ATOM     10  C   UNL d   1      55.365   0.681  34.856  0.00  0.00     0.020 A 
ATOM     11  C   UNL d   1      54.552   0.629  34.694  0.00  0.00     0.002 A 
ATOM     12  C   UNL d   1      54.297   0.454  33.930  0.00  0.00     0.001 A 
ENDROOT
BRANCH   4  13
ATOM     13  C   UNL d   1      57.035   0.078  31.997  0.00  0.00     0.006 A 
ATOM     14  C   UNL d   1      57.290   0.682  31.507  0.00  0.00     0.001 A 
ATOM     15  C   UNL d   1      57.543   0.518  30.745  0.00  0.00     0.000 A 
ATOM     16  C   UNL d   1      57.540  -0.259  30.471  0.00  0.00     0.000 A 
ATOM     17  C   UNL d   1      57.281  -0.876  30.968  0.00  0.00     0.000 A 
ATOM     18  C   UNL d   1      57.028  -0.706  31.733  0.00  0.00     0.001 A 
ENDBRANCH   4  13
TORSDOF 1
ENDMDL
MODEL 2
REMARK VINA RESULT:      -4.3      1.461      3.590
REMARK  1 active torsions:
REMARK  status: ('A' for Active; 'I' for Inactive)
REMARK    1  A    between atoms: C_9  and  C_4 
ROOT
ATOM      1  S   UNL d   1      56.403   0.174  32.775  0.00  0.00    -0.085 SA
ATOM      2  N   UNL d   1      56.612  -1.366  31.840  0.00  0.00    -0.207 NA
ATOM      3  C   UNL d   1      56.087  -1.615  32.405  0.00  0.00     0.280 A 
ATOM      4  C   UNL d   1      55.911  -0.317  33.193  0.00  0.00     0.034 A 
ATOM      5  C   UNL d   1      55.761  -1.133  33.031  0.00  0.00     0.069 A 
ATOM      6  C   UNL d   1      56.776  -0.004  32.219  0.00  0.00     0.047 A 
ATOM      7  C   UNL d   1      56.878  -0.700  31.787  0.00  0.00     0.091 A 
ATOM      8  O   UNL d   1      55.847  -2.401  32.372  0.00  0.00    -0.265 OA
ATOM      9  C   UNL d   1      57.178   0.680  32.001  0.00  0.00     0.008 A 
ATOM     10  C   UNL d   1      57.382  -0.711  31.136  0.00  0.00     0.020 A 
ATOM     11  C   UNL d   1      57.790  -0.023  30.912  0.00  0.00     0.002 A 
ATOM     12  C   UNL d   1      57.688   0.673  31.344  0.00  0.00     0.001 A 
ENDROOT
BRANCH   4  13
ATOM     13  C   UNL d   1      55.518   0.019  33.841  0.00  0.00     0.006 A 
ATOM     14  C   UNL d   1      54.773   0.346  33.750  0.00  0.00     0.001 A 
ATOM     15  C   UNL d   1      54.385   0.678  34.390  0.00  0.00     0.000 A 
ATOM     16  C   UNL d   1      54.746   0.682  35.131  0.00  0.00     0.000 A 
ATOM     17  C   UNL d   1      55.505   0.349  35.227  0.00  0.00     0.000 A 
ATOM     18  C   UNL d   1      55.890   0.017  34.580  0.00  0.00     0.001 A 
ENDBRANCH   4  13
TORSDOF 1
ENDMDL
MODEL 3
REMARK VINA RESULT:      -3.9      1.450      3.534
REMARK  1 active torsions:
REMARK  status: ('A' for Active; 'I' for Inactive)
REMARK    1  A    between atoms: C_9  and  C_4 
ROOT
ATOM      1  S   UNL d   1      57.163   0.174  31.386  0.00  0.00    -0.085 SA
ATOM      2  N   UNL d   1      58.900   0.630  31.634  0.00  0.00    -0.207 NA
ATOM      3  C   UNL d   1      58.667   0.547  32.405  0.00  0.00     0.280 A 
ATOM      4  C   UNL d   1      57.202   0.162  32.196  0.00  0.00     0.034 A 
ATOM      5  C   UNL d   1      57.882   0.331  32.669  0.00  0.00     0.069 A 
ATOM      6  C   UNL d   1      57.687   0.325  30.958  0.00  0.00     0.047 A 
ATOM      7  C   UNL d   1      58.478   0.533  31.060  0.00  0.00     0.091 A 
ATOM      8  O   UNL d   1      59.234   0.682  32.985  0.00  0.00    -0.265 OA
ATOM      9  C   UNL d   1      57.370   0.261  30.201  0.00  0.00     0.008 A 
ATOM     10  C   UNL d   1      58.954   0.677  30.404  0.00  0.00     0.020 A 
ATOM     11  C   UNL d   1      58.639   0.614  29.638  0.00  0.00     0.002 A 
ATOM     12  C   UNL d   1      57.847   0.406  29.537  0.00  0.00     0.001 A 
ENDROOT
BRANCH   4  13
ATOM     13  C   UNL d   1      56.503  -0.035  32.597  0.00  0.00     0.006 A 
ATOM     14  C   UNL d   1      56.258  -0.815  32.642  0.00  0.00     0.001 A 
ATOM     15  C   UNL d   1      55.569  -1.010  33.038  0.00  0.00     0.000 A 
ATOM     16  C   UNL d   1      55.118  -0.418  33.392  0.00  0.00     0.000 A 
ATOM     17  C   UNL d   1      55.364   0.377  33.348  0.00  0.00     0.000 A 
ATOM     18  C   UNL d   1      56.059   0.567  32.949  0.00  0.00     0.001 A 
ENDBRANCH   4  13
TORSDOF 1
ENDMDL
MODEL 4
REMARK VINA RESULT:      -3.8      2.722      4.657
REMARK  1 active torsions:
REMARK  status: ('A' for Active; 'I' for Inactive)
REMARK    1  A    between atoms: C_9  and  C_4 
ROOT
ATOM      1  S   UNL d   1      58.726   0.280  30.919  0.00  0.00    -0.085 SA
ATOM      2  N   UNL d   1      58.947   0.570  29.143  0.00  0.00    -0.207 NA
ATOM      3  C   UNL d   1      58.144   0.468  29.168  0.00  0.00     0.280 A 
ATOM      4  C   UNL d   1      57.958   0.222  30.666  0.00  0.00     0.034 A 
ATOM      5  C   UNL d   1      57.683   0.307  29.870  0.00  0.00     0.069 A 
ATOM      6  C   UNL d   1      59.276   0.407  30.517  0.00  0.00     0.047 A 
ATOM      7  C   UNL d   1      59.388   0.540  29.710  0.00  0.00     0.091 A 
ATOM      8  O   UNL d   1      57.737   0.523  28.456  0.00  0.00    -0.265 OA
ATOM      9  C   UNL d   1      59.920   0.410  31.029  0.00  0.00     0.008 A 
ATOM     10  C   UNL d   1      60.144   0.677  29.416  0.00  0.00     0.020 A 
ATOM     11  C   UNL d   1      60.797   0.682  29.929  0.00  0.00     0.002 A 
ATOM     12  C   UNL d   1      60.685   0.548  30.735  0.00  0.00     0.001 A 
ENDROOT
BRANCH   4  13
ATOM     13  C   UNL d   1      57.388   0.066  31.247  0.00  0.00     0.006 A 
ATOM     14  C   UNL d   1      57.011   0.682  31.633  0.00  0.00     0.001 A 
ATOM     15  C   UNL d   1      56.448   0.528  32.207  0.00  0.00     0.000 A 
ATOM     16  C   UNL d   1      56.260  -0.252  32.398  0.00  0.00     0.000 A 
ATOM     17  C   UNL d   1      56.642  -0.881  32.008  0.00  0.00     0.000 A 
ATOM     18  C   UNL d   1      57.207  -0.720  31.431  0.00  0.00     0.001 A 
ENDBRANCH   4  13
TORSDOF 1
ENDMDL
MODEL 5
REMARK VINA RESULT:      -3.3      3.210      4.629
REMARK  1 active torsions:
REMARK  status: ('A' for Active; 'I' for Inactive)
REMARK    1  A    between atoms: C_9  and  C_4 
ROOT
ATOM      1  S   UNL d   1      58.361  -1.266  29.973  0.00  0.00    -0.085 SA
ATOM      2  N   UNL d   1      58.528   0.489  29.550  0.00  0.00    -0.207 NA
ATOM      3  C   UNL d   1      59.004   0.163  28.982  0.00  0.00     0.280 A 
ATOM      4  C   UNL d   1      58.863  -1.318  29.338  0.00  0.00     0.034 A 
ATOM      5  C   UNL d   1      59.161  -0.672  28.880  0.00  0.00     0.069 A 
ATOM      6  C   UNL d   1      58.100  -0.681  30.237  0.00  0.00     0.047 A 
ATOM      7  C   UNL d   1      58.169   0.120  30.053  0.00  0.00     0.091 A 
ATOM      8  O   UNL d   1      59.367   0.680  28.455  0.00  0.00    -0.265 OA
ATOM      9  C   UNL d   1      57.629  -0.921  30.868  0.00  0.00     0.008 A 
ATOM     10  C   UNL d   1      57.767   0.682  30.500  0.00  0.00     0.020 A 
ATOM     11  C   UNL d   1      57.291   0.445  31.137  0.00  0.00     0.002 A 
ATOM     12  C   UNL d   1      57.221  -0.356  31.321  0.00  0.00     0.001 A 
ENDROOT
BRANCH   4  13
ATOM     13  C   UNL d   1      59.105  -2.080  29.119  0.00  0.00     0.006 A 
ATOM     14  C   UNL d   1      58.601  -2.569  28.697  0.00  0.00     0.001 A 
ATOM     15  C   UNL d   1      58.840  -3.321  28.481  0.00  0.00     0.000 A 
ATOM     16  C   UNL d   1      59.592  -3.588  28.689  0.00  0.00     0.000 A 
ATOM     17  C   UNL d   1      60.107  -3.093  29.118  0.00  0.00     0.000 A 
ATOM     18  C   UNL d   1      59.861  -2.337  29.333  0.00  0.00     0.001 A 
ENDBRANCH   4  13
TORSDOF 1
ENDMDL
MODEL 6
REMARK VINA RESULT:      -3.2      9.889     10.876
REMARK  1 active torsions:
REMARK  status: ('A' for Active; 'I' for Inactive)
REMARK    1  A    between atoms: C_9  and  C_4 
ROOT
ATOM      1  S   UNL d   1      60.206  -9.409  33.341  0.00  0.00    -0.085 SA
ATOM      2  N   UNL d   1      58.855  -9.774  32.188  0.00  0.00    -0.207 NA
ATOM      3  C   UNL d   1      58.435  -9.703  32.876  0.00  0.00     0.280 A 
ATOM      4  C   UNL d   1      59.574  -9.396  33.849  0.00  0.00     0.034 A 
ATOM      5  C   UNL d   1      58.764  -9.529  33.646  0.00  0.00     0.069 A 
ATOM      6  C   UNL d   1      60.175  -9.532  32.659  0.00  0.00     0.047 A 
ATOM      7  C   UNL d   1      59.568  -9.699  32.126  0.00  0.00     0.091 A 
ATOM      8  O   UNL d   1      57.621  -9.809  32.831  0.00  0.00    -0.265 OA
ATOM      9  C   UNL d   1      60.954  -9.485  32.397  0.00  0.00     0.008 A 
ATOM     10  C   UNL d   1      59.740  -9.818  31.331  0.00  0.00     0.020 A 
ATOM     11  C   UNL d   1      60.523  -9.771  31.061  0.00  0.00     0.002 A 
ATOM     12  C   UNL d   1      61.131  -9.604  31.594  0.00  0.00     0.001 A 
ENDROOT
BRANCH   4  13
ATOM     13  C   UNL d   1      59.743  -9.235  34.645  0.00  0.00     0.006 A 
ATOM     14  C   UNL d   1      60.112  -9.799  35.111  0.00  0.00     0.001 A 
ATOM     15  C   UNL d   1      60.279  -9.642  35.896  0.00  0.00     0.000 A 
ATOM     16  C   UNL d   1      60.075  -8.912  36.221  0.00  0.00     0.000 A 
ATOM     17  C   UNL d   1      59.700  -8.336  35.749  0.00  0.00     0.000 A 
ATOM     18  C   UNL d   1      59.534  -8.500  34.959  0.00  0.00     0.001 A 
ENDBRANCH   4  13
TORSDOF 1
ENDMDL
MODEL 7
REMARK VINA RESULT:      -2.8      3.934      5.806
REMARK  1 active torsions:
REMARK  status: ('A' for Active; 'I' for Inactive)
REMARK    1  A    between atoms: C_9  and  C_4 
ROOT
ATOM      1  S   UNL d   1      58.796  -1.719  29.271  0.00  0.00    -0.085 SA
ATOM      2  N   UNL d   1      60.464  -1.879  28.579  0.00  0.00    -0.207 NA
ATOM      3  C   UNL d   1      60.455  -1.085  28.738  0.00  0.00     0.280 A 
ATOM      4  C   UNL d   1      59.048  -0.950  29.322  0.00  0.00     0.034 A 
ATOM      5  C   UNL d   1      59.802  -0.652  29.081  0.00  0.00     0.069 A 
ATOM      6  C   UNL d   1      59.164  -2.250  29.021  0.00  0.00     0.047 A 
ATOM      7  C   UNL d   1      59.921  -2.334  28.705  0.00  0.00     0.091 A 
ATOM      8  O   UNL d   1      61.133  -0.658  28.553  0.00  0.00    -0.265 OA
ATOM      9  C   UNL d   1      58.669  -2.905  29.088  0.00  0.00     0.008 A 
ATOM     10  C   UNL d   1      60.184  -3.073  28.456  0.00  0.00     0.020 A 
ATOM     11  C   UNL d   1      59.689  -3.736  28.522  0.00  0.00     0.002 A 
ATOM     12  C   UNL d   1      58.932  -3.652  28.838  0.00  0.00     0.001 A 
ENDROOT
BRANCH   4  13
ATOM     13  C   UNL d   1      58.511  -0.405  29.641  0.00  0.00     0.006 A 
ATOM     14  C   UNL d   1      58.352  -0.403  30.444  0.00  0.00     0.001 A 
ATOM     15  C   UNL d   1      57.821   0.134  30.760  0.00  0.00     0.000 A 
ATOM     16  C   UNL d   1      57.446   0.678  30.267  0.00  0.00     0.000 A 
ATOM     17  C   UNL d   1      57.606   0.679  29.448  0.00  0.00     0.000 A 
ATOM     18  C   UNL d   1      58.140   0.136  29.136  0.00  0.00     0.001 A 
ENDBRANCH   4  13
TORSDOF 1
ENDMDL
MODEL 8
REMARK VINA RESULT:      -2.5      1.563      2.442
REMARK  1 active torsions:
REMARK  status: ('A' for Active; 'I' for Inactive)
REMARK    1  A    between atoms: C_9  and  C_4 
ROOT
ATOM      1  S   UNL d   1      57.405   0.093  31.156  0.00  0.00    -0.085 SA
ATOM      2  N   UNL d   1      58.259   0.533  32.694  0.00  0.00    -0.207 NA
ATOM      3  C   UNL d   1      58.889   0.513  32.185  0.00  0.00     0.280 A 
ATOM      4  C   UNL d   1      58.169   0.142  30.888  0.00  0.00     0.034 A 
ATOM      5  C   UNL d   1      58.851   0.333  31.350  0.00  0.00     0.069 A 
ATOM      6  C   UNL d   1      57.197   0.201  31.808  0.00  0.00     0.047 A 
ATOM      7  C   UNL d   1      57.575   0.401  32.513  0.00  0.00     0.091 A 
ATOM      8  O   UNL d   1      59.630   0.682  32.501  0.00  0.00    -0.265 OA
ATOM      9  C   UNL d   1      56.382   0.085  31.795  0.00  0.00     0.008 A 
ATOM     10  C   UNL d   1      57.139   0.485  33.205  0.00  0.00     0.020 A 
ATOM     11  C   UNL d   1      56.316   0.370  33.197  0.00  0.00     0.002 A 
ATOM     12  C   UNL d   1      55.938   0.170  32.492  0.00  0.00     0.001 A 
ENDROOT
BRANCH   4  13
ATOM     13  C   UNL d   1      58.289  -0.010  30.082  0.00  0.00     0.006 A 
ATOM     14  C   UNL d   1      58.516  -0.756  29.831  0.00  0.00     0.001 A 
ATOM     15  C   UNL d   1      58.635  -0.907  29.036  0.00  0.00     0.000 A 
ATOM     16  C   UNL d   1      58.525  -0.304  28.483  0.00  0.00     0.000 A 
ATOM     17  C   UNL d   1      58.294   0.456  28.736  0.00  0.00     0.000 A 
ATOM     18  C   UNL d   1      58.176   0.602  29.537  0.00  0.00     0.001 A 
ENDBRANCH   4  13
TORSDOF 1
ENDMDL
MODEL 9
REMARK VINA RESULT:      -2.4      1.452      1.879
REMARK  1 active torsions:
REMARK  status: ('A' for Active; 'I' for Inactive)
REMARK    1  A    between atoms: C_9  and  C_4 
ROOT
ATOM      1  S   UNL d   1      56.904   0.232  32.793  0.00  0.00    -0.085 SA
ATOM      2  N   UNL d   1      55.759  -1.134  33.126  0.00  0.00    -0.207 NA
ATOM      3  C   UNL d   1      56.032  -1.357  32.397  0.00  0.00     0.280 A 
ATOM      4  C   UNL d   1      56.998  -0.205  32.116  0.00  0.00     0.034 A 
ATOM      5  C   UNL d   1      56.605  -0.929  31.927  0.00  0.00     0.069 A 
ATOM      6  C   UNL d   1      56.484   0.074  33.321  0.00  0.00     0.047 A 
ATOM      7  C   UNL d   1      55.961  -0.543  33.483  0.00  0.00     0.091 A 
ATOM      8  O   UNL d   1      55.733  -2.054  32.081  0.00  0.00    -0.265 OA
ATOM      9  C   UNL d   1      56.587   0.682  33.866  0.00  0.00     0.008 A 
ATOM     10  C   UNL d   1      55.540  -0.552  34.190  0.00  0.00     0.020 A 
ATOM     11  C   UNL d   1      55.640   0.060  34.743  0.00  0.00     0.002 A 
ATOM     12  C   UNL d   1      56.163   0.676  34.581  0.00  0.00     0.001 A 
ENDROOT
BRANCH   4  13
ATOM     13  C   UNL d   1      57.533   0.092  31.556  0.00  0.00     0.006 A 
ATOM     14  C   UNL d   1      58.337   0.094  31.712  0.00  0.00     0.001 A 
ATOM     15  C   UNL d   1      58.866   0.386  31.160  0.00  0.00     0.000 A 
ATOM     16  C   UNL d   1      58.587   0.682  30.443  0.00  0.00     0.000 A 
ATOM     17  C   UNL d   1      57.769   0.682  30.281  0.00  0.00     0.000 A 
ATOM     18  C   UNL d   1      57.242   0.386  30.840  0.00  0.00     0.001 A 
ENDBRANCH   4  13
TORSDOF 1
ENDMDL
