MODEL 1
REMARK VINA RESULT:      -7.2      0.000      0.000
REMARK  5 active torsions:
REMARK  status: ('A' for Active; 'I' for Inactive)
REMARK    1  A    between atoms: C_10  and  C_2 
REMARK    2  A    between atoms: S_8  and  C_3 
REMARK    3  A    between atoms: C_6  and  N_7 
REMARK       I    between atoms: N_7  and  C_9 
REMARK    4  A    between atoms: C_15  and  S_8 
REMARK    5  A    between atoms: C_9  and  C_15 
ROOT
ATOM      1  S   UNL d   1     -47.177  12.744  23.219  0.00  0.00    -0.041 SA
ENDROOT
BRANCH   1   2
ATOM      2  C   UNL d   1     -46.397  12.522  23.111  0.00  0.00     0.219 A 
ATOM      3  N   UNL d   1     -46.141  11.779  23.344  0.00  0.00    -0.167 N 
ATOM      4  C   UNL d   1     -45.351  11.716  23.169  0.00  0.00     0.189 A 
ATOM      5  N   UNL d   1     -46.610  11.198  23.695  0.00  0.00    -0.038 N 
ATOM      6  N   UNL d   1     -45.083  12.396  22.828  0.00  0.00    -0.126 NA
ATOM      7  N   UNL d   1     -45.735  12.900  22.792  0.00  0.00    -0.120 NA
BRANCH   4   8
ATOM      8  C   UNL d   1     -44.883  11.057  23.314  0.00  0.00     0.038 A 
ATOM      9  C   UNL d   1     -44.044  11.101  23.222  0.00  0.00     0.003 A 
ATOM     10  C   UNL d   1     -43.567  10.437  23.368  0.00  0.00     0.000 A 
ATOM     11  C   UNL d   1     -43.934   9.720  23.609  0.00  0.00     0.000 A 
ATOM     12  C   UNL d   1     -44.766   9.686  23.697  0.00  0.00     0.000 A 
ATOM     13  C   UNL d   1     -45.232  10.344  23.552  0.00  0.00     0.003 A 
ENDBRANCH   4   8
ENDBRANCH   1   2
BRANCH   1  14
ATOM     14  C   UNL d   1     -47.539  13.291  22.713  0.00  0.00     0.101 C 
BRANCH  14  15
ATOM     15  C   UNL d   1     -48.282  13.580  22.871  0.00  0.00     0.286 C 
ATOM     16  N   UNL d   1     -48.788  13.786  22.228  0.00  0.00    -0.208 NA
ATOM     17  O   UNL d   1     -48.542  13.672  23.638  0.00  0.00    -0.265 OA
BRANCH  16  18
ATOM     18  C   UNL d   1     -49.555  14.083  22.390  0.00  0.00     0.085 A 
ATOM     19  C   UNL d   1     -50.216  13.754  22.014  0.00  0.00     0.018 A 
ATOM     20  C   UNL d   1     -50.971  14.046  22.175  0.00  0.00     0.002 A 
ATOM     21  C   UNL d   1     -50.125  13.142  21.487  0.00  0.00     0.002 C 
ATOM     22  C   UNL d   1     -51.064  14.669  22.711  0.00  0.00     0.000 A 
ATOM     23  C   UNL d   1     -50.400  14.988  23.078  0.00  0.00     0.002 A 
ATOM     24  C   UNL d   1     -49.668  14.704  22.922  0.00  0.00     0.019 A 
ATOM     25  C   UNL d   1     -50.496  15.608  23.612  0.00  0.00     0.000 C 
ENDBRANCH  16  18
ENDBRANCH  14  15
ENDBRANCH   1  14
TORSDOF 5
ENDMDL
MODEL 2
REMARK VINA RESULT:      -6.3      1.338      5.888
REMARK  5 active torsions:
REMARK  status: ('A' for Active; 'I' for Inactive)
REMARK    1  A    between atoms: C_10  and  C_2 
REMARK    2  A    between atoms: S_8  and  C_3 
REMARK    3  A    between atoms: C_6  and  N_7 
REMARK       I    between atoms: N_7  and  C_9 
REMARK    4  A    between atoms: C_15  and  S_8 
REMARK    5  A    between atoms: C_9  and  C_15 
ROOT
ATOM      1  S   UNL d   1     -47.111  13.511  22.923  0.00  0.00    -0.041 SA
ENDROOT
BRANCH   1   2
ATOM      2  C   UNL d   1     -47.912  13.503  23.089  0.00  0.00     0.219 A 
ATOM      3  N   UNL d   1     -48.373  14.165  22.942  0.00  0.00    -0.167 N 
ATOM      4  C   UNL d   1     -49.136  13.995  23.159  0.00  0.00     0.189 A 
ATOM      5  N   UNL d   1     -48.103  14.877  22.626  0.00  0.00    -0.038 N 
ATOM      6  N   UNL d   1     -49.187  13.243  23.445  0.00  0.00    -0.126 NA
ATOM      7  N   UNL d   1     -48.423  12.935  23.402  0.00  0.00    -0.120 NA
BRANCH   4   8
ATOM      8  C   UNL d   1     -49.773  14.510  23.101  0.00  0.00     0.038 A 
ATOM      9  C   UNL d   1     -50.302  14.463  22.444  0.00  0.00     0.003 A 
ATOM     10  C   UNL d   1     -50.947  14.982  22.382  0.00  0.00     0.000 A 
ATOM     11  C   UNL d   1     -51.064  15.556  22.985  0.00  0.00     0.000 A 
ATOM     12  C   UNL d   1     -50.535  15.595  23.632  0.00  0.00     0.000 A 
ATOM     13  C   UNL d   1     -49.900  15.081  23.689  0.00  0.00     0.003 A 
ENDBRANCH   4   8
ENDBRANCH   1   2
BRANCH   1  14
ATOM     14  C   UNL d   1     -46.639  12.845  23.062  0.00  0.00     0.101 C 
BRANCH  14  15
ATOM     15  C   UNL d   1     -45.859  12.828  22.831  0.00  0.00     0.286 C 
ATOM     16  N   UNL d   1     -45.477  12.082  22.732  0.00  0.00    -0.208 NA
ATOM     17  O   UNL d   1     -45.447  13.517  22.697  0.00  0.00    -0.265 OA
BRANCH  16  18
ATOM     18  C   UNL d   1     -44.673  12.064  22.494  0.00  0.00     0.085 A 
ATOM     19  C   UNL d   1     -44.161  11.492  22.806  0.00  0.00     0.018 A 
ATOM     20  C   UNL d   1     -43.370  11.475  22.572  0.00  0.00     0.002 A 
ATOM     21  C   UNL d   1     -44.434  10.947  23.343  0.00  0.00     0.002 C 
ATOM     22  C   UNL d   1     -43.091  12.029  22.026  0.00  0.00     0.000 A 
ATOM     23  C   UNL d   1     -43.609  12.592  21.723  0.00  0.00     0.002 A 
ATOM     24  C   UNL d   1     -44.377  12.609  21.950  0.00  0.00     0.019 A 
ATOM     25  C   UNL d   1     -43.329  13.144  21.179  0.00  0.00     0.000 C 
ENDBRANCH  16  18
ENDBRANCH  14  15
ENDBRANCH   1  14
TORSDOF 5
ENDMDL
MODEL 3
REMARK VINA RESULT:      -6.3      1.119      1.645
REMARK  5 active torsions:
REMARK  status: ('A' for Active; 'I' for Inactive)
REMARK    1  A    between atoms: C_10  and  C_2 
REMARK    2  A    between atoms: S_8  and  C_3 
REMARK    3  A    between atoms: C_6  and  N_7 
REMARK       I    between atoms: N_7  and  C_9 
REMARK    4  A    between atoms: C_15  and  S_8 
REMARK    5  A    between atoms: C_9  and  C_15 
ROOT
ATOM      1  S   UNL d   1     -46.999  13.523  23.099  0.00  0.00    -0.041 SA
ENDROOT
BRANCH   1   2
ATOM      2  C   UNL d   1     -46.385  12.984  23.057  0.00  0.00     0.219 A 
ATOM      3  N   UNL d   1     -45.720  13.148  22.606  0.00  0.00    -0.167 N 
ATOM      4  C   UNL d   1     -45.210  12.519  22.669  0.00  0.00     0.189 A 
ATOM      5  N   UNL d   1     -45.595  13.833  22.166  0.00  0.00    -0.038 N 
ATOM      6  N   UNL d   1     -45.522  11.950  23.148  0.00  0.00    -0.126 NA
ATOM      7  N   UNL d   1     -46.256  12.239  23.390  0.00  0.00    -0.120 NA
BRANCH   4   8
ATOM      8  C   UNL d   1     -44.478  12.462  22.301  0.00  0.00     0.038 A 
ATOM      9  C   UNL d   1     -43.892  11.930  22.597  0.00  0.00     0.003 A 
ATOM     10  C   UNL d   1     -43.151  11.869  22.227  0.00  0.00     0.000 A 
ATOM     11  C   UNL d   1     -42.994  12.347  21.554  0.00  0.00     0.000 A 
ATOM     12  C   UNL d   1     -43.581  12.871  21.268  0.00  0.00     0.000 A 
ATOM     13  C   UNL d   1     -44.311  12.928  21.636  0.00  0.00     0.003 A 
ENDBRANCH   4   8
ENDBRANCH   1   2
BRANCH   1  14
ATOM     14  C   UNL d   1     -47.778  13.272  23.229  0.00  0.00     0.101 C 
BRANCH  14  15
ATOM     15  C   UNL d   1     -48.404  13.782  23.132  0.00  0.00     0.286 C 
ATOM     16  N   UNL d   1     -49.147  13.477  22.872  0.00  0.00    -0.208 NA
ATOM     17  O   UNL d   1     -48.322  14.579  23.282  0.00  0.00    -0.265 OA
BRANCH  16  18
ATOM     18  C   UNL d   1     -49.791  14.003  22.772  0.00  0.00     0.085 A 
ATOM     19  C   UNL d   1     -50.334  13.882  22.157  0.00  0.00     0.018 A 
ATOM     20  C   UNL d   1     -50.969  14.400  22.059  0.00  0.00     0.002 A 
ATOM     21  C   UNL d   1     -50.244  13.254  21.649  0.00  0.00     0.002 C 
ATOM     22  C   UNL d   1     -51.062  15.039  22.575  0.00  0.00     0.000 A 
ATOM     23  C   UNL d   1     -50.517  15.149  23.182  0.00  0.00     0.002 A 
ATOM     24  C   UNL d   1     -49.900  14.646  23.278  0.00  0.00     0.019 A 
ATOM     25  C   UNL d   1     -50.611  15.786  23.696  0.00  0.00     0.000 C 
ENDBRANCH  16  18
ENDBRANCH  14  15
ENDBRANCH   1  14
TORSDOF 5
ENDMDL
MODEL 4
REMARK VINA RESULT:      -5.4      4.250      6.764
REMARK  5 active torsions:
REMARK  status: ('A' for Active; 'I' for Inactive)
REMARK    1  A    between atoms: C_10  and  C_2 
REMARK    2  A    between atoms: S_8  and  C_3 
REMARK    3  A    between atoms: C_6  and  N_7 
REMARK       I    between atoms: N_7  and  C_9 
REMARK    4  A    between atoms: C_15  and  S_8 
REMARK    5  A    between atoms: C_9  and  C_15 
ROOT
ATOM      1  S   UNL d   1     -43.271  13.047  21.233  0.00  0.00    -0.041 SA
ENDROOT
BRANCH   1   2
ATOM      2  C   UNL d   1     -43.691  12.597  21.771  0.00  0.00     0.219 A 
ATOM      3  N   UNL d   1     -44.459  12.802  21.973  0.00  0.00    -0.167 N 
ATOM      4  C   UNL d   1     -44.732  12.260  22.512  0.00  0.00     0.189 A 
ATOM      5  N   UNL d   1     -44.878  13.447  21.677  0.00  0.00    -0.038 N 
ATOM      6  N   UNL d   1     -44.166  11.708  22.669  0.00  0.00    -0.126 NA
ATOM      7  N   UNL d   1     -43.516  11.917  22.207  0.00  0.00    -0.120 NA
BRANCH   4   8
ATOM      8  C   UNL d   1     -45.478  12.266  22.856  0.00  0.00     0.038 A 
ATOM      9  C   UNL d   1     -45.788  11.567  23.215  0.00  0.00     0.003 A 
ATOM     10  C   UNL d   1     -46.542  11.568  23.564  0.00  0.00     0.000 A 
ATOM     11  C   UNL d   1     -46.992  12.279  23.552  0.00  0.00     0.000 A 
ATOM     12  C   UNL d   1     -46.676  12.966  23.193  0.00  0.00     0.000 A 
ATOM     13  C   UNL d   1     -45.932  12.959  22.851  0.00  0.00     0.003 A 
ENDBRANCH   4   8
ENDBRANCH   1   2
BRANCH   1  14
ATOM     14  C   UNL d   1     -42.449  13.132  21.297  0.00  0.00     0.101 C 
BRANCH  14  15
ATOM     15  C   UNL d   1     -42.025  13.541  20.736  0.00  0.00     0.286 C 
ATOM     16  N   UNL d   1     -41.444  14.099  20.987  0.00  0.00    -0.208 NA
ATOM     17  O   UNL d   1     -42.156  13.419  19.941  0.00  0.00    -0.265 OA
BRANCH  16  18
ATOM     18  C   UNL d   1     -41.007  14.520  20.409  0.00  0.00     0.085 A 
ATOM     19  C   UNL d   1     -40.908  15.340  20.480  0.00  0.00     0.018 A 
ATOM     20  C   UNL d   1     -40.478  15.755  19.911  0.00  0.00     0.002 A 
ATOM     21  C   UNL d   1     -41.234  15.739  21.109  0.00  0.00     0.002 C 
ATOM     22  C   UNL d   1     -40.146  15.349  19.270  0.00  0.00     0.000 A 
ATOM     23  C   UNL d   1     -40.251  14.535  19.211  0.00  0.00     0.002 A 
ATOM     24  C   UNL d   1     -40.668  14.133  19.764  0.00  0.00     0.019 A 
ATOM     25  C   UNL d   1     -39.919  14.133  18.573  0.00  0.00     0.000 C 
ENDBRANCH  16  18
ENDBRANCH  14  15
ENDBRANCH   1  14
TORSDOF 5
ENDMDL
MODEL 5
REMARK VINA RESULT:      -5.1      3.193      4.286
REMARK  5 active torsions:
REMARK  status: ('A' for Active; 'I' for Inactive)
REMARK    1  A    between atoms: C_10  and  C_2 
REMARK    2  A    between atoms: S_8  and  C_3 
REMARK    3  A    between atoms: C_6  and  N_7 
REMARK       I    between atoms: N_7  and  C_9 
REMARK    4  A    between atoms: C_15  and  S_8 
REMARK    5  A    between atoms: C_9  and  C_15 
ROOT
ATOM      1  S   UNL d   1     -44.180  13.296  21.606  0.00  0.00    -0.041 SA
ENDROOT
BRANCH   1   2
ATOM      2  C   UNL d   1     -43.396  13.117  21.457  0.00  0.00     0.219 A 
ATOM      3  N   UNL d   1     -42.863  13.711  21.271  0.00  0.00    -0.167 N 
ATOM      4  C   UNL d   1     -42.136  13.371  21.152  0.00  0.00     0.189 A 
ATOM      5  N   UNL d   1     -43.040  14.515  21.215  0.00  0.00    -0.038 N 
ATOM      6  N   UNL d   1     -42.178  12.573  21.255  0.00  0.00    -0.126 NA
ATOM      7  N   UNL d   1     -42.965  12.413  21.445  0.00  0.00    -0.120 NA
BRANCH   4   8
ATOM      8  C   UNL d   1     -41.448  13.775  20.955  0.00  0.00     0.038 A 
ATOM      9  C   UNL d   1     -41.308  14.017  20.158  0.00  0.00     0.003 A 
ATOM     10  C   UNL d   1     -40.614  14.425  19.955  0.00  0.00     0.000 A 
ATOM     11  C   UNL d   1     -40.053  14.594  20.558  0.00  0.00     0.000 A 
ATOM     12  C   UNL d   1     -40.201  14.351  21.346  0.00  0.00     0.000 A 
ATOM     13  C   UNL d   1     -40.887  13.948  21.541  0.00  0.00     0.003 A 
ENDBRANCH   4   8
ENDBRANCH   1   2
BRANCH   1  14
ATOM     14  C   UNL d   1     -44.642  12.813  22.096  0.00  0.00     0.101 C 
BRANCH  14  15
ATOM     15  C   UNL d   1     -45.438  12.952  22.191  0.00  0.00     0.286 C 
ATOM     16  N   UNL d   1     -45.785  12.848  22.953  0.00  0.00    -0.208 NA
ATOM     17  O   UNL d   1     -45.900  13.189  21.563  0.00  0.00    -0.265 OA
BRANCH  16  18
ATOM     18  C   UNL d   1     -46.605  12.991  23.051  0.00  0.00     0.085 A 
ATOM     19  C   UNL d   1     -47.091  12.409  23.387  0.00  0.00     0.018 A 
ATOM     20  C   UNL d   1     -47.898  12.550  23.483  0.00  0.00     0.002 A 
ATOM     21  C   UNL d   1     -46.775  11.698  23.622  0.00  0.00     0.002 C 
ATOM     22  C   UNL d   1     -48.220  13.273  23.244  0.00  0.00     0.000 A 
ATOM     23  C   UNL d   1     -47.728  13.843  22.912  0.00  0.00     0.002 A 
ATOM     24  C   UNL d   1     -46.944  13.707  22.819  0.00  0.00     0.019 A 
ATOM     25  C   UNL d   1     -48.051  14.563  22.674  0.00  0.00     0.000 C 
ENDBRANCH  16  18
ENDBRANCH  14  15
ENDBRANCH   1  14
TORSDOF 5
ENDMDL
