MODEL 1
REMARK VINA RESULT:      18.2      0.000      0.000
REMARK  3 active torsions:
REMARK  status: ('A' for Active; 'I' for Inactive)
REMARK    1  A    between atoms: S_8  and  C_1 
REMARK    2  A    between atoms: C_7  and  C_12 
REMARK    3  A    between atoms: C_12  and  S_8 
ROOT
ATOM      1  C   UNL d   1     -57.091 -98.755 -44.383  0.00  0.00     0.141 A 
ATOM      2  N   UNL d   1     -57.391 -98.755 -45.142  0.00  0.00    -0.232 NA
ATOM      3  S   UNL d   1     -57.703 -98.756 -43.854  0.00  0.00    -0.060 SA
ATOM      4  C   UNL d   1     -58.200 -98.755 -45.069  0.00  0.00     0.088 A 
ATOM      5  C   UNL d   1     -58.393 -98.756 -44.272  0.00  0.00     0.049 A 
ATOM      6  C   UNL d   1     -58.797 -98.755 -45.648  0.00  0.00     0.020 A 
ATOM      7  C   UNL d   1     -59.185 -98.756 -44.049  0.00  0.00     0.008 A 
ATOM      8  C   UNL d   1     -59.597 -98.756 -45.408  0.00  0.00     0.002 A 
ATOM      9  C   UNL d   1     -59.791 -98.756 -44.611  0.00  0.00     0.001 A 
ENDROOT
BRANCH   1  10
ATOM     10  S   UNL d   1     -56.288 -98.755 -44.189  0.00  0.00    -0.060 SA
BRANCH  10  11
ATOM     11  C   UNL d   1     -55.733 -99.061 -44.702  0.00  0.00     0.044 C 
BRANCH  11  12
ATOM     12  C   UNL d   1     -55.330 -99.775 -44.525  0.00  0.00     0.036 A 
ATOM     13  S   UNL d   1     -55.106-100.276 -45.142  0.00  0.00    -0.086 SA
ATOM     14  C   UNL d   1     -54.729-100.920 -44.803  0.00  0.00     0.035 A 
ATOM     15  C   UNL d   1     -54.721-100.815 -43.982  0.00  0.00     0.007 A 
ATOM     16  C   UNL d   1     -55.097-100.100 -43.814  0.00  0.00     0.007 A 
ENDBRANCH  11  12
ENDBRANCH  10  11
ENDBRANCH   1  10
TORSDOF 3
ENDMDL
