MODEL 1
REMARK VINA RESULT:      63.2      0.000      0.000
REMARK  4 active torsions:
REMARK  status: ('A' for Active; 'I' for Inactive)
REMARK    1  A    between atoms: C_6  and  C_1 
REMARK    2  A    between atoms: C_3  and  C_15 
REMARK    3  A    between atoms: O_11  and  C_6 
REMARK    4  A    between atoms: C_15  and  O_11 
ROOT
ATOM      1  C   UNL d   1     -55.166-100.059 -43.799  0.00  0.00     0.127 A 
ATOM      2  C   UNL d   1     -55.059-100.515 -44.467  0.00  0.00     0.305 A 
ATOM      3  C   UNL d   1     -55.135-100.413 -43.048  0.00  0.00     0.013 A 
ATOM      4  C   UNL d   1     -54.993-101.234 -43.017  0.00  0.00     0.023 A 
ATOM      5  O   UNL d   1     -54.921-101.313 -44.445  0.00  0.00    -0.273 OA
ATOM      6  C   UNL d   1     -54.887-101.687 -43.680  0.00  0.00     0.103 A 
ATOM      7  C   UNL d   1     -54.959-101.608 -42.258  0.00  0.00     0.002 A 
ATOM      8  O   UNL d   1     -55.096-100.124 -45.241  0.00  0.00    -0.259 OA
ATOM      9  C   UNL d   1     -54.744-102.515 -43.654  0.00  0.00     0.025 A 
ATOM     10  C   UNL d   1     -54.818-102.430 -42.226  0.00  0.00     0.000 A 
ATOM     11  C   UNL d   1     -54.713-102.869 -42.909  0.00  0.00     0.002 A 
ATOM     12  C   UNL d   1     -55.060-101.189 -41.560  0.00  0.00     0.000 A 
ATOM     13  C   UNL d   1     -54.780-102.811 -41.519  0.00  0.00     0.000 A 
ATOM     14  C   UNL d   1     -55.022-101.585 -40.821  0.00  0.00     0.000 A 
ATOM     15  C   UNL d   1     -54.883-102.389 -40.798  0.00  0.00     0.000 A 
ENDROOT
BRANCH   1  16
ATOM     16  C   UNL d   1     -55.313 -99.194 -43.878  0.00  0.00     0.305 C 
ATOM     17  O   UNL d   1     -55.371 -98.762 -43.178  0.00  0.00    -0.259 OA
BRANCH  16  18
ATOM     18  O   UNL d   1     -55.391 -98.826 -44.608  0.00  0.00    -0.271 OA
BRANCH  18  19
ATOM     19  C   UNL d   1     -56.133 -98.820 -44.976  0.00  0.00     0.127 C 
ATOM     20  C   UNL d   1     -56.169 -98.808 -45.810  0.00  0.00     0.029 C 
BRANCH  19  21
ATOM     21  C   UNL d   1     -56.841 -98.825 -44.557  0.00  0.00     0.134 A 
ATOM     22  N   UNL d   1     -56.958 -98.882 -43.757  0.00  0.00    -0.236 NA
ATOM     23  C   UNL d   1     -57.796 -98.858 -43.645  0.00  0.00     0.088 A 
ATOM     24  C   UNL d   1     -58.250 -98.893 -42.966  0.00  0.00     0.020 A 
ATOM     25  C   UNL d   1     -58.142 -98.792 -44.315  0.00  0.00     0.049 A 
ATOM     26  C   UNL d   1     -59.101 -98.859 -42.969  0.00  0.00     0.002 A 
ATOM     27  C   UNL d   1     -59.432 -98.791 -43.683  0.00  0.00     0.001 A 
ATOM     28  C   UNL d   1     -58.975 -98.755 -44.368  0.00  0.00     0.008 A 
ATOM     29  S   UNL d   1     -57.583 -98.767 -44.923  0.00  0.00    -0.065 SA
ENDBRANCH  19  21
ENDBRANCH  18  19
ENDBRANCH  16  18
ENDBRANCH   1  16
TORSDOF 4
ENDMDL
