MODEL 1
REMARK VINA RESULT:      13.4      0.000      0.000
REMARK  5 active torsions:
REMARK  status: ('A' for Active; 'I' for Inactive)
REMARK    1  A    between atoms: C_2  and  S_1 
REMARK    2  A    between atoms: N_3  and  S_1 
REMARK    3  A    between atoms: C_18  and  N_7 
REMARK    4  A    between atoms: O_27  and  C_9 
REMARK    5  A    between atoms: C_17  and  C_18 
ROOT
ATOM      1  N   UNL d   1      45.941 -17.358  43.818  0.00  0.00    -0.226 N 
ATOM      2  N   UNL d   1      45.579 -15.928  44.568  0.00  0.00    -0.300 N 
ATOM      3  C   UNL d   1      45.438 -16.809  43.449  0.00  0.00     0.111 A 
ATOM      4  C   UNL d   1      46.259 -17.186  44.563  0.00  0.00     0.111 A 
ATOM      5  C   UNL d   1      45.261 -16.095  43.830  0.00  0.00     0.100 A 
ATOM      6  C   UNL d   1      46.082 -16.477  44.937  0.00  0.00     0.100 A 
ENDROOT
BRANCH   1   7
ATOM      7  S   UNL d   1      46.117 -18.069  43.441  0.00  0.00     0.273 S 
ATOM      8  O   UNL d   1      45.760 -17.783  42.745  0.00  0.00    -0.200 OA
ATOM      9  O   UNL d   1      46.471 -18.353  44.127  0.00  0.00    -0.200 OA
BRANCH   7  10
ATOM     10  C   UNL d   1      46.292 -18.776  43.062  0.00  0.00     0.128 A 
ATOM     11  C   UNL d   1      46.383 -18.799  42.239  0.00  0.00     0.044 A 
ATOM     12  C   UNL d   1      46.559 -19.508  41.857  0.00  0.00     0.141 A 
ATOM     13  F   UNL d   1      46.647 -19.525  41.045  0.00  0.00    -0.204 F 
ATOM     14  C   UNL d   1      46.646 -20.206  42.301  0.00  0.00     0.032 A 
ATOM     15  C   UNL d   1      46.556 -20.184  43.119  0.00  0.00     0.027 A 
ATOM     16  C   UNL d   1      46.380 -19.473  43.506  0.00  0.00     0.106 A 
BRANCH  16  17
ATOM     17  O   UNL d   1      46.292 -19.461  44.325  0.00  0.00    -0.327 OA
ATOM     18  C   UNL d   1      46.446 -20.134  44.766  0.00  0.00     0.181 C 
ENDBRANCH  16  17
ENDBRANCH   7  10
ENDBRANCH   1   7
BRANCH   2  19
ATOM     19  C   UNL d   1      45.402 -15.216  44.945  0.00  0.00     0.080 C 
BRANCH  19  20
ATOM     20  C   UNL d   1      45.486 -14.496  44.546  0.00  0.00     0.020 A 
ATOM     21  C   UNL d   1      44.836 -14.140  44.193  0.00  0.00     0.028 A 
ATOM     22  C   UNL d   1      44.921 -13.422  43.795  0.00  0.00     0.119 A 
ATOM     23  O   UNL d   1      44.384 -12.941  43.395  0.00  0.00    -0.300 OA
ATOM     24  C   UNL d   1      45.668 -13.060  43.752  0.00  0.00     0.119 A 
ATOM     25  C   UNL d   1      44.794 -12.285  43.105  0.00  0.00     0.304 A 
ATOM     26  O   UNL d   1      45.580 -12.361  43.326  0.00  0.00    -0.300 OA
ATOM     27  C   UNL d   1      46.318 -13.421  44.107  0.00  0.00     0.026 A 
ATOM     28  C   UNL d   1      46.232 -14.134  44.503  0.00  0.00     0.004 A 
ENDBRANCH  19  20
ENDBRANCH   2  19
TORSDOF 5
ENDMDL
