MODEL 1
REMARK VINA RESULT:      52.4      0.000      0.000
REMARK  6 active torsions:
REMARK  status: ('A' for Active; 'I' for Inactive)
REMARK    1  A    between atoms: C_10  and  C_3 
REMARK    2  A    between atoms: N_12  and  C_4 
REMARK    3  A    between atoms: N_11  and  C_14 
REMARK    4  A    between atoms: C_19  and  N_12 
REMARK    5  A    between atoms: C_14  and  C_15 
REMARK    6  A    between atoms: C_15  and  C_19 
ROOT
ATOM      1  C   UNL d   1      13.673  13.282  -3.049  0.00  0.00     0.167 A 
ATOM      2  N   UNL d   1      13.438  13.972  -3.437  0.00  0.00    -0.195 N 
ATOM      3  C   UNL d   1      14.010  13.499  -2.334  0.00  0.00     0.057 A 
ATOM      4  C   UNL d   1      13.078  13.927  -4.176  0.00  0.00     0.167 A 
ATOM      5  N   UNL d   1      13.633  14.608  -2.957  0.00  0.00    -0.161 NA
ATOM      6  N   UNL d   1      13.547  12.548  -3.401  0.00  0.00    -0.227 NA
ATOM      7  C   UNL d   1      12.952  13.187  -4.529  0.00  0.00     0.058 A 
ATOM      8  C   UNL d   1      13.983  14.322  -2.283  0.00  0.00     0.124 A 
ATOM      9  C   UNL d   1      13.184  12.505  -4.145  0.00  0.00     0.086 A 
ATOM     10  C   UNL d   1      13.049  11.779  -4.516  0.00  0.00     0.021 C 
ENDROOT
BRANCH   4  11
ATOM     11  N   UNL d   1      12.843  14.616  -4.563  0.00  0.00    -0.225 NA
BRANCH  11  12
ATOM     12  C   UNL d   1      13.363  15.000  -5.074  0.00  0.00     0.102 C 
BRANCH  12  13
ATOM     13  C   UNL d   1      13.258  15.809  -5.247  0.00  0.00     0.040 C 
BRANCH  13  14
ATOM     14  C   UNL d   1      13.685  16.155  -5.858  0.00  0.00     0.082 C 
BRANCH  14  15
ATOM     15  N   UNL d   1      13.779  16.978  -5.881  0.00  0.00    -0.299 N 
ATOM     16  C   UNL d   1      14.360  17.344  -5.416  0.00  0.00     0.107 A 
ATOM     17  C   UNL d   1      14.454  18.163  -5.438  0.00  0.00     0.142 A 
ATOM     18  O   UNL d   1      13.967  18.621  -5.926  0.00  0.00    -0.300 OA
ATOM     19  C   UNL d   1      13.390  18.259  -6.388  0.00  0.00     0.142 A 
ATOM     20  C   UNL d   1      13.296  17.440  -6.366  0.00  0.00     0.107 A 
ENDBRANCH  14  15
ENDBRANCH  13  14
ENDBRANCH  12  13
ENDBRANCH  11  12
ENDBRANCH   4  11
BRANCH   3  21
ATOM     21  C   UNL d   1      14.302  12.924  -1.815  0.00  0.00     0.004 A 
ATOM     22  C   UNL d   1      15.092  12.925  -1.606  0.00  0.00     0.000 A 
ATOM     23  C   UNL d   1      15.389  12.358  -1.092  0.00  0.00     0.000 A 
ATOM     24  C   UNL d   1      14.874  11.779  -0.783  0.00  0.00     0.000 A 
ATOM     25  C   UNL d   1      14.078  11.787  -1.000  0.00  0.00     0.000 A 
ATOM     26  C   UNL d   1      13.796  12.353  -1.510  0.00  0.00     0.000 A 
ENDBRANCH   3  21
TORSDOF 6
ENDMDL
MODEL 2
REMARK VINA RESULT:      54.7      3.033      4.177
REMARK  6 active torsions:
REMARK  status: ('A' for Active; 'I' for Inactive)
REMARK    1  A    between atoms: C_10  and  C_3 
REMARK    2  A    between atoms: N_12  and  C_4 
REMARK    3  A    between atoms: N_11  and  C_14 
REMARK    4  A    between atoms: C_19  and  N_12 
REMARK    5  A    between atoms: C_14  and  C_15 
REMARK    6  A    between atoms: C_15  and  C_19 
ROOT
ATOM      1  C   UNL d   1      14.183  12.543  -2.219  0.00  0.00     0.167 A 
ATOM      2  N   UNL d   1      14.047  12.836  -1.460  0.00  0.00    -0.195 N 
ATOM      3  C   UNL d   1      13.508  12.680  -2.665  0.00  0.00     0.057 A 
ATOM      4  C   UNL d   1      14.633  12.775  -0.884  0.00  0.00     0.167 A 
ATOM      5  N   UNL d   1      13.290  13.152  -1.444  0.00  0.00    -0.161 NA
ATOM      6  N   UNL d   1      14.904  12.190  -2.403  0.00  0.00    -0.227 NA
ATOM      7  C   UNL d   1      15.359  12.419  -1.070  0.00  0.00     0.058 A 
ATOM      8  C   UNL d   1      12.959  13.058  -2.178  0.00  0.00     0.124 A 
ATOM      9  C   UNL d   1      15.493  12.130  -1.821  0.00  0.00     0.086 A 
ATOM     10  C   UNL d   1      16.223  11.779  -1.984  0.00  0.00     0.021 C 
ENDROOT
BRANCH   4  11
ATOM     11  N   UNL d   1      14.498  13.068  -0.125  0.00  0.00    -0.225 NA
BRANCH  11  12
ATOM     12  C   UNL d   1      14.302  13.861  -0.017  0.00  0.00     0.102 C 
BRANCH  12  13
ATOM     13  C   UNL d   1      14.878  14.453  -0.136  0.00  0.00     0.040 C 
BRANCH  13  14
ATOM     14  C   UNL d   1      14.683  15.242  -0.014  0.00  0.00     0.082 C 
BRANCH  14  15
ATOM     15  N   UNL d   1      15.129  15.838  -0.380  0.00  0.00    -0.299 N 
ATOM     16  C   UNL d   1      15.942  15.733  -0.504  0.00  0.00     0.107 A 
ATOM     17  C   UNL d   1      16.386  16.326  -0.868  0.00  0.00     0.142 A 
ATOM     18  O   UNL d   1      16.018  17.026  -1.109  0.00  0.00    -0.300 OA
ATOM     19  C   UNL d   1      15.211  17.132  -0.987  0.00  0.00     0.142 A 
ATOM     20  C   UNL d   1      14.767  16.539  -0.623  0.00  0.00     0.107 A 
ENDBRANCH  14  15
ENDBRANCH  13  14
ENDBRANCH  12  13
ENDBRANCH  11  12
ENDBRANCH   4  11
BRANCH   3  21
ATOM     21  C   UNL d   1      13.473  12.447  -3.458  0.00  0.00     0.004 A 
ATOM     22  C   UNL d   1      14.076  12.649  -3.970  0.00  0.00     0.000 A 
ATOM     23  C   UNL d   1      14.048  12.420  -4.759  0.00  0.00     0.000 A 
ATOM     24  C   UNL d   1      13.395  11.979  -5.032  0.00  0.00     0.000 A 
ATOM     25  C   UNL d   1      12.791  11.781  -4.506  0.00  0.00     0.000 A 
ATOM     26  C   UNL d   1      12.830  12.012  -3.728  0.00  0.00     0.000 A 
ENDBRANCH   3  21
TORSDOF 6
ENDMDL
