MODEL 1
REMARK VINA RESULT:      16.8      0.000      0.000
REMARK  4 active torsions:
REMARK  status: ('A' for Active; 'I' for Inactive)
REMARK    1  A    between atoms: C_10  and  N_4 
REMARK    2  A    between atoms: C_11  and  C_10 
REMARK       I    between atoms: N_15  and  C_11 
REMARK    3  A    between atoms: C_12  and  C_20 
REMARK    4  A    between atoms: C_20  and  N_15 
ROOT
ATOM      1  C   UNL d   1      45.167 -14.780  43.956  0.00  0.00     0.174 A 
ATOM      2  C   UNL d   1      45.694 -14.298  44.359  0.00  0.00     0.112 A 
ATOM      3  C   UNL d   1      45.193 -15.598  44.046  0.00  0.00     0.290 A 
ATOM      4  N   UNL d   1      45.755 -15.934  44.546  0.00  0.00    -0.249 N 
ATOM      5  O   UNL d   1      44.676 -14.292  43.502  0.00  0.00    -0.301 OA
ATOM      6  N   UNL d   1      46.256 -14.635  44.859  0.00  0.00    -0.223 NA
ATOM      7  C   UNL d   1      45.534 -13.514  44.159  0.00  0.00     0.043 A 
ATOM      8  C   UNL d   1      46.289 -15.454  44.955  0.00  0.00     0.185 A 
ATOM      9  C   UNL d   1      44.901 -13.512  43.627  0.00  0.00     0.102 A 
ATOM     10  O   UNL d   1      44.664 -16.081  43.641  0.00  0.00    -0.264 OA
ATOM     11  C   UNL d   1      45.882 -12.806  44.393  0.00  0.00     0.004 A 
ATOM     12  C   UNL d   1      44.620 -12.795  43.332  0.00  0.00     0.025 A 
ATOM     13  C   UNL d   1      45.600 -12.084  44.096  0.00  0.00     0.000 A 
ATOM     14  C   UNL d   1      44.968 -12.086  43.565  0.00  0.00     0.002 A 
ENDROOT
BRANCH   4  15
ATOM     15  C   UNL d   1      45.792 -16.756  44.645  0.00  0.00     0.147 C 
BRANCH  15  16
ATOM     16  C   UNL d   1      46.209 -17.224  44.111  0.00  0.00     0.297 C 
ATOM     17  N   UNL d   1      46.232 -18.030  44.226  0.00  0.00    -0.203 NA
ATOM     18  O   UNL d   1      46.598 -16.881  43.470  0.00  0.00    -0.264 OA
BRANCH  17  19
ATOM     19  C   UNL d   1      46.647 -18.507  43.698  0.00  0.00     0.127 C 
BRANCH  19  20
ATOM     20  C   UNL d   1      46.300 -19.204  43.421  0.00  0.00     0.119 A 
ATOM     21  O   UNL d   1      45.696 -19.636  43.782  0.00  0.00    -0.304 OA
ATOM     22  C   UNL d   1      45.523 -20.298  43.306  0.00  0.00     0.123 A 
ATOM     23  C   UNL d   1      46.026 -20.273  42.645  0.00  0.00     0.029 A 
ATOM     24  C   UNL d   1      46.506 -19.603  42.711  0.00  0.00     0.028 A 
ENDBRANCH  19  20
ENDBRANCH  17  19
ENDBRANCH  15  16
ENDBRANCH   4  15
TORSDOF 4
ENDMDL
