MODEL 1
REMARK VINA RESULT:       2.3      0.000      0.000
REMARK  5 active torsions:
REMARK  status: ('A' for Active; 'I' for Inactive)
REMARK    1  A    between atoms: C_12  and  C_4 
REMARK    2  A    between atoms: N_10  and  C_5 
REMARK    3  A    between atoms: C_11  and  C_8 
REMARK    4  A    between atoms: C_14  and  N_10 
REMARK    5  A    between atoms: C_15  and  C_14 
ROOT
ATOM      1  C   UNL d   1     -41.536-122.202 -52.589  0.00  0.00     0.167 A 
ATOM      2  N   UNL d   1     -41.449-122.613 -51.864  0.00  0.00    -0.195 N 
ATOM      3  N   UNL d   1     -41.456-121.389 -52.608  0.00  0.00    -0.231 NA
ATOM      4  C   UNL d   1     -41.700-122.608 -53.269  0.00  0.00     0.057 A 
ATOM      5  C   UNL d   1     -41.286-122.188 -51.199  0.00  0.00     0.167 A 
ATOM      6  N   UNL d   1     -41.693-123.817 -52.533  0.00  0.00    -0.161 NA
ATOM      7  C   UNL d   1     -41.203-121.372 -51.206  0.00  0.00     0.054 A 
ATOM      8  C   UNL d   1     -41.289-120.968 -51.919  0.00  0.00     0.063 A 
ATOM      9  C   UNL d   1     -41.779-123.413 -53.247  0.00  0.00     0.124 A 
ENDROOT
BRANCH   5  10
ATOM     10  N   UNL d   1     -41.198-122.606 -50.462  0.00  0.00    -0.224 NA
BRANCH  10  11
ATOM     11  C   UNL d   1     -41.476-123.287 -50.046  0.00  0.00     0.120 C 
BRANCH  11  12
ATOM     12  C   UNL d   1     -41.727-123.233 -49.241  0.00  0.00     0.101 A 
ATOM     13  N   UNL d   1     -41.153-123.116 -48.623  0.00  0.00    -0.242 NA
ATOM     14  C   UNL d   1     -41.413-123.062 -47.815  0.00  0.00     0.099 A 
ATOM     15  C   UNL d   1     -42.242-123.126 -47.627  0.00  0.00     0.021 A 
ATOM     16  C   UNL d   1     -42.811-123.245 -48.258  0.00  0.00     0.003 A 
ATOM     17  C   UNL d   1     -42.551-123.297 -49.056  0.00  0.00     0.021 A 
ENDBRANCH  11  12
ENDBRANCH  10  11
ENDBRANCH   5  10
BRANCH   8  18
ATOM     18  C   UNL d   1     -41.205-120.119 -51.943  0.00  0.00     0.036 C 
ATOM     19  C   UNL d   1     -41.123-119.281 -51.961  0.00  0.00     0.006 C 
ATOM     20  C   UNL d   1     -41.194-119.718 -52.693  0.00  0.00     0.006 C 
ATOM     21  C   UNL d   1     -41.134-119.678 -51.214  0.00  0.00     0.006 C 
ENDBRANCH   8  18
BRANCH   4  22
ATOM     22  C   UNL d   1     -41.785-122.203 -53.983  0.00  0.00     0.004 A 
ATOM     23  C   UNL d   1     -41.134-122.039 -54.422  0.00  0.00     0.000 A 
ATOM     24  C   UNL d   1     -41.220-121.634 -55.136  0.00  0.00     0.000 A 
ATOM     25  C   UNL d   1     -41.954-121.406 -55.388  0.00  0.00     0.000 A 
ATOM     26  C   UNL d   1     -42.612-121.577 -54.936  0.00  0.00     0.000 A 
ATOM     27  C   UNL d   1     -42.527-121.981 -54.223  0.00  0.00     0.000 A 
ENDBRANCH   4  22
TORSDOF 5
ENDMDL
