MODEL 1
REMARK VINA RESULT:      57.8      0.000      0.000
REMARK  8 active torsions:
REMARK  status: ('A' for Active; 'I' for Inactive)
REMARK    1  A    between atoms: C_11  and  N_1 
REMARK    2  A    between atoms: S_7  and  C_2 
REMARK    3  A    between atoms: C_18  and  S_7 
REMARK    4  A    between atoms: C_8  and  C_10 
REMARK       I    between atoms: N_14  and  C_8 
REMARK    5  A    between atoms: C_13  and  C_11 
REMARK    6  A    between atoms: C_25  and  N_14 
REMARK    7  A    between atoms: C_19  and  C_18 
REMARK    8  A    between atoms: C_26  and  C_25 
ROOT
ATOM      1  N   UNL d   1     -50.876  26.337  33.798  0.00  0.00    -0.253 N 
ATOM      2  C   UNL d   1     -50.086  26.301  33.784  0.00  0.00     0.182 A 
ATOM      3  C   UNL d   1     -51.337  25.658  33.686  0.00  0.00     0.268 A 
ATOM      4  N   UNL d   1     -49.692  25.583  33.656  0.00  0.00    -0.222 NA
ATOM      5  C   UNL d   1     -50.970  24.948  33.560  0.00  0.00     0.074 A 
ATOM      6  C   UNL d   1     -50.131  24.910  33.545  0.00  0.00     0.088 A 
ATOM      7  O   UNL d   1     -52.154  25.694  33.701  0.00  0.00    -0.267 OA
ATOM      8  C   UNL d   1     -51.404  24.267  33.448  0.00  0.00     0.006 A 
ATOM      9  C   UNL d   1     -49.759  24.193  33.417  0.00  0.00     0.019 A 
ATOM     10  C   UNL d   1     -51.011  23.554  33.321  0.00  0.00     0.000 A 
ATOM     11  C   UNL d   1     -50.220  23.518  33.306  0.00  0.00     0.002 A 
ENDROOT
BRANCH   2  12
ATOM     12  S   UNL d   1     -49.641  26.995  33.898  0.00  0.00    -0.049 SA
BRANCH  12  13
ATOM     13  C   UNL d   1     -49.003  26.985  34.430  0.00  0.00     0.038 C 
BRANCH  13  14
ATOM     14  C   UNL d   1     -48.667  27.683  34.712  0.00  0.00     0.007 A 
ATOM     15  C   UNL d   1     -47.979  27.980  34.334  0.00  0.00     0.001 A 
ATOM     16  C   UNL d   1     -47.637  28.664  34.599  0.00  0.00     0.005 A 
ATOM     17  C   UNL d   1     -47.964  29.073  35.242  0.00  0.00     0.058 A 
ATOM     18  C   UNL d   1     -48.634  28.776  35.604  0.00  0.00     0.005 A 
ATOM     19  C   UNL d   1     -48.973  28.083  35.330  0.00  0.00     0.001 A 
BRANCH  17  20
ATOM     20  C   UNL d   1     -47.627  29.786  35.536  0.00  0.00     0.279 C 
ATOM     21  O   UNL d   1     -47.369  29.824  36.335  0.00  0.00    -0.265 OA
ATOM     22  N   UNL d   1     -47.550  30.447  35.045  0.00  0.00    -0.203 NA
BRANCH  22  23
ATOM     23  C   UNL d   1     -47.208  31.168  35.347  0.00  0.00     0.148 C 
BRANCH  23  24
ATOM     24  C   UNL d   1     -47.309  31.871  34.957  0.00  0.00     0.255 C 
ATOM     25  O   UNL d   1     -47.492  32.551  35.372  0.00  0.00    -0.281 OA
ENDBRANCH  23  24
ENDBRANCH  22  23
ENDBRANCH  17  20
ENDBRANCH  13  14
ENDBRANCH  12  13
ENDBRANCH   2  12
BRANCH   1  26
ATOM     26  C   UNL d   1     -51.256  27.068  33.928  0.00  0.00     0.085 C 
BRANCH  26  27
ATOM     27  C   UNL d   1     -51.702  27.401  33.306  0.00  0.00     0.019 C 
ATOM     28  C   UNL d   1     -52.529  27.344  33.306  0.00  0.00     0.002 C 
ENDBRANCH  26  27
ENDBRANCH   1  26
TORSDOF 8
ENDMDL
