MODEL 1
REMARK VINA RESULT:       1.1      0.000      0.000
REMARK  4 active torsions:
REMARK  status: ('A' for Active; 'I' for Inactive)
REMARK    1  A    between atoms: N_6  and  C_1 
REMARK       I    between atoms: C_7  and  N_8 
REMARK    2  A    between atoms: C_9  and  C_7 
REMARK    3  A    between atoms: O_20  and  C_10 
REMARK    4  A    between atoms: O_19  and  C_11 
ROOT
ATOM      1  C   UNL d   1     -41.780-122.581 -52.081  0.00  0.00     0.180 A 
ATOM      2  N   UNL d   1     -41.569-123.077 -52.707  0.00  0.00    -0.220 NA
ATOM      3  S   UNL d   1     -41.981-121.842 -52.407  0.00  0.00    -0.046 SA
ATOM      4  C   UNL d   1     -41.637-122.653 -53.408  0.00  0.00     0.114 A 
ATOM      5  C   UNL d   1     -41.892-121.892 -53.217  0.00  0.00     0.074 A 
ATOM      6  C   UNL d   1     -41.503-122.855 -54.184  0.00  0.00     0.112 A 
ATOM      7  C   UNL d   1     -42.009-121.344 -53.803  0.00  0.00     0.102 A 
ATOM      8  C   UNL d   1     -41.874-121.547 -54.591  0.00  0.00     0.027 A 
ATOM      9  C   UNL d   1     -41.620-122.308 -54.782  0.00  0.00     0.028 A 
ENDROOT
BRANCH   1  10
ATOM     10  N   UNL d   1     -41.787-122.790 -51.287  0.00  0.00    -0.281 N 
ATOM     11  C   UNL d   1     -41.133-123.176 -50.961  0.00  0.00     0.101 A 
ATOM     12  C   UNL d   1     -41.125-123.393 -50.164  0.00  0.00     0.102 A 
ATOM     13  N   UNL d   1     -41.786-123.216 -49.697  0.00  0.00    -0.272 N 
ATOM     14  C   UNL d   1     -41.781-123.433 -48.893  0.00  0.00     0.240 C 
ATOM     15  C   UNL d   1     -42.440-122.829 -50.022  0.00  0.00     0.102 A 
ATOM     16  O   UNL d   1     -41.134-123.816 -48.570  0.00  0.00    -0.272 OA
ATOM     17  C   UNL d   1     -42.433-122.620 -50.816  0.00  0.00     0.101 A 
BRANCH  14  18
ATOM     18  C   UNL d   1     -42.441-123.256 -48.428  0.00  0.00     0.072 C 
ATOM     19  C   UNL d   1     -43.149-123.634 -48.596  0.00  0.00     0.009 C 
ATOM     20  C   UNL d   1     -42.411-122.710 -47.800  0.00  0.00     0.009 C 
ATOM     21  C   UNL d   1     -43.080-123.053 -47.942  0.00  0.00     0.009 C 
ENDBRANCH  14  18
ENDBRANCH   1  10
BRANCH   6  22
ATOM     22  O   UNL d   1     -41.250-123.614 -54.372  0.00  0.00    -0.327 OA
ATOM     23  C   UNL d   1     -41.130-123.817 -55.156  0.00  0.00     0.181 C 
ENDBRANCH   6  22
BRANCH   7  24
ATOM     24  O   UNL d   1     -42.263-120.586 -53.614  0.00  0.00    -0.328 OA
ATOM     25  C   UNL d   1     -42.162-119.968 -54.154  0.00  0.00     0.181 C 
ENDBRANCH   7  24
TORSDOF 4
ENDMDL
MODEL 2
REMARK VINA RESULT:       1.2      1.261      5.100
REMARK  4 active torsions:
REMARK  status: ('A' for Active; 'I' for Inactive)
REMARK    1  A    between atoms: N_6  and  C_1 
REMARK       I    between atoms: C_7  and  N_8 
REMARK    2  A    between atoms: C_9  and  C_7 
REMARK    3  A    between atoms: O_20  and  C_10 
REMARK    4  A    between atoms: O_19  and  C_11 
ROOT
ATOM      1  C   UNL d   1     -42.200-122.775 -51.519  0.00  0.00     0.180 A 
ATOM      2  N   UNL d   1     -42.861-122.412 -51.180  0.00  0.00    -0.220 NA
ATOM      3  S   UNL d   1     -41.754-123.105 -50.899  0.00  0.00    -0.046 SA
ATOM      4  C   UNL d   1     -42.826-122.515 -50.367  0.00  0.00     0.114 A 
ATOM      5  C   UNL d   1     -42.141-122.943 -50.198  0.00  0.00     0.074 A 
ATOM      6  C   UNL d   1     -43.318-122.280 -49.764  0.00  0.00     0.112 A 
ATOM      7  C   UNL d   1     -41.958-123.131 -49.431  0.00  0.00     0.102 A 
ATOM      8  C   UNL d   1     -42.456-122.894 -48.818  0.00  0.00     0.027 A 
ATOM      9  C   UNL d   1     -43.140-122.466 -48.986  0.00  0.00     0.028 A 
ENDROOT
BRANCH   1  10
ATOM     10  N   UNL d   1     -42.026-122.798 -52.321  0.00  0.00    -0.281 N 
ATOM     11  C   UNL d   1     -41.659-123.468 -52.639  0.00  0.00     0.101 A 
ATOM     12  C   UNL d   1     -41.478-123.507 -53.444  0.00  0.00     0.102 A 
ATOM     13  N   UNL d   1     -41.670-122.861 -53.927  0.00  0.00    -0.272 N 
ATOM     14  C   UNL d   1     -41.489-122.896 -54.739  0.00  0.00     0.240 C 
ATOM     15  C   UNL d   1     -42.037-122.191 -53.609  0.00  0.00     0.102 A 
ATOM     16  O   UNL d   1     -41.126-123.559 -55.054  0.00  0.00    -0.272 OA
ATOM     17  C   UNL d   1     -42.211-122.168 -52.807  0.00  0.00     0.101 A 
BRANCH  14  18
ATOM     18  C   UNL d   1     -41.681-122.252 -55.219  0.00  0.00     0.072 C 
ATOM     19  C   UNL d   1     -41.146-121.634 -55.275  0.00  0.00     0.009 C 
ATOM     20  C   UNL d   1     -42.396-122.210 -55.645  0.00  0.00     0.009 C 
ATOM     21  C   UNL d   1     -41.908-121.624 -55.709  0.00  0.00     0.009 C 
ENDBRANCH  14  18
ENDBRANCH   1  10
BRANCH   6  22
ATOM     22  O   UNL d   1     -43.999-121.854 -49.933  0.00  0.00    -0.327 OA
ATOM     23  C   UNL d   1     -44.727-122.228 -49.910  0.00  0.00     0.181 C 
ENDBRANCH   6  22
BRANCH   7  24
ATOM     24  O   UNL d   1     -41.277-123.557 -49.261  0.00  0.00    -0.328 OA
ATOM     25  C   UNL d   1     -41.129-123.817 -48.490  0.00  0.00     0.181 C 
ENDBRANCH   7  24
TORSDOF 4
ENDMDL
MODEL 3
REMARK VINA RESULT:       1.5      1.071      2.112
REMARK  4 active torsions:
REMARK  status: ('A' for Active; 'I' for Inactive)
REMARK    1  A    between atoms: N_6  and  C_1 
REMARK       I    between atoms: C_7  and  N_8 
REMARK    2  A    between atoms: C_9  and  C_7 
REMARK    3  A    between atoms: O_20  and  C_10 
REMARK    4  A    between atoms: O_19  and  C_11 
ROOT
ATOM      1  C   UNL d   1     -41.822-122.575 -50.802  0.00  0.00     0.180 A 
ATOM      2  N   UNL d   1     -41.815-121.799 -51.089  0.00  0.00    -0.220 NA
ATOM      3  S   UNL d   1     -41.803-123.083 -51.461  0.00  0.00    -0.046 SA
ATOM      4  C   UNL d   1     -41.792-121.827 -51.909  0.00  0.00     0.114 A 
ATOM      5  C   UNL d   1     -41.785-122.621 -52.133  0.00  0.00     0.074 A 
ATOM      6  C   UNL d   1     -41.777-121.243 -52.475  0.00  0.00     0.112 A 
ATOM      7  C   UNL d   1     -41.762-122.821 -52.919  0.00  0.00     0.102 A 
ATOM      8  C   UNL d   1     -41.747-122.231 -53.495  0.00  0.00     0.027 A 
ATOM      9  C   UNL d   1     -41.755-121.437 -53.271  0.00  0.00     0.028 A 
ENDROOT
BRANCH   1  10
ATOM     10  N   UNL d   1     -41.843-122.791 -50.010  0.00  0.00    -0.281 N 
ATOM     11  C   UNL d   1     -41.184-123.155 -49.669  0.00  0.00     0.101 A 
ATOM     12  C   UNL d   1     -41.190-123.379 -48.874  0.00  0.00     0.102 A 
ATOM     13  N   UNL d   1     -41.871-123.231 -48.424  0.00  0.00    -0.272 N 
ATOM     14  C   UNL d   1     -41.881-123.455 -47.622  0.00  0.00     0.240 C 
ATOM     15  C   UNL d   1     -42.531-122.867 -48.765  0.00  0.00     0.102 A 
ATOM     16  O   UNL d   1     -41.229-123.815 -47.284  0.00  0.00    -0.272 OA
ATOM     17  C   UNL d   1     -42.509-122.651 -49.557  0.00  0.00     0.101 A 
BRANCH  14  18
ATOM     18  C   UNL d   1     -42.561-123.307 -47.175  0.00  0.00     0.072 C 
ATOM     19  C   UNL d   1     -42.582-122.633 -46.709  0.00  0.00     0.009 C 
ATOM     20  C   UNL d   1     -43.220-123.816 -47.183  0.00  0.00     0.009 C 
ATOM     21  C   UNL d   1     -43.257-123.192 -46.742  0.00  0.00     0.009 C 
ENDBRANCH  14  18
ENDBRANCH   1  10
BRANCH   6  22
ATOM     22  O   UNL d   1     -41.785-120.454 -52.250  0.00  0.00    -0.327 OA
ATOM     23  C   UNL d   1     -41.128-119.986 -52.393  0.00  0.00     0.181 C 
ENDBRANCH   6  22
BRANCH   7  24
ATOM     24  O   UNL d   1     -41.755-123.611 -53.144  0.00  0.00    -0.328 OA
ATOM     25  C   UNL d   1     -41.663-123.815 -53.940  0.00  0.00     0.181 C 
ENDBRANCH   7  24
TORSDOF 4
ENDMDL
MODEL 4
REMARK VINA RESULT:       1.9      1.224      4.936
REMARK  4 active torsions:
REMARK  status: ('A' for Active; 'I' for Inactive)
REMARK    1  A    between atoms: N_6  and  C_1 
REMARK       I    between atoms: C_7  and  N_8 
REMARK    2  A    between atoms: C_9  and  C_7 
REMARK    3  A    between atoms: O_20  and  C_10 
REMARK    4  A    between atoms: O_19  and  C_11 
ROOT
ATOM      1  C   UNL d   1     -42.195-122.770 -51.524  0.00  0.00     0.180 A 
ATOM      2  N   UNL d   1     -41.738-123.082 -50.910  0.00  0.00    -0.220 NA
ATOM      3  S   UNL d   1     -42.847-122.386 -51.178  0.00  0.00    -0.046 SA
ATOM      4  C   UNL d   1     -42.099-122.894 -50.197  0.00  0.00     0.114 A 
ATOM      5  C   UNL d   1     -42.782-122.465 -50.368  0.00  0.00     0.074 A 
ATOM      6  C   UNL d   1     -41.900-123.054 -49.425  0.00  0.00     0.112 A 
ATOM      7  C   UNL d   1     -43.257-122.201 -49.765  0.00  0.00     0.102 A 
ATOM      8  C   UNL d   1     -43.057-122.362 -48.981  0.00  0.00     0.027 A 
ATOM      9  C   UNL d   1     -42.374-122.791 -48.811  0.00  0.00     0.028 A 
ENDROOT
BRANCH   1  10
ATOM     10  N   UNL d   1     -42.027-122.835 -52.325  0.00  0.00    -0.281 N 
ATOM     11  C   UNL d   1     -41.638-123.508 -52.608  0.00  0.00     0.101 A 
ATOM     12  C   UNL d   1     -41.462-123.588 -53.411  0.00  0.00     0.102 A 
ATOM     13  N   UNL d   1     -41.684-122.979 -53.929  0.00  0.00    -0.272 N 
ATOM     14  C   UNL d   1     -41.508-123.056 -54.740  0.00  0.00     0.240 C 
ATOM     15  C   UNL d   1     -42.072-122.306 -53.647  0.00  0.00     0.102 A 
ATOM     16  O   UNL d   1     -41.123-123.722 -55.019  0.00  0.00    -0.272 OA
ATOM     17  C   UNL d   1     -42.240-122.242 -52.846  0.00  0.00     0.101 A 
BRANCH  14  18
ATOM     18  C   UNL d   1     -41.729-122.449 -55.255  0.00  0.00     0.072 C 
ATOM     19  C   UNL d   1     -41.158-121.911 -55.491  0.00  0.00     0.009 C 
ATOM     20  C   UNL d   1     -42.507-122.366 -55.539  0.00  0.00     0.009 C 
ATOM     21  C   UNL d   1     -41.987-121.855 -55.770  0.00  0.00     0.009 C 
ENDBRANCH  14  18
ENDBRANCH   1  10
BRANCH   6  22
ATOM     22  O   UNL d   1     -41.219-123.481 -49.257  0.00  0.00    -0.327 OA
ATOM     23  C   UNL d   1     -41.124-123.816 -48.516  0.00  0.00     0.181 C 
ENDBRANCH   6  22
BRANCH   7  24
ATOM     24  O   UNL d   1     -43.938-121.774 -49.933  0.00  0.00    -0.328 OA
ATOM     25  C   UNL d   1     -44.678-122.063 -49.704  0.00  0.00     0.181 C 
ENDBRANCH   7  24
TORSDOF 4
ENDMDL
