MODEL 1
REMARK VINA RESULT:      24.5      0.000      0.000
REMARK  5 active torsions:
REMARK  status: ('A' for Active; 'I' for Inactive)
REMARK    1  A    between atoms: N_2  and  S_1 
REMARK    2  A    between atoms: C_6  and  S_1 
REMARK    3  A    between atoms: C_3  and  N_2 
REMARK    4  A    between atoms: N_7  and  C_3 
REMARK    5  A    between atoms: C_9  and  N_7 
ROOT
ATOM      1  N   UNL d   1     -51.605  24.515  33.467  0.00  0.00    -0.128 NA
ENDROOT
BRANCH   1   2
ATOM      2  S   UNL d   1     -51.410  25.322  33.462  0.00  0.00     0.287 S 
ATOM      3  O   UNL d   1     -50.609  25.137  33.315  0.00  0.00    -0.198 OA
ATOM      4  O   UNL d   1     -52.201  25.524  33.609  0.00  0.00    -0.198 OA
BRANCH   2   5
ATOM      5  C   UNL d   1     -51.213  26.133  33.458  0.00  0.00     0.105 A 
ATOM      6  C   UNL d   1     -50.420  26.371  33.555  0.00  0.00     0.013 A 
ATOM      7  C   UNL d   1     -50.226  27.170  33.550  0.00  0.00     0.001 A 
ATOM      8  C   UNL d   1     -50.815  27.736  33.451  0.00  0.00     0.000 A 
ATOM      9  C   UNL d   1     -51.606  27.506  33.355  0.00  0.00     0.001 A 
ATOM     10  C   UNL d   1     -51.800  26.704  33.359  0.00  0.00     0.013 A 
ENDBRANCH   2   5
ENDBRANCH   1   2
BRANCH   1  11
ATOM     11  C   UNL d   1     -51.415  23.727  33.673  0.00  0.00     0.232 C 
ATOM     12  S   UNL d   1     -50.656  23.439  33.528  0.00  0.00    -0.036 SA
BRANCH  11  13
ATOM     13  N   UNL d   1     -51.989  23.245  34.021  0.00  0.00    -0.217 NA
BRANCH  13  14
ATOM     14  C   UNL d   1     -52.787  23.454  33.975  0.00  0.00     0.084 A 
ATOM     15  C   UNL d   1     -53.313  23.196  34.552  0.00  0.00     0.019 A 
ATOM     16  C   UNL d   1     -54.106  23.403  34.508  0.00  0.00     0.002 A 
ATOM     17  C   UNL d   1     -54.380  23.868  33.889  0.00  0.00     0.000 A 
ATOM     18  C   UNL d   1     -53.853  24.128  33.307  0.00  0.00     0.002 A 
ATOM     19  C   UNL d   1     -53.056  23.922  33.348  0.00  0.00     0.019 A 
ENDBRANCH  13  14
ENDBRANCH  11  13
ENDBRANCH   1  11
TORSDOF 5
ENDMDL
