MODEL 1
REMARK VINA RESULT:      -2.6      0.000      0.000
REMARK  7 active torsions:
REMARK  status: ('A' for Active; 'I' for Inactive)
REMARK    1  A    between atoms: C_4  and  C_1 
REMARK    2  A    between atoms: C_6  and  C_3 
REMARK       I    between atoms: N_13  and  C_6 
REMARK    3  A    between atoms: O_18  and  C_8 
REMARK    4  A    between atoms: O_19  and  C_10 
REMARK    5  A    between atoms: C_20  and  N_13 
REMARK    6  A    between atoms: C_15  and  C_22 
REMARK    7  A    between atoms: C_22  and  C_20 
ROOT
ATOM      1  C   UNL d   1     -41.880-122.640 -50.989  0.00  0.00     0.302 C 
ATOM      2  O   UNL d   1     -42.446-122.048 -51.061  0.00  0.00    -0.263 OA
ATOM      3  N   UNL d   1     -41.448-122.871 -51.647  0.00  0.00    -0.205 NA
ENDROOT
BRANCH   1   4
ATOM      4  C   UNL d   1     -41.748-122.999 -50.258  0.00  0.00     0.158 A 
ATOM      5  O   UNL d   1     -42.208-122.910 -49.582  0.00  0.00    -0.302 OA
ATOM      6  C   UNL d   1     -41.872-123.368 -48.985  0.00  0.00     0.101 A 
ATOM      7  C   UNL d   1     -41.200-123.746 -49.291  0.00  0.00     0.027 A 
ATOM      8  C   UNL d   1     -41.124-123.514 -50.085  0.00  0.00     0.032 A 
BRANCH   6   9
ATOM      9  C   UNL d   1     -42.154-123.440 -48.219  0.00  0.00     0.033 A 
ATOM     10  C   UNL d   1     -42.964-123.556 -48.088  0.00  0.00     0.060 A 
ATOM     11 CL   UNL d   1     -43.487-123.601 -48.726  0.00  0.00    -0.082 Cl
ATOM     12  C   UNL d   1     -43.245-123.627 -47.317  0.00  0.00     0.011 A 
ATOM     13  C   UNL d   1     -42.727-123.584 -46.676  0.00  0.00     0.001 A 
ATOM     14  C   UNL d   1     -41.925-123.468 -46.804  0.00  0.00     0.000 A 
ATOM     15  C   UNL d   1     -41.632-123.395 -47.574  0.00  0.00     0.003 A 
ENDBRANCH   6   9
ENDBRANCH   1   4
BRANCH   3  16
ATOM     16  C   UNL d   1     -41.578-122.512 -52.380  0.00  0.00     0.102 C 
BRANCH  16  17
ATOM     17  C   UNL d   1     -41.193-122.782 -53.044  0.00  0.00     0.021 C 
BRANCH  17  18
ATOM     18  C   UNL d   1     -41.494-122.606 -53.792  0.00  0.00     0.004 A 
ATOM     19  C   UNL d   1     -41.853-121.873 -53.934  0.00  0.00     0.026 A 
ATOM     20  C   UNL d   1     -42.151-121.698 -54.673  0.00  0.00     0.116 A 
ATOM     21  C   UNL d   1     -42.094-122.258 -55.283  0.00  0.00     0.116 A 
ATOM     22  C   UNL d   1     -41.737-122.988 -55.142  0.00  0.00     0.026 A 
ATOM     23  C   UNL d   1     -41.437-123.161 -54.396  0.00  0.00     0.002 A 
BRANCH  20  24
ATOM     24  O   UNL d   1     -42.507-120.966 -54.808  0.00  0.00    -0.326 OA
ATOM     25  C   UNL d   1     -42.204-120.287 -54.433  0.00  0.00     0.181 C 
ENDBRANCH  20  24
BRANCH  21  26
ATOM     26  O   UNL d   1     -42.400-122.074 -56.037  0.00  0.00    -0.326 OA
ATOM     27  C   UNL d   1     -43.177-122.285 -56.209  0.00  0.00     0.181 C 
ENDBRANCH  21  26
ENDBRANCH  17  18
ENDBRANCH  16  17
ENDBRANCH   3  16
TORSDOF 7
ENDMDL
