MODEL 1
REMARK VINA RESULT:      -3.0      0.000      0.000
REMARK  5 active torsions:
REMARK  status: ('A' for Active; 'I' for Inactive)
REMARK    1  A    between atoms: C_6  and  C_1 
REMARK    2  A    between atoms: C_8  and  N_3 
REMARK    3  A    between atoms: C_7  and  C_6 
REMARK    4  A    between atoms: C_9  and  C_7 
REMARK    5  A    between atoms: C_14  and  C_8 
ROOT
ATOM      1  C   UNL d   1      32.934  20.675 -21.739  0.00  0.00     0.148 A 
ATOM      2  N   UNL d   1      32.717  20.799 -20.860  0.00  0.00    -0.227 NA
ATOM      3  N   UNL d   1      33.020  21.508 -22.102  0.00  0.00    -0.289 N 
ATOM      4  C   UNL d   1      32.860  22.145 -21.458  0.00  0.00     0.083 A 
ATOM      5  C   UNL d   1      32.669  21.698 -20.675  0.00  0.00     0.099 A 
ATOM      6  C   UNL d   1      32.862  23.063 -21.477  0.00  0.00     0.019 A 
ATOM      7  C   UNL d   1      32.484  22.180 -19.929  0.00  0.00     0.021 A 
ATOM      8  C   UNL d   1      32.674  23.522 -20.717  0.00  0.00     0.002 A 
ATOM      9  C   UNL d   1      32.482  23.076 -19.935  0.00  0.00     0.002 A 
ENDROOT
BRANCH   1  10
ATOM     10  C   UNL d   1      33.092  20.256 -22.379  0.00  0.00     0.037 C 
BRANCH  10  11
ATOM     11  C   UNL d   1      33.240  19.457 -22.375  0.00  0.00     0.003 C 
BRANCH  11  12
ATOM     12  C   UNL d   1      33.056  18.964 -22.996  0.00  0.00     0.000 A 
ATOM     13  C   UNL d   1      33.238  19.162 -23.763  0.00  0.00     0.000 A 
ATOM     14  C   UNL d   1      33.054  18.669 -24.383  0.00  0.00     0.000 A 
ATOM     15  C   UNL d   1      32.673  17.953 -24.231  0.00  0.00     0.000 A 
ATOM     16  C   UNL d   1      32.485  17.746 -23.462  0.00  0.00     0.000 A 
ATOM     17  C   UNL d   1      32.675  18.248 -22.844  0.00  0.00     0.000 A 
ENDBRANCH  11  12
ENDBRANCH  10  11
ENDBRANCH   1  10
BRANCH   3  18
ATOM     18  C   UNL d   1      33.113  22.203 -22.488  0.00  0.00     0.082 C 
BRANCH  18  19
ATOM     19  C   UNL d   1      33.237  22.189 -23.307  0.00  0.00     0.019 C 
ATOM     20  C   UNL d   1      33.236  22.894 -23.729  0.00  0.00     0.002 C 
ENDBRANCH  18  19
ENDBRANCH   3  18
TORSDOF 5
ENDMDL
MODEL 2
REMARK VINA RESULT:      -2.6      1.008      1.551
REMARK  5 active torsions:
REMARK  status: ('A' for Active; 'I' for Inactive)
REMARK    1  A    between atoms: C_6  and  C_1 
REMARK    2  A    between atoms: C_8  and  N_3 
REMARK    3  A    between atoms: C_7  and  C_6 
REMARK    4  A    between atoms: C_9  and  C_7 
REMARK    5  A    between atoms: C_14  and  C_8 
ROOT
ATOM      1  C   UNL d   1      32.885  19.559 -22.660  0.00  0.00     0.148 A 
ATOM      2  N   UNL d   1      32.805  19.764 -21.773  0.00  0.00    -0.227 NA
ATOM      3  N   UNL d   1      33.060  20.345 -23.090  0.00  0.00    -0.289 N 
ATOM      4  C   UNL d   1      33.089  21.033 -22.479  0.00  0.00     0.083 A 
ATOM      5  C   UNL d   1      32.929  20.667 -21.650  0.00  0.00     0.099 A 
ATOM      6  C   UNL d   1      33.238  21.935 -22.565  0.00  0.00     0.019 A 
ATOM      7  C   UNL d   1      32.921  21.211 -20.924  0.00  0.00     0.021 A 
ATOM      8  C   UNL d   1      33.226  22.458 -21.824  0.00  0.00     0.002 A 
ATOM      9  C   UNL d   1      33.066  22.092 -20.994  0.00  0.00     0.002 A 
ENDROOT
BRANCH   1  10
ATOM     10  C   UNL d   1      32.890  19.086 -23.282  0.00  0.00     0.037 C 
BRANCH  10  11
ATOM     11  C   UNL d   1      32.890  18.275 -23.238  0.00  0.00     0.003 C 
BRANCH  11  12
ATOM     12  C   UNL d   1      32.645  17.793 -23.846  0.00  0.00     0.000 A 
ATOM     13  C   UNL d   1      33.144  17.595 -24.457  0.00  0.00     0.000 A 
ATOM     14  C   UNL d   1      32.899  17.114 -25.065  0.00  0.00     0.000 A 
ATOM     15  C   UNL d   1      32.128  16.820 -25.062  0.00  0.00     0.000 A 
ATOM     16  C   UNL d   1      31.619  17.014 -24.451  0.00  0.00     0.000 A 
ATOM     17  C   UNL d   1      31.874  17.499 -23.844  0.00  0.00     0.000 A 
ENDBRANCH  11  12
ENDBRANCH  10  11
ENDBRANCH   1  10
BRANCH   3  18
ATOM     18  C   UNL d   1      33.215  20.994 -23.533  0.00  0.00     0.082 C 
BRANCH  18  19
ATOM     19  C   UNL d   1      33.241  20.913 -24.358  0.00  0.00     0.019 C 
ATOM     20  C   UNL d   1      33.180  21.582 -24.832  0.00  0.00     0.002 C 
ENDBRANCH  18  19
ENDBRANCH   3  18
TORSDOF 5
ENDMDL
MODEL 3
REMARK VINA RESULT:      -2.5      0.861      4.189
REMARK  5 active torsions:
REMARK  status: ('A' for Active; 'I' for Inactive)
REMARK    1  A    between atoms: C_6  and  C_1 
REMARK    2  A    between atoms: C_8  and  N_3 
REMARK    3  A    between atoms: C_7  and  C_6 
REMARK    4  A    between atoms: C_9  and  C_7 
REMARK    5  A    between atoms: C_14  and  C_8 
ROOT
ATOM      1  C   UNL d   1      33.080  20.316 -21.937  0.00  0.00     0.148 A 
ATOM      2  N   UNL d   1      33.088  19.412 -21.794  0.00  0.00    -0.227 NA
ATOM      3  N   UNL d   1      33.126  20.433 -22.841  0.00  0.00    -0.289 N 
ATOM      4  C   UNL d   1      33.162  19.613 -23.258  0.00  0.00     0.083 A 
ATOM      5  C   UNL d   1      33.138  18.971 -22.599  0.00  0.00     0.099 A 
ATOM      6  C   UNL d   1      33.213  19.367 -24.142  0.00  0.00     0.019 A 
ATOM      7  C   UNL d   1      33.166  18.096 -22.837  0.00  0.00     0.021 A 
ATOM      8  C   UNL d   1      33.240  18.486 -24.355  0.00  0.00     0.002 A 
ATOM      9  C   UNL d   1      33.216  17.843 -23.695  0.00  0.00     0.002 A 
ENDROOT
BRANCH   1  10
ATOM     10  C   UNL d   1      33.055  21.067 -21.726  0.00  0.00     0.037 C 
BRANCH  10  11
ATOM     11  C   UNL d   1      33.174  21.332 -20.967  0.00  0.00     0.003 C 
BRANCH  11  12
ATOM     12  C   UNL d   1      32.920  22.059 -20.701  0.00  0.00     0.000 A 
ATOM     13  C   UNL d   1      32.362  22.488 -21.108  0.00  0.00     0.000 A 
ATOM     14  C   UNL d   1      32.109  23.213 -20.842  0.00  0.00     0.000 A 
ATOM     15  C   UNL d   1      32.426  23.521 -20.145  0.00  0.00     0.000 A 
ATOM     16  C   UNL d   1      32.989  23.096 -19.729  0.00  0.00     0.000 A 
ATOM     17  C   UNL d   1      33.237  22.366 -20.004  0.00  0.00     0.000 A 
ENDBRANCH  11  12
ENDBRANCH  10  11
ENDBRANCH   1  10
BRANCH   3  18
ATOM     18  C   UNL d   1      33.164  20.612 -23.620  0.00  0.00     0.082 C 
BRANCH  18  19
ATOM     19  C   UNL d   1      33.241  21.407 -23.840  0.00  0.00     0.019 C 
ATOM     20  C   UNL d   1      33.166  21.617 -24.632  0.00  0.00     0.002 C 
ENDBRANCH  18  19
ENDBRANCH   3  18
TORSDOF 5
ENDMDL
MODEL 4
REMARK VINA RESULT:      -2.2      1.324      2.426
REMARK  5 active torsions:
REMARK  status: ('A' for Active; 'I' for Inactive)
REMARK    1  A    between atoms: C_6  and  C_1 
REMARK    2  A    between atoms: C_8  and  N_3 
REMARK    3  A    between atoms: C_7  and  C_6 
REMARK    4  A    between atoms: C_9  and  C_7 
REMARK    5  A    between atoms: C_14  and  C_8 
ROOT
ATOM      1  C   UNL d   1      33.236  20.315 -23.970  0.00  0.00     0.148 A 
ATOM      2  N   UNL d   1      33.235  21.052 -24.511  0.00  0.00    -0.227 NA
ATOM      3  N   UNL d   1      33.237  20.627 -23.112  0.00  0.00    -0.289 N 
ATOM      4  C   UNL d   1      33.237  21.547 -23.117  0.00  0.00     0.083 A 
ATOM      5  C   UNL d   1      33.236  21.815 -23.998  0.00  0.00     0.099 A 
ATOM      6  C   UNL d   1      33.238  22.173 -22.444  0.00  0.00     0.019 A 
ATOM      7  C   UNL d   1      33.236  22.702 -24.188  0.00  0.00     0.021 A 
ATOM      8  C   UNL d   1      33.238  23.054 -22.660  0.00  0.00     0.002 A 
ATOM      9  C   UNL d   1      33.237  23.322 -23.541  0.00  0.00     0.002 A 
ENDROOT
BRANCH   1  10
ATOM     10  C   UNL d   1      33.236  19.550 -23.812  0.00  0.00     0.037 C 
BRANCH  10  11
ATOM     11  C   UNL d   1      33.228  18.967 -24.379  0.00  0.00     0.003 C 
BRANCH  11  12
ATOM     12  C   UNL d   1      32.809  18.274 -24.303  0.00  0.00     0.000 A 
ATOM     13  C   UNL d   1      33.162  17.591 -24.038  0.00  0.00     0.000 A 
ATOM     14  C   UNL d   1      32.743  16.899 -23.962  0.00  0.00     0.000 A 
ATOM     15  C   UNL d   1      31.942  16.888 -24.158  0.00  0.00     0.000 A 
ATOM     16  C   UNL d   1      31.577  17.571 -24.426  0.00  0.00     0.000 A 
ATOM     17  C   UNL d   1      32.007  18.263 -24.499  0.00  0.00     0.000 A 
ENDBRANCH  11  12
ENDBRANCH  10  11
ENDBRANCH   1  10
BRANCH   3  18
ATOM     18  C   UNL d   1      33.238  20.826 -22.337  0.00  0.00     0.082 C 
BRANCH  18  19
ATOM     19  C   UNL d   1      33.197  20.221 -21.772  0.00  0.00     0.019 C 
ATOM     20  C   UNL d   1      33.134  20.415 -20.975  0.00  0.00     0.002 C 
ENDBRANCH  18  19
ENDBRANCH   3  18
TORSDOF 5
ENDMDL
MODEL 5
REMARK VINA RESULT:      -1.2      3.740      5.569
REMARK  5 active torsions:
REMARK  status: ('A' for Active; 'I' for Inactive)
REMARK    1  A    between atoms: C_6  and  C_1 
REMARK    2  A    between atoms: C_8  and  N_3 
REMARK    3  A    between atoms: C_7  and  C_6 
REMARK    4  A    between atoms: C_9  and  C_7 
REMARK    5  A    between atoms: C_14  and  C_8 
ROOT
ATOM      1  C   UNL d   1      30.635  17.234 -24.688  0.00  0.00     0.148 A 
ATOM      2  N   UNL d   1      30.770  18.041 -25.097  0.00  0.00    -0.227 NA
ATOM      3  N   UNL d   1      31.381  17.074 -24.187  0.00  0.00    -0.289 N 
ATOM      4  C   UNL d   1      31.974  17.771 -24.281  0.00  0.00     0.083 A 
ATOM      5  C   UNL d   1      31.589  18.380 -24.855  0.00  0.00     0.099 A 
ATOM      6  C   UNL d   1      32.806  17.932 -23.926  0.00  0.00     0.019 A 
ATOM      7  C   UNL d   1      32.044  19.137 -25.060  0.00  0.00     0.021 A 
ATOM      8  C   UNL d   1      33.241  18.697 -24.147  0.00  0.00     0.002 A 
ATOM      9  C   UNL d   1      32.856  19.306 -24.721  0.00  0.00     0.002 A 
ENDROOT
BRANCH   1  10
ATOM     10  C   UNL d   1      30.239  16.584 -24.514  0.00  0.00     0.037 C 
BRANCH  10  11
ATOM     11  C   UNL d   1      29.473  16.441 -24.745  0.00  0.00     0.003 C 
BRANCH  11  12
ATOM     12  C   UNL d   1      28.860  16.334 -24.221  0.00  0.00     0.000 A 
ATOM     13  C   UNL d   1      28.433  16.964 -23.934  0.00  0.00     0.000 A 
ATOM     14  C   UNL d   1      27.820  16.856 -23.411  0.00  0.00     0.000 A 
ATOM     15  C   UNL d   1      27.627  16.093 -23.165  0.00  0.00     0.000 A 
ATOM     16  C   UNL d   1      28.052  15.453 -23.449  0.00  0.00     0.000 A 
ATOM     17  C   UNL d   1      28.667  15.570 -23.976  0.00  0.00     0.000 A 
ENDBRANCH  11  12
ENDBRANCH  10  11
ENDBRANCH   1  10
BRANCH   3  18
ATOM     18  C   UNL d   1      32.001  16.866 -23.726  0.00  0.00     0.082 C 
BRANCH  18  19
ATOM     19  C   UNL d   1      32.043  16.087 -23.444  0.00  0.00     0.019 C 
ATOM     20  C   UNL d   1      32.564  15.904 -22.836  0.00  0.00     0.002 C 
ENDBRANCH  18  19
ENDBRANCH   3  18
TORSDOF 5
ENDMDL
MODEL 6
REMARK VINA RESULT:      -1.0      3.422      5.718
REMARK  5 active torsions:
REMARK  status: ('A' for Active; 'I' for Inactive)
REMARK    1  A    between atoms: C_6  and  C_1 
REMARK    2  A    between atoms: C_8  and  N_3 
REMARK    3  A    between atoms: C_7  and  C_6 
REMARK    4  A    between atoms: C_9  and  C_7 
REMARK    5  A    between atoms: C_14  and  C_8 
ROOT
ATOM      1  C   UNL d   1      30.668  16.927 -24.113  0.00  0.00     0.148 A 
ATOM      2  N   UNL d   1      30.529  16.245 -23.520  0.00  0.00    -0.227 NA
ATOM      3  N   UNL d   1      29.843  17.177 -24.415  0.00  0.00    -0.289 N 
ATOM      4  C   UNL d   1      29.197  16.658 -24.015  0.00  0.00     0.083 A 
ATOM      5  C   UNL d   1      29.629  16.071 -23.451  0.00  0.00     0.099 A 
ATOM      6  C   UNL d   1      28.281  16.641 -24.087  0.00  0.00     0.019 A 
ATOM      7  C   UNL d   1      29.135  15.479 -22.972  0.00  0.00     0.021 A 
ATOM      8  C   UNL d   1      27.810  16.040 -23.597  0.00  0.00     0.002 A 
ATOM      9  C   UNL d   1      28.242  15.452 -23.033  0.00  0.00     0.002 A 
ENDROOT
BRANCH   1  10
ATOM     10  C   UNL d   1      31.097  17.434 -24.524  0.00  0.00     0.037 C 
BRANCH  10  11
ATOM     11  C   UNL d   1      31.910  17.445 -24.528  0.00  0.00     0.003 C 
BRANCH  11  12
ATOM     12  C   UNL d   1      32.351  18.083 -24.280  0.00  0.00     0.000 A 
ATOM     13  C   UNL d   1      32.585  18.663 -24.800  0.00  0.00     0.000 A 
ATOM     14  C   UNL d   1      33.025  19.300 -24.552  0.00  0.00     0.000 A 
ATOM     15  C   UNL d   1      33.238  19.359 -23.757  0.00  0.00     0.000 A 
ATOM     16  C   UNL d   1      33.006  18.780 -23.227  0.00  0.00     0.000 A 
ATOM     17  C   UNL d   1      32.563  18.142 -23.486  0.00  0.00     0.000 A 
ENDBRANCH  11  12
ENDBRANCH  10  11
ENDBRANCH   1  10
BRANCH   3  18
ATOM     18  C   UNL d   1      29.157  17.449 -24.722  0.00  0.00     0.082 C 
BRANCH  18  19
ATOM     19  C   UNL d   1      29.152  18.196 -25.082  0.00  0.00     0.019 C 
ATOM     20  C   UNL d   1      28.588  18.750 -24.856  0.00  0.00     0.002 C 
ENDBRANCH  18  19
ENDBRANCH   3  18
TORSDOF 5
ENDMDL
