MODEL 1
REMARK VINA RESULT:      25.5      0.000      0.000
REMARK  0 active torsions:
REMARK  status: ('A' for Active; 'I' for Inactive)
ROOT
ATOM      1  C   UNL d   1      14.204  13.541  -2.692  0.00  0.00     0.267 A 
ATOM      2  N   UNL d   1      14.560  13.601  -1.977  0.00  0.00    -0.270 N 
ATOM      3  C   UNL d   1      13.832  13.016  -2.917  0.00  0.00     0.081 A 
ATOM      4  C   UNL d   1      13.607  12.295  -2.597  0.00  0.00     0.105 A 
ATOM      5  O   UNL d   1      13.724  11.974  -1.977  0.00  0.00    -0.305 OA
ATOM      6  C   UNL d   1      14.540  13.028  -1.372  0.00  0.00     0.090 A 
ATOM      7  C   UNL d   1      14.153  12.273  -1.371  0.00  0.00     0.116 A 
ATOM      8  C   UNL d   1      13.594  13.220  -3.671  0.00  0.00     0.028 A 
ATOM      9  O   UNL d   1      14.295  14.174  -3.206  0.00  0.00    -0.267 OA
ATOM     10  C   UNL d   1      13.145  11.779  -3.031  0.00  0.00     0.026 A 
ATOM     11  C   UNL d   1      13.128  12.703  -4.114  0.00  0.00     0.103 A 
ATOM     12  C   UNL d   1      14.980  14.286  -1.826  0.00  0.00     0.102 C 
ATOM     13  N   UNL d   1      12.891  12.912  -4.871  0.00  0.00    -0.148 N 
ATOM     14  C   UNL d   1      12.903  11.983  -3.793  0.00  0.00     0.023 A 
ATOM     15  C   UNL d   1      14.978  13.279  -0.692  0.00  0.00     0.020 A 
ATOM     16  C   UNL d   1      14.205  11.779  -0.697  0.00  0.00     0.026 A 
ATOM     17  C   UNL d   1      15.029  12.778  -0.014  0.00  0.00     0.002 A 
ATOM     18  C   UNL d   1      14.639  12.023  -0.016  0.00  0.00     0.002 A 
ENDROOT
TORSDOF 0
ENDMDL
