MODEL 1
REMARK VINA RESULT:       4.9      0.000      0.000
REMARK  8 active torsions:
REMARK  status: ('A' for Active; 'I' for Inactive)
REMARK    1  A    between atoms: C_9  and  N_1 
REMARK    2  A    between atoms: C_7  and  C_2 
REMARK    3  A    between atoms: C_6  and  C_4 
REMARK    4  A    between atoms: C_8  and  C_12 
REMARK       I    between atoms: N_25  and  C_8 
REMARK    5  A    between atoms: N_11  and  C_26 
REMARK    6  A    between atoms: C_30  and  N_25 
REMARK    7  A    between atoms: C_26  and  C_27 
REMARK    8  A    between atoms: C_27  and  C_30 
ROOT
ATOM      1  C   UNL d   1      59.137  -9.773  32.124  0.00  0.00     0.083 A 
ATOM      2  C   UNL d   1      59.004  -9.782  33.769  0.00  0.00     0.058 A 
ATOM      3  C   UNL d   1      59.818  -9.780  32.588  0.00  0.00     0.019 A 
ATOM      4  C   UNL d   1      58.391  -9.771  32.476  0.00  0.00     0.019 A 
ATOM      5  C   UNL d   1      58.321  -9.776  33.292  0.00  0.00     0.006 A 
ATOM      6  C   UNL d   1      59.753  -9.784  33.402  0.00  0.00     0.006 A 
ENDROOT
BRANCH   1   7
ATOM      7  N   UNL d   1      59.198  -9.769  31.298  0.00  0.00    -0.229 N 
ATOM      8  C   UNL d   1      58.575  -9.768  30.761  0.00  0.00     0.090 A 
ATOM      9  C   UNL d   1      58.890  -9.763  30.000  0.00  0.00     0.044 A 
ATOM     10  C   UNL d   1      59.714  -9.760  30.075  0.00  0.00     0.174 A 
ATOM     11  N   UNL d   1      59.892  -9.764  30.875  0.00  0.00    -0.161 NA
BRANCH   8  12
ATOM     12  C   UNL d   1      57.756  -9.771  30.863  0.00  0.00     0.047 A 
ATOM     13  S   UNL d   1      57.142  -9.798  31.426  0.00  0.00    -0.085 SA
ATOM     14  C   UNL d   1      56.418  -9.776  31.020  0.00  0.00     0.035 A 
ATOM     15  C   UNL d   1      56.586  -9.735  30.218  0.00  0.00     0.007 A 
ATOM     16  C   UNL d   1      57.394  -9.732  30.113  0.00  0.00     0.009 A 
ENDBRANCH   8  12
BRANCH  10  17
ATOM     17  C   UNL d   1      60.259  -9.755  29.452  0.00  0.00     0.437 C 
ATOM     18  F   UNL d   1      61.124  -9.797  29.479  0.00  0.00    -0.164 F 
ATOM     19  F   UNL d   1      60.119  -9.707  28.598  0.00  0.00    -0.164 F 
ATOM     20  F   UNL d   1      60.757  -9.751  28.882  0.00  0.00    -0.164 F 
ENDBRANCH  10  17
ENDBRANCH   1   7
BRANCH   2  21
ATOM     21  C   UNL d   1      58.937  -9.787  34.593  0.00  0.00     0.279 C 
ATOM     22  O   UNL d   1      58.195  -9.813  34.942  0.00  0.00    -0.265 OA
ATOM     23  N   UNL d   1      59.618  -9.766  35.057  0.00  0.00    -0.206 NA
BRANCH  23  24
ATOM     24  C   UNL d   1      59.551  -9.770  35.876  0.00  0.00     0.104 C 
BRANCH  24  25
ATOM     25  C   UNL d   1      59.743  -9.093  36.313  0.00  0.00     0.040 C 
BRANCH  25  26
ATOM     26  C   UNL d   1      60.414  -8.659  36.136  0.00  0.00     0.082 C 
BRANCH  26  27
ATOM     27  N   UNL d   1      60.398  -7.832  36.143  0.00  0.00    -0.299 N 
ATOM     28  C   UNL d   1      61.096  -7.406  36.017  0.00  0.00     0.107 A 
ATOM     29  C   UNL d   1      61.068  -6.583  36.027  0.00  0.00     0.142 A 
ATOM     30  O   UNL d   1      60.360  -6.190  36.158  0.00  0.00    -0.300 OA
ATOM     31  C   UNL d   1      59.669  -6.620  36.283  0.00  0.00     0.142 A 
ATOM     32  C   UNL d   1      59.683  -7.450  36.276  0.00  0.00     0.107 A 
ENDBRANCH  26  27
ENDBRANCH  25  26
ENDBRANCH  24  25
ENDBRANCH  23  24
ENDBRANCH   2  21
TORSDOF 8
ENDMDL
