MODEL 1
REMARK VINA RESULT:      26.1      0.000      0.000
REMARK  5 active torsions:
REMARK  status: ('A' for Active; 'I' for Inactive)
REMARK    1  A    between atoms: C_6  and  C_1 
REMARK    2  A    between atoms: C_8  and  N_3 
REMARK    3  A    between atoms: O_7  and  C_6 
REMARK    4  A    between atoms: C_9  and  O_7 
REMARK    5  A    between atoms: O_16  and  C_10 
ROOT
ATOM      1  C   UNL d   1      13.277  12.889  -3.604  0.00  0.00     0.173 A 
ATOM      2  N   UNL d   1      13.214  13.660  -3.396  0.00  0.00    -0.225 NA
ATOM      3  N   UNL d   1      13.327  12.794  -4.404  0.00  0.00    -0.287 N 
ATOM      4  C   UNL d   1      13.294  13.588  -4.756  0.00  0.00     0.083 A 
ATOM      5  C   UNL d   1      13.225  14.110  -4.149  0.00  0.00     0.099 A 
ATOM      6  C   UNL d   1      13.316  13.885  -5.523  0.00  0.00     0.019 A 
ATOM      7  C   UNL d   1      13.174  14.965  -4.266  0.00  0.00     0.021 A 
ATOM      8  C   UNL d   1      13.272  14.687  -5.703  0.00  0.00     0.002 A 
ATOM      9  C   UNL d   1      13.204  15.209  -5.095  0.00  0.00     0.002 A 
ENDROOT
BRANCH   1  10
ATOM     10  C   UNL d   1      13.323  12.091  -3.467  0.00  0.00     0.160 C 
BRANCH  10  11
ATOM     11  O   UNL d   1      12.990  11.781  -2.765  0.00  0.00    -0.302 OA
BRANCH  11  12
ATOM     12  C   UNL d   1      13.409  11.833  -2.042  0.00  0.00     0.100 A 
ATOM     13  C   UNL d   1      14.240  11.931  -2.046  0.00  0.00     0.027 A 
ATOM     14  C   UNL d   1      14.660  11.984  -1.324  0.00  0.00     0.026 A 
ATOM     15  C   UNL d   1      14.262  11.940  -0.622  0.00  0.00     0.094 A 
ATOM     16  C   UNL d   1      13.431  11.843  -0.618  0.00  0.00     0.026 A 
ATOM     17  C   UNL d   1      13.011  11.790  -1.340  0.00  0.00     0.027 A 
BRANCH  15  18
ATOM     18  O   UNL d   1      14.852  12.013  -0.025  0.00  0.00    -0.328 OA
ATOM     19  C   UNL d   1      15.546  12.471  -0.158  0.00  0.00     0.181 C 
ENDBRANCH  15  18
ENDBRANCH  11  12
ENDBRANCH  10  11
ENDBRANCH   1  10
BRANCH   3  20
ATOM     20  C   UNL d   1      13.393  12.042  -4.674  0.00  0.00     0.082 C 
ATOM     21  C   UNL d   1      13.008  11.789  -5.359  0.00  0.00     0.021 C 
ENDBRANCH   3  20
TORSDOF 5
ENDMDL
