MODEL 1
REMARK VINA RESULT:      -1.6      0.000      0.000
REMARK  5 active torsions:
REMARK  status: ('A' for Active; 'I' for Inactive)
REMARK    1  A    between atoms: C_3  and  C_1 
REMARK    2  A    between atoms: C_7  and  C_2 
REMARK       I    between atoms: N_5  and  C_3 
REMARK    3  A    between atoms: C_6  and  N_5 
REMARK    4  A    between atoms: N_10  and  C_6 
REMARK    5  A    between atoms: C_14  and  N_10 
ROOT
ATOM      1  C   UNL d   1     -43.020-122.350 -50.357  0.00  0.00     0.103 A 
ATOM      2  C   UNL d   1     -43.056-122.803 -49.663  0.00  0.00     0.116 A 
ATOM      3  N   UNL d   1     -43.853-122.910 -49.476  0.00  0.00    -0.126 NA
ATOM      4  O   UNL d   1     -44.309-122.527 -50.051  0.00  0.00    -0.211 OA
ATOM      5  C   UNL d   1     -43.792-122.189 -50.583  0.00  0.00     0.131 A 
ATOM      6  C   UNL d   1     -44.009-121.753 -51.245  0.00  0.00     0.029 C 
ENDROOT
BRANCH   1   7
ATOM      7  C   UNL d   1     -42.329-122.119 -50.730  0.00  0.00     0.285 C 
ATOM      8  N   UNL d   1     -42.168-122.322 -51.507  0.00  0.00    -0.179 NA
ATOM      9  O   UNL d   1     -41.776-121.666 -50.310  0.00  0.00    -0.265 OA
BRANCH   8  10
ATOM     10  C   UNL d   1     -41.476-122.091 -51.881  0.00  0.00     0.223 C 
ATOM     11  S   UNL d   1     -41.128-121.368 -51.672  0.00  0.00    -0.037 SA
BRANCH  10  12
ATOM     12  N   UNL d   1     -41.123-122.561 -52.458  0.00  0.00    -0.217 NA
BRANCH  12  13
ATOM     13  C   UNL d   1     -41.368-122.500 -53.234  0.00  0.00     0.084 A 
ATOM     14  C   UNL d   1     -41.562-123.191 -53.654  0.00  0.00     0.019 A 
ATOM     15  C   UNL d   1     -41.810-123.130 -54.438  0.00  0.00     0.002 A 
ATOM     16  C   UNL d   1     -41.866-122.387 -54.803  0.00  0.00     0.000 A 
ATOM     17  C   UNL d   1     -41.671-121.697 -54.375  0.00  0.00     0.002 A 
ATOM     18  C   UNL d   1     -42.116-122.325 -55.592  0.00  0.00     0.000 C 
ATOM     19  C   UNL d   1     -41.421-121.758 -53.587  0.00  0.00     0.019 A 
ENDBRANCH  12  13
ENDBRANCH  10  12
ENDBRANCH   8  10
ENDBRANCH   1   7
BRANCH   2  20
ATOM     20  C   UNL d   1     -42.413-123.093 -49.236  0.00  0.00     0.031 A 
ATOM     21  C   UNL d   1     -42.356-122.949 -48.428  0.00  0.00     0.059 A 
ATOM     22 CL   UNL d   1     -42.942-122.515 -48.048  0.00  0.00    -0.082 Cl
ATOM     23  C   UNL d   1     -41.716-123.239 -48.009  0.00  0.00     0.011 A 
ATOM     24  C   UNL d   1     -41.123-123.678 -48.391  0.00  0.00     0.001 A 
ATOM     25  C   UNL d   1     -41.188-123.817 -49.201  0.00  0.00     0.000 A 
ATOM     26  C   UNL d   1     -41.832-123.528 -49.636  0.00  0.00     0.002 A 
ENDBRANCH   2  20
TORSDOF 5
ENDMDL
MODEL 2
REMARK VINA RESULT:       1.0      1.996      4.852
REMARK  5 active torsions:
REMARK  status: ('A' for Active; 'I' for Inactive)
REMARK    1  A    between atoms: C_3  and  C_1 
REMARK    2  A    between atoms: C_7  and  C_2 
REMARK       I    between atoms: N_5  and  C_3 
REMARK    3  A    between atoms: C_6  and  N_5 
REMARK    4  A    between atoms: N_10  and  C_6 
REMARK    5  A    between atoms: C_14  and  N_10 
ROOT
ATOM      1  C   UNL d   1     -41.518-121.725 -52.570  0.00  0.00     0.103 A 
ATOM      2  C   UNL d   1     -41.563-121.753 -53.397  0.00  0.00     0.116 A 
ATOM      3  N   UNL d   1     -41.556-120.975 -53.673  0.00  0.00    -0.126 NA
ATOM      4  O   UNL d   1     -41.507-120.467 -53.021  0.00  0.00    -0.211 OA
ATOM      5  C   UNL d   1     -41.485-120.935 -52.354  0.00  0.00     0.131 A 
ATOM      6  C   UNL d   1     -41.437-120.657 -51.581  0.00  0.00     0.029 C 
ENDROOT
BRANCH   1   7
ATOM      7  C   UNL d   1     -41.511-122.381 -52.079  0.00  0.00     0.285 C 
ATOM      8  N   UNL d   1     -41.876-122.376 -51.345  0.00  0.00    -0.179 NA
ATOM      9  O   UNL d   1     -41.123-123.068 -52.331  0.00  0.00    -0.265 OA
BRANCH   8  10
ATOM     10  C   UNL d   1     -41.869-123.032 -50.854  0.00  0.00     0.223 C 
ATOM     11  S   UNL d   1     -42.392-123.656 -51.007  0.00  0.00    -0.037 SA
BRANCH  10  12
ATOM     12  N   UNL d   1     -41.353-123.082 -50.213  0.00  0.00    -0.217 NA
BRANCH  12  13
ATOM     13  C   UNL d   1     -41.654-123.154 -49.458  0.00  0.00     0.084 A 
ATOM     14  C   UNL d   1     -42.246-122.629 -49.204  0.00  0.00     0.019 A 
ATOM     15  C   UNL d   1     -42.550-122.701 -48.442  0.00  0.00     0.002 A 
ATOM     16  C   UNL d   1     -42.267-123.292 -47.933  0.00  0.00     0.000 A 
ATOM     17  C   UNL d   1     -41.672-123.816 -48.193  0.00  0.00     0.002 A 
ATOM     18  C   UNL d   1     -42.573-123.365 -47.165  0.00  0.00     0.000 C 
ATOM     19  C   UNL d   1     -41.367-123.743 -48.960  0.00  0.00     0.019 A 
ENDBRANCH  12  13
ENDBRANCH  10  12
ENDBRANCH   8  10
ENDBRANCH   1   7
BRANCH   2  20
ATOM     20  C   UNL d   1     -41.606-122.433 -53.861  0.00  0.00     0.031 A 
ATOM     21  C   UNL d   1     -42.040-122.428 -54.560  0.00  0.00     0.059 A 
ATOM     22 CL   UNL d   1     -42.430-121.743 -54.794  0.00  0.00    -0.082 Cl
ATOM     23  C   UNL d   1     -42.079-123.106 -55.017  0.00  0.00     0.011 A 
ATOM     24  C   UNL d   1     -41.685-123.799 -54.782  0.00  0.00     0.001 A 
ATOM     25  C   UNL d   1     -41.253-123.795 -54.080  0.00  0.00     0.000 A 
ATOM     26  C   UNL d   1     -41.205-123.114 -53.609  0.00  0.00     0.002 A 
ENDBRANCH   2  20
TORSDOF 5
ENDMDL
