MODEL 1
REMARK VINA RESULT:      -2.3      0.000      0.000
REMARK  3 active torsions:
REMARK  status: ('A' for Active; 'I' for Inactive)
REMARK    1  A    between atoms: C_8  and  C_1 
REMARK    2  A    between atoms: C_9  and  C_4 
REMARK    3  A    between atoms: O_20  and  C_8 
ROOT
ATOM      1  C   UNL d   1      58.712  -0.889  29.848  0.00  0.00     0.107 A 
ATOM      2  C   UNL d   1      58.222  -1.537  30.037  0.00  0.00     0.208 A 
ATOM      3  C   UNL d   1      59.652  -1.783  29.219  0.00  0.00     0.062 A 
ATOM      4  C   UNL d   1      59.433  -1.029  29.434  0.00  0.00     0.020 A 
ATOM      5  C   UNL d   1      59.162  -2.431  29.408  0.00  0.00     0.101 A 
ATOM      6  O   UNL d   1      58.455  -2.323  29.811  0.00  0.00    -0.288 OA
ATOM      7  C   UNL d   1      60.354  -1.904  28.818  0.00  0.00     0.194 A 
ATOM      8  C   UNL d   1      59.375  -3.199  29.195  0.00  0.00     0.002 A 
ATOM      9  C   UNL d   1      60.088  -3.311  28.789  0.00  0.00     0.042 A 
ATOM     10  C   UNL d   1      60.578  -2.663  28.601  0.00  0.00     0.019 A 
ATOM     11  O   UNL d   1      60.847  -1.253  28.628  0.00  0.00    -0.287 OA
ATOM     12  N   UNL d   1      57.495  -1.411  30.452  0.00  0.00    -0.121 N 
ATOM     13  C   UNL d   1      60.568  -3.874  28.455  0.00  0.00     0.009 C 
ATOM     14  C   UNL d   1      59.728  -4.048  28.895  0.00  0.00     0.009 C 
ENDROOT
BRANCH   4  15
ATOM     15  C   UNL d   1      59.918  -0.403  29.245  0.00  0.00     0.030 A 
ATOM     16  S   UNL d   1      60.668   0.003  29.659  0.00  0.00    -0.086 SA
ATOM     17  C   UNL d   1      60.764   0.682  28.927  0.00  0.00     0.035 A 
ATOM     18  C   UNL d   1      60.231   0.509  28.488  0.00  0.00     0.007 A 
ATOM     19  C   UNL d   1      59.805  -0.040  28.652  0.00  0.00     0.007 A 
ENDBRANCH   4  15
BRANCH   1  20
ATOM     20  C   UNL d   1      58.474  -0.117  30.075  0.00  0.00     0.299 C 
ATOM     21  O   UNL d   1      57.955   0.334  29.595  0.00  0.00    -0.259 OA
BRANCH  20  22
ATOM     22  O   UNL d   1      58.743   0.221  30.775  0.00  0.00    -0.296 OA
ATOM     23  C   UNL d   1      58.227   0.669  31.273  0.00  0.00     0.185 C 
ENDBRANCH  20  22
ENDBRANCH   1  20
TORSDOF 3
ENDMDL
MODEL 2
REMARK VINA RESULT:      -1.4      1.132      3.250
REMARK  3 active torsions:
REMARK  status: ('A' for Active; 'I' for Inactive)
REMARK    1  A    between atoms: C_8  and  C_1 
REMARK    2  A    between atoms: C_9  and  C_4 
REMARK    3  A    between atoms: O_20  and  C_8 
ROOT
ATOM      1  C   UNL d   1      58.860  -1.421  29.719  0.00  0.00     0.107 A 
ATOM      2  C   UNL d   1      58.177  -1.892  29.805  0.00  0.00     0.208 A 
ATOM      3  C   UNL d   1      58.335  -0.482  30.679  0.00  0.00     0.062 A 
ATOM      4  C   UNL d   1      58.926  -0.710  30.168  0.00  0.00     0.020 A 
ATOM      5  C   UNL d   1      57.651  -0.952  30.765  0.00  0.00     0.101 A 
ATOM      6  O   UNL d   1      57.561  -1.649  30.340  0.00  0.00    -0.288 OA
ATOM      7  C   UNL d   1      58.412   0.209  31.108  0.00  0.00     0.194 A 
ATOM      8  C   UNL d   1      57.047  -0.730  31.279  0.00  0.00     0.002 A 
ATOM      9  C   UNL d   1      57.134  -0.028  31.709  0.00  0.00     0.042 A 
ATOM     10  C   UNL d   1      57.817   0.442  31.623  0.00  0.00     0.019 A 
ATOM     11  O   UNL d   1      59.098   0.682  31.022  0.00  0.00    -0.287 OA
ATOM     12  N   UNL d   1      58.097  -2.607  29.361  0.00  0.00    -0.121 N 
ATOM     13  C   UNL d   1      56.774   0.453  32.255  0.00  0.00     0.009 C 
ATOM     14  C   UNL d   1      56.408  -0.369  31.909  0.00  0.00     0.009 C 
ENDROOT
BRANCH   4  15
ATOM     15  C   UNL d   1      59.589  -0.245  30.091  0.00  0.00     0.030 A 
ATOM     16  S   UNL d   1      60.436  -0.220  30.519  0.00  0.00    -0.086 SA
ATOM     17  C   UNL d   1      60.745   0.557  29.965  0.00  0.00     0.035 A 
ATOM     18  C   UNL d   1      60.181   0.682  29.549  0.00  0.00     0.007 A 
ATOM     19  C   UNL d   1      59.599   0.275  29.615  0.00  0.00     0.007 A 
ENDBRANCH   4  15
BRANCH   1  20
ATOM     20  C   UNL d   1      59.462  -1.668  29.189  0.00  0.00     0.299 C 
ATOM     21  O   UNL d   1      59.578  -1.280  28.455  0.00  0.00    -0.259 OA
BRANCH  20  22
ATOM     22  O   UNL d   1      59.958  -2.299  29.374  0.00  0.00    -0.296 OA
ATOM     23  C   UNL d   1      60.446  -2.660  28.786  0.00  0.00     0.185 C 
ENDBRANCH  20  22
ENDBRANCH   1  20
TORSDOF 3
ENDMDL
MODEL 3
REMARK VINA RESULT:      -0.9      1.709      3.745
REMARK  3 active torsions:
REMARK  status: ('A' for Active; 'I' for Inactive)
REMARK    1  A    between atoms: C_8  and  C_1 
REMARK    2  A    between atoms: C_9  and  C_4 
REMARK    3  A    between atoms: O_20  and  C_8 
ROOT
ATOM      1  C   UNL d   1      59.703  -0.074  30.299  0.00  0.00     0.107 A 
ATOM      2  C   UNL d   1      59.917   0.399  30.952  0.00  0.00     0.208 A 
ATOM      3  C   UNL d   1      58.354  -0.159  30.802  0.00  0.00     0.062 A 
ATOM      4  C   UNL d   1      58.908  -0.350  30.237  0.00  0.00     0.020 A 
ATOM      5  C   UNL d   1      58.568   0.315  31.455  0.00  0.00     0.101 A 
ATOM      6  O   UNL d   1      59.335   0.596  31.540  0.00  0.00    -0.288 OA
ATOM      7  C   UNL d   1      57.587  -0.432  30.729  0.00  0.00     0.194 A 
ATOM      8  C   UNL d   1      58.015   0.514  32.033  0.00  0.00     0.002 A 
ATOM      9  C   UNL d   1      57.241   0.232  31.950  0.00  0.00     0.042 A 
ATOM     10  C   UNL d   1      57.027  -0.241  31.298  0.00  0.00     0.019 A 
ATOM     11  O   UNL d   1      57.372  -0.908  30.074  0.00  0.00    -0.287 OA
ATOM     12  N   UNL d   1      60.711   0.682  31.027  0.00  0.00    -0.121 N 
ATOM     13  C   UNL d   1      56.506   0.230  32.295  0.00  0.00     0.009 C 
ATOM     14  C   UNL d   1      57.284   0.680  32.644  0.00  0.00     0.009 C 
ENDROOT
BRANCH   4  15
ATOM     15  C   UNL d   1      58.690  -0.812  29.604  0.00  0.00     0.030 A 
ATOM     16  S   UNL d   1      58.472  -0.636  28.698  0.00  0.00    -0.086 SA
ATOM     17  C   UNL d   1      58.311  -1.606  28.499  0.00  0.00     0.035 A 
ATOM     18  C   UNL d   1      58.441  -1.914  29.128  0.00  0.00     0.007 A 
ATOM     19  C   UNL d   1      58.632  -1.510  29.683  0.00  0.00     0.007 A 
ENDBRANCH   4  15
BRANCH   1  20
ATOM     20  C   UNL d   1      60.284  -0.264  29.723  0.00  0.00     0.299 C 
ATOM     21  O   UNL d   1      60.846  -0.871  29.860  0.00  0.00    -0.259 OA
BRANCH  20  22
ATOM     22  O   UNL d   1      60.319   0.140  29.007  0.00  0.00    -0.296 OA
ATOM     23  C   UNL d   1      61.059   0.356  28.661  0.00  0.00     0.185 C 
ENDBRANCH  20  22
ENDBRANCH   1  20
TORSDOF 3
ENDMDL
MODEL 4
REMARK VINA RESULT:       0.6      1.401      2.269
REMARK  3 active torsions:
REMARK  status: ('A' for Active; 'I' for Inactive)
REMARK    1  A    between atoms: C_8  and  C_1 
REMARK    2  A    between atoms: C_9  and  C_4 
REMARK    3  A    between atoms: O_20  and  C_8 
ROOT
ATOM      1  C   UNL d   1      59.795  -0.820  29.385  0.00  0.00     0.107 A 
ATOM      2  C   UNL d   1      60.391  -1.245  28.985  0.00  0.00     0.208 A 
ATOM      3  C   UNL d   1      58.928  -1.970  29.319  0.00  0.00     0.062 A 
ATOM      4  C   UNL d   1      59.060  -1.200  29.548  0.00  0.00     0.020 A 
ATOM      5  C   UNL d   1      59.524  -2.396  28.919  0.00  0.00     0.101 A 
ATOM      6  O   UNL d   1      60.249  -2.050  28.748  0.00  0.00    -0.288 OA
ATOM      7  C   UNL d   1      58.211  -2.327  29.482  0.00  0.00     0.194 A 
ATOM      8  C   UNL d   1      59.400  -3.176  28.683  0.00  0.00     0.002 A 
ATOM      9  C   UNL d   1      58.671  -3.528  28.853  0.00  0.00     0.042 A 
ATOM     10  C   UNL d   1      58.076  -3.103  29.253  0.00  0.00     0.019 A 
ATOM     11  O   UNL d   1      57.613  -1.899  29.885  0.00  0.00    -0.287 OA
ATOM     12  N   UNL d   1      61.133  -0.876  28.816  0.00  0.00    -0.121 N 
ATOM     13  C   UNL d   1      58.242  -4.213  28.777  0.00  0.00     0.009 C 
ATOM     14  C   UNL d   1      59.142  -4.080  28.457  0.00  0.00     0.009 C 
ENDROOT
BRANCH   4  15
ATOM     15  C   UNL d   1      58.473  -0.793  29.937  0.00  0.00     0.030 A 
ATOM     16  S   UNL d   1      58.276  -0.626  30.850  0.00  0.00    -0.086 SA
ATOM     17  C   UNL d   1      57.458  -0.089  30.624  0.00  0.00     0.035 A 
ATOM     18  C   UNL d   1      57.453  -0.114  29.912  0.00  0.00     0.007 A 
ATOM     19  C   UNL d   1      57.967  -0.470  29.569  0.00  0.00     0.007 A 
ENDBRANCH   4  15
BRANCH   1  20
ATOM     20  C   UNL d   1      59.944  -0.026  29.616  0.00  0.00     0.299 C 
ATOM     21  O   UNL d   1      59.738   0.614  29.115  0.00  0.00    -0.259 OA
BRANCH  20  22
ATOM     22  O   UNL d   1      60.296   0.147  30.339  0.00  0.00    -0.296 OA
ATOM     23  C   UNL d   1      61.039   0.547  30.381  0.00  0.00     0.185 C 
ENDBRANCH  20  22
ENDBRANCH   1  20
TORSDOF 3
ENDMDL
