MODEL 1
REMARK VINA RESULT:      -3.7      0.000      0.000
REMARK  6 active torsions:
REMARK  status: ('A' for Active; 'I' for Inactive)
REMARK    1  A    between atoms: C_2  and  S_1 
REMARK    2  A    between atoms: N_5  and  S_1 
REMARK    3  A    between atoms: C_15  and  N_5 
REMARK    4  A    between atoms: C_7  and  C_6 
REMARK    5  A    between atoms: C_20  and  C_15 
REMARK    6  A    between atoms: O_19  and  C_20 
ROOT
ATOM      1  C   UNL d   1     -41.513-122.059 -51.656  0.00  0.00     0.105 A 
ATOM      2  C   UNL d   1     -41.913-122.660 -50.164  0.00  0.00     0.000 A 
ATOM      3  C   UNL d   1     -41.134-122.737 -51.369  0.00  0.00     0.013 A 
ATOM      4  C   UNL d   1     -42.088-121.683 -51.199  0.00  0.00     0.013 A 
ATOM      5  C   UNL d   1     -42.289-121.984 -50.451  0.00  0.00     0.001 A 
ATOM      6  C   UNL d   1     -41.335-123.039 -50.621  0.00  0.00     0.001 A 
ENDROOT
BRANCH   1   7
ATOM      7  S   UNL d   1     -41.319-121.753 -52.398  0.00  0.00     0.285 S 
ATOM      8  O   UNL d   1     -41.127-121.456 -53.140  0.00  0.00    -0.198 OA
ATOM      9  O   UNL d   1     -41.123-121.033 -52.060  0.00  0.00    -0.198 OA
BRANCH   7  10
ATOM     10  N   UNL d   1     -41.514-122.476 -52.747  0.00  0.00    -0.155 NA
BRANCH  10  11
ATOM     11  C   UNL d   1     -41.521-122.553 -53.569  0.00  0.00     0.138 C 
BRANCH  11  12
ATOM     12  C   UNL d   1     -41.816-123.243 -53.913  0.00  0.00     0.138 C 
BRANCH  12  13
ATOM     13  O   UNL d   1     -42.303-123.193 -54.589  0.00  0.00    -0.325 OA
ATOM     14  C   UNL d   1     -42.205-123.730 -55.192  0.00  0.00     0.182 C 
ENDBRANCH  12  13
ENDBRANCH  11  12
ENDBRANCH  10  11
ENDBRANCH   7  10
ENDBRANCH   1   7
BRANCH   2  15
ATOM     15  C   UNL d   1     -42.117-122.953 -49.422  0.00  0.00     0.000 A 
ATOM     16  C   UNL d   1     -41.709-122.690 -48.756  0.00  0.00     0.001 A 
ATOM     17  C   UNL d   1     -41.900-122.971 -48.012  0.00  0.00     0.011 A 
ATOM     18  C   UNL d   1     -42.515-123.531 -47.927  0.00  0.00     0.058 A 
ATOM     19  C   UNL d   1     -42.923-123.794 -48.594  0.00  0.00     0.011 A 
ATOM     20 CL   UNL d   1     -42.712-123.817 -47.187  0.00  0.00    -0.082 Cl
ATOM     21  C   UNL d   1     -42.724-123.505 -49.341  0.00  0.00     0.001 A 
ENDBRANCH   2  15
TORSDOF 6
ENDMDL
MODEL 2
REMARK VINA RESULT:      -1.5      1.276      1.636
REMARK  6 active torsions:
REMARK  status: ('A' for Active; 'I' for Inactive)
REMARK    1  A    between atoms: C_2  and  S_1 
REMARK    2  A    between atoms: N_5  and  S_1 
REMARK    3  A    between atoms: C_15  and  N_5 
REMARK    4  A    between atoms: C_7  and  C_6 
REMARK    5  A    between atoms: C_20  and  C_15 
REMARK    6  A    between atoms: O_19  and  C_20 
ROOT
ATOM      1  C   UNL d   1     -41.576-123.050 -52.697  0.00  0.00     0.105 A 
ATOM      2  C   UNL d   1     -41.743-122.960 -51.051  0.00  0.00     0.000 A 
ATOM      3  C   UNL d   1     -41.931-123.674 -52.284  0.00  0.00     0.013 A 
ATOM      4  C   UNL d   1     -41.306-122.385 -52.291  0.00  0.00     0.013 A 
ATOM      5  C   UNL d   1     -41.390-122.340 -51.465  0.00  0.00     0.001 A 
ATOM      6  C   UNL d   1     -42.015-123.629 -51.458  0.00  0.00     0.001 A 
ENDROOT
BRANCH   1   7
ATOM      7  S   UNL d   1     -41.489-123.087 -53.518  0.00  0.00     0.285 S 
ATOM      8  O   UNL d   1     -41.407-123.118 -54.335  0.00  0.00    -0.198 OA
ATOM      9  O   UNL d   1     -41.123-123.817 -53.454  0.00  0.00    -0.198 OA
BRANCH   7  10
ATOM     10  N   UNL d   1     -41.859-122.352 -53.591  0.00  0.00    -0.155 NA
BRANCH  10  11
ATOM     11  C   UNL d   1     -42.205-122.130 -54.307  0.00  0.00     0.138 C 
BRANCH  11  12
ATOM     12  C   UNL d   1     -41.949-121.445 -54.690  0.00  0.00     0.138 C 
BRANCH  12  13
ATOM     13  O   UNL d   1     -42.412-121.114 -55.301  0.00  0.00    -0.325 OA
ATOM     14  C   UNL d   1     -42.185-121.216 -56.074  0.00  0.00     0.182 C 
ENDBRANCH  12  13
ENDBRANCH  11  12
ENDBRANCH  10  11
ENDBRANCH   7  10
ENDBRANCH   1   7
BRANCH   2  15
ATOM     15  C   UNL d   1     -41.823-122.908 -50.234  0.00  0.00     0.000 A 
ATOM     16  C   UNL d   1     -41.262-123.266 -49.748  0.00  0.00     0.001 A 
ATOM     17  C   UNL d   1     -41.327-123.224 -48.933  0.00  0.00     0.011 A 
ATOM     18  C   UNL d   1     -41.969-122.813 -48.591  0.00  0.00     0.058 A 
ATOM     19  C   UNL d   1     -42.530-122.454 -49.077  0.00  0.00     0.011 A 
ATOM     20 CL   UNL d   1     -42.041-122.766 -47.778  0.00  0.00    -0.082 Cl
ATOM     21  C   UNL d   1     -42.457-122.502 -49.898  0.00  0.00     0.001 A 
ENDBRANCH   2  15
TORSDOF 6
ENDMDL
