MODEL 1
REMARK VINA RESULT:      27.5      0.000      0.000
REMARK  4 active torsions:
REMARK  status: ('A' for Active; 'I' for Inactive)
REMARK    1  A    between atoms: C_6  and  N_1 
REMARK    2  A    between atoms: C_7  and  C_6 
REMARK    3  A    between atoms: C_14  and  C_7 
REMARK    4  A    between atoms: N_10  and  C_14 
ROOT
ATOM      1  N   UNL d   1     -52.109  25.185  33.403  0.00  0.00    -0.303 N 
ATOM      2  C   UNL d   1     -51.442  24.696  33.378  0.00  0.00     0.064 A 
ATOM      3  C   UNL d   1     -50.767  25.178  33.337  0.00  0.00     0.018 A 
ATOM      4  C   UNL d   1     -51.848  25.969  33.379  0.00  0.00     0.064 A 
ATOM      5  C   UNL d   1     -51.022  25.966  33.338  0.00  0.00     0.018 A 
ATOM      6  C   UNL d   1     -51.358  23.872  33.386  0.00  0.00     0.018 A 
ATOM      7  C   UNL d   1     -50.018  24.838  33.306  0.00  0.00     0.002 A 
ATOM      8  C   UNL d   1     -52.257  26.686  33.388  0.00  0.00     0.018 A 
ATOM      9  C   UNL d   1     -50.608  26.679  33.307  0.00  0.00     0.002 A 
ATOM     10  C   UNL d   1     -49.933  24.019  33.314  0.00  0.00     0.000 A 
ATOM     11  C   UNL d   1     -50.599  23.532  33.354  0.00  0.00     0.002 A 
ATOM     12  C   UNL d   1     -51.843  27.394  33.357  0.00  0.00     0.002 A 
ATOM     13  C   UNL d   1     -51.017  27.390  33.317  0.00  0.00     0.000 A 
ENDROOT
BRANCH   1  14
ATOM     14  C   UNL d   1     -52.886  24.930  33.445  0.00  0.00     0.124 C 
BRANCH  14  15
ATOM     15  C   UNL d   1     -53.087  24.269  33.888  0.00  0.00     0.232 C 
ATOM     16  O   UNL d   1     -52.657  24.069  34.560  0.00  0.00    -0.283 OA
BRANCH  15  17
ATOM     17  C   UNL d   1     -53.726  23.803  33.653  0.00  0.00     0.142 C 
BRANCH  17  18
ATOM     18  N   UNL d   1     -54.433  23.824  34.081  0.00  0.00    -0.237 NA
ATOM     19  C   UNL d   1     -54.623  23.194  34.577  0.00  0.00     0.120 C 
ENDBRANCH  17  18
ENDBRANCH  15  17
ENDBRANCH  14  15
ENDBRANCH   1  14
TORSDOF 4
ENDMDL
MODEL 2
REMARK VINA RESULT:      29.3      1.410      3.143
REMARK  4 active torsions:
REMARK  status: ('A' for Active; 'I' for Inactive)
REMARK    1  A    between atoms: C_6  and  N_1 
REMARK    2  A    between atoms: C_7  and  C_6 
REMARK    3  A    between atoms: C_14  and  C_7 
REMARK    4  A    between atoms: N_10  and  C_14 
ROOT
ATOM      1  N   UNL d   1     -51.160  25.662  33.306  0.00  0.00    -0.303 N 
ATOM      2  C   UNL d   1     -50.851  24.895  33.306  0.00  0.00     0.064 A 
ATOM      3  C   UNL d   1     -51.485  24.359  33.306  0.00  0.00     0.018 A 
ATOM      4  C   UNL d   1     -51.985  25.602  33.306  0.00  0.00     0.064 A 
ATOM      5  C   UNL d   1     -52.186  24.800  33.306  0.00  0.00     0.018 A 
ATOM      6  C   UNL d   1     -50.073  24.611  33.306  0.00  0.00     0.018 A 
ATOM      7  C   UNL d   1     -51.340  23.548  33.306  0.00  0.00     0.002 A 
ATOM      8  C   UNL d   1     -52.579  26.175  33.306  0.00  0.00     0.018 A 
ATOM      9  C   UNL d   1     -52.979  24.573  33.306  0.00  0.00     0.002 A 
ATOM     10  C   UNL d   1     -50.567  23.264  33.306  0.00  0.00     0.000 A 
ATOM     11  C   UNL d   1     -49.931  23.791  33.306  0.00  0.00     0.002 A 
ATOM     12  C   UNL d   1     -53.368  25.947  33.306  0.00  0.00     0.002 A 
ATOM     13  C   UNL d   1     -53.568  25.145  33.306  0.00  0.00     0.000 A 
ENDROOT
BRANCH   1  14
ATOM     14  C   UNL d   1     -50.722  26.353  33.306  0.00  0.00     0.124 C 
BRANCH  14  15
ATOM     15  C   UNL d   1     -50.439  26.670  34.008  0.00  0.00     0.232 C 
ATOM     16  O   UNL d   1     -50.762  26.443  34.730  0.00  0.00    -0.283 OA
BRANCH  15  17
ATOM     17  C   UNL d   1     -49.825  27.221  33.986  0.00  0.00     0.142 C 
BRANCH  17  18
ATOM     18  N   UNL d   1     -49.559  27.573  34.686  0.00  0.00    -0.237 NA
ATOM     19  C   UNL d   1     -48.750  27.679  34.802  0.00  0.00     0.120 C 
ENDBRANCH  17  18
ENDBRANCH  15  17
ENDBRANCH  14  15
ENDBRANCH   1  14
TORSDOF 4
ENDMDL
