MODEL 1
REMARK VINA RESULT:      -3.4      0.000      0.000
REMARK  3 active torsions:
REMARK  status: ('A' for Active; 'I' for Inactive)
REMARK    1  A    between atoms: C_6  and  C_2 
REMARK    2  A    between atoms: C_7  and  C_6 
REMARK    3  A    between atoms: C_8  and  C_7 
ROOT
ATOM      1  N   UNL d   1      32.571  20.697 -21.260  0.00  0.00    -0.225 NA
ATOM      2  C   UNL d   1      33.000  20.563 -21.979  0.00  0.00     0.163 A 
ATOM      3  N   UNL d   1      33.239  21.295 -22.267  0.00  0.00    -0.225 NA
ATOM      4  C   UNL d   1      32.558  21.496 -21.131  0.00  0.00     0.101 A 
ATOM      5  C   UNL d   1      32.975  21.899 -21.755  0.00  0.00     0.101 A 
ATOM      6  C   UNL d   1      32.221  21.977 -20.515  0.00  0.00     0.021 A 
ATOM      7  C   UNL d   1      33.052  22.721 -21.768  0.00  0.00     0.021 A 
ATOM      8  C   UNL d   1      32.726  23.150 -21.177  0.00  0.00     0.002 A 
ATOM      9  C   UNL d   1      32.317  22.784 -20.561  0.00  0.00     0.002 A 
ENDROOT
BRANCH   2  10
ATOM     10  C   UNL d   1      33.033  19.754 -22.142  0.00  0.00     0.039 C 
BRANCH  10  11
ATOM     11  C   UNL d   1      33.087  19.500 -22.917  0.00  0.00     0.003 C 
BRANCH  11  12
ATOM     12  C   UNL d   1      32.926  18.709 -23.101  0.00  0.00     0.000 A 
ATOM     13  C   UNL d   1      33.241  18.096 -22.646  0.00  0.00     0.001 A 
ATOM     14  C   UNL d   1      33.066  17.321 -22.851  0.00  0.00     0.011 A 
ATOM     15  C   UNL d   1      32.593  17.147 -23.488  0.00  0.00     0.058 A 
ATOM     16  C   UNL d   1      32.279  17.761 -23.941  0.00  0.00     0.011 A 
ATOM     17 CL   UNL d   1      32.431  16.353 -23.673  0.00  0.00    -0.082 Cl
ATOM     18  C   UNL d   1      32.450  18.536 -23.741  0.00  0.00     0.001 A 
ENDBRANCH  11  12
ENDBRANCH  10  11
ENDBRANCH   2  10
TORSDOF 3
ENDMDL
MODEL 2
REMARK VINA RESULT:      -3.3      2.151      4.697
REMARK  3 active torsions:
REMARK  status: ('A' for Active; 'I' for Inactive)
REMARK    1  A    between atoms: C_6  and  C_2 
REMARK    2  A    between atoms: C_7  and  C_6 
REMARK    3  A    between atoms: C_8  and  C_7 
ROOT
ATOM      1  N   UNL d   1      33.136  19.953 -22.933  0.00  0.00    -0.225 NA
ATOM      2  C   UNL d   1      33.211  19.860 -22.093  0.00  0.00     0.163 A 
ATOM      3  N   UNL d   1      33.241  19.054 -21.934  0.00  0.00    -0.225 NA
ATOM      4  C   UNL d   1      33.122  19.213 -23.259  0.00  0.00     0.101 A 
ATOM      5  C   UNL d   1      33.187  18.623 -22.646  0.00  0.00     0.101 A 
ATOM      6  C   UNL d   1      33.058  18.934 -24.060  0.00  0.00     0.021 A 
ATOM      7  C   UNL d   1      33.188  17.816 -22.817  0.00  0.00     0.021 A 
ATOM      8  C   UNL d   1      33.127  17.580 -23.579  0.00  0.00     0.002 A 
ATOM      9  C   UNL d   1      33.063  18.131 -24.191  0.00  0.00     0.002 A 
ENDROOT
BRANCH   2  10
ATOM     10  C   UNL d   1      33.228  20.601 -21.727  0.00  0.00     0.039 C 
BRANCH  10  11
ATOM     11  C   UNL d   1      32.611  20.824 -21.238  0.00  0.00     0.003 C 
BRANCH  11  12
ATOM     12  C   UNL d   1      32.653  21.542 -20.829  0.00  0.00     0.000 A 
ATOM     13  C   UNL d   1      33.222  21.663 -20.243  0.00  0.00     0.001 A 
ATOM     14  C   UNL d   1      33.241  22.384 -19.852  0.00  0.00     0.011 A 
ATOM     15  C   UNL d   1      32.714  22.977 -20.030  0.00  0.00     0.058 A 
ATOM     16  C   UNL d   1      32.146  22.854 -20.616  0.00  0.00     0.011 A 
ATOM     17 CL   UNL d   1      32.756  23.698 -19.619  0.00  0.00    -0.082 Cl
ATOM     18  C   UNL d   1      32.123  22.136 -21.008  0.00  0.00     0.001 A 
ENDBRANCH  11  12
ENDBRANCH  10  11
ENDBRANCH   2  10
TORSDOF 3
ENDMDL
MODEL 3
REMARK VINA RESULT:      -1.9      2.963      4.356
REMARK  3 active torsions:
REMARK  status: ('A' for Active; 'I' for Inactive)
REMARK    1  A    between atoms: C_6  and  C_2 
REMARK    2  A    between atoms: C_7  and  C_6 
REMARK    3  A    between atoms: C_8  and  C_7 
ROOT
ATOM      1  N   UNL d   1      31.988  17.795 -23.460  0.00  0.00    -0.225 NA
ATOM      2  C   UNL d   1      31.687  17.371 -24.130  0.00  0.00     0.163 A 
ATOM      3  N   UNL d   1      31.952  17.755 -24.807  0.00  0.00    -0.225 NA
ATOM      4  C   UNL d   1      32.422  18.417 -23.742  0.00  0.00     0.101 A 
ATOM      5  C   UNL d   1      32.416  18.415 -24.594  0.00  0.00     0.101 A 
ATOM      6  C   UNL d   1      32.860  19.038 -23.359  0.00  0.00     0.021 A 
ATOM      7  C   UNL d   1      32.815  18.988 -25.035  0.00  0.00     0.021 A 
ATOM      8  C   UNL d   1      33.219  19.560 -24.651  0.00  0.00     0.002 A 
ATOM      9  C   UNL d   1      33.241  19.585 -23.825  0.00  0.00     0.002 A 
ENDROOT
BRANCH   2  10
ATOM     10  C   UNL d   1      31.236  16.727 -23.877  0.00  0.00     0.039 C 
BRANCH  10  11
ATOM     11  C   UNL d   1      30.631  16.447 -24.350  0.00  0.00     0.003 C 
BRANCH  11  12
ATOM     12  C   UNL d   1      29.916  16.212 -24.004  0.00  0.00     0.000 A 
ATOM     13  C   UNL d   1      29.195  16.492 -24.292  0.00  0.00     0.001 A 
ATOM     14  C   UNL d   1      28.501  16.243 -23.930  0.00  0.00     0.011 A 
ATOM     15  C   UNL d   1      28.512  15.731 -23.300  0.00  0.00     0.058 A 
ATOM     16  C   UNL d   1      29.234  15.453 -23.014  0.00  0.00     0.011 A 
ATOM     17 CL   UNL d   1      27.795  15.495 -22.952  0.00  0.00    -0.082 Cl
ATOM     18  C   UNL d   1      29.929  15.698 -23.371  0.00  0.00     0.001 A 
ENDBRANCH  11  12
ENDBRANCH  10  11
ENDBRANCH   2  10
TORSDOF 3
ENDMDL
MODEL 4
REMARK VINA RESULT:      -1.6      3.212      5.369
REMARK  3 active torsions:
REMARK  status: ('A' for Active; 'I' for Inactive)
REMARK    1  A    between atoms: C_6  and  C_2 
REMARK    2  A    between atoms: C_7  and  C_6 
REMARK    3  A    between atoms: C_8  and  C_7 
ROOT
ATOM      1  N   UNL d   1      29.795  17.159 -24.265  0.00  0.00    -0.225 NA
ATOM      2  C   UNL d   1      30.543  16.777 -24.151  0.00  0.00     0.163 A 
ATOM      3  N   UNL d   1      30.411  16.096 -23.711  0.00  0.00    -0.225 NA
ATOM      4  C   UNL d   1      29.233  16.708 -23.897  0.00  0.00     0.101 A 
ATOM      5  C   UNL d   1      29.597  16.026 -23.537  0.00  0.00     0.101 A 
ATOM      6  C   UNL d   1      28.391  16.789 -23.810  0.00  0.00     0.021 A 
ATOM      7  C   UNL d   1      29.157  15.466 -23.121  0.00  0.00     0.021 A 
ATOM      8  C   UNL d   1      28.367  15.565 -23.054  0.00  0.00     0.002 A 
ATOM      9  C   UNL d   1      27.989  16.216 -23.394  0.00  0.00     0.002 A 
ENDROOT
BRANCH   2  10
ATOM     10  C   UNL d   1      31.142  17.214 -24.516  0.00  0.00     0.039 C 
BRANCH  10  11
ATOM     11  C   UNL d   1      31.848  17.338 -24.123  0.00  0.00     0.003 C 
BRANCH  11  12
ATOM     12  C   UNL d   1      32.196  18.089 -24.136  0.00  0.00     0.000 A 
ATOM     13  C   UNL d   1      32.305  18.494 -24.847  0.00  0.00     0.001 A 
ATOM     14  C   UNL d   1      32.653  19.237 -24.831  0.00  0.00     0.011 A 
ATOM     15  C   UNL d   1      32.891  19.579 -24.133  0.00  0.00     0.058 A 
ATOM     16  C   UNL d   1      32.781  19.173 -23.423  0.00  0.00     0.011 A 
ATOM     17 CL   UNL d   1      33.241  20.333 -24.145  0.00  0.00    -0.082 Cl
ATOM     18  C   UNL d   1      32.434  18.431 -23.434  0.00  0.00     0.001 A 
ENDBRANCH  11  12
ENDBRANCH  10  11
ENDBRANCH   2  10
TORSDOF 3
ENDMDL
MODEL 5
REMARK VINA RESULT:      -1.4      3.615      5.047
REMARK  3 active torsions:
REMARK  status: ('A' for Active; 'I' for Inactive)
REMARK    1  A    between atoms: C_6  and  C_2 
REMARK    2  A    between atoms: C_7  and  C_6 
REMARK    3  A    between atoms: C_8  and  C_7 
ROOT
ATOM      1  N   UNL d   1      31.026  17.815 -24.796  0.00  0.00    -0.225 NA
ATOM      2  C   UNL d   1      30.798  17.303 -24.160  0.00  0.00     0.163 A 
ATOM      3  N   UNL d   1      31.412  17.296 -23.613  0.00  0.00    -0.225 NA
ATOM      4  C   UNL d   1      31.762  18.102 -24.624  0.00  0.00     0.101 A 
ATOM      5  C   UNL d   1      32.031  17.789 -23.878  0.00  0.00     0.101 A 
ATOM      6  C   UNL d   1      32.287  18.633 -25.033  0.00  0.00     0.021 A 
ATOM      7  C   UNL d   1      32.767  17.988 -23.562  0.00  0.00     0.021 A 
ATOM      8  C   UNL d   1      33.241  18.489 -23.966  0.00  0.00     0.002 A 
ATOM      9  C   UNL d   1      33.004  18.806 -24.691  0.00  0.00     0.002 A 
ENDROOT
BRANCH   2  10
ATOM     10  C   UNL d   1      30.047  16.990 -24.304  0.00  0.00     0.039 C 
BRANCH  10  11
ATOM     11  C   UNL d   1      29.866  16.238 -24.041  0.00  0.00     0.003 C 
BRANCH  11  12
ATOM     12  C   UNL d   1      29.080  16.043 -23.868  0.00  0.00     0.000 A 
ATOM     13  C   UNL d   1      28.784  16.119 -23.100  0.00  0.00     0.001 A 
ATOM     14  C   UNL d   1      28.002  15.918 -22.956  0.00  0.00     0.011 A 
ATOM     15  C   UNL d   1      27.516  15.649 -23.550  0.00  0.00     0.058 A 
ATOM     16  C   UNL d   1      27.814  15.574 -24.316  0.00  0.00     0.011 A 
ATOM     17 CL   UNL d   1      26.728  15.453 -23.376  0.00  0.00    -0.082 Cl
ATOM     18  C   UNL d   1      28.594  15.772 -24.465  0.00  0.00     0.001 A 
ENDBRANCH  11  12
ENDBRANCH  10  11
ENDBRANCH   2  10
TORSDOF 3
ENDMDL
MODEL 6
REMARK VINA RESULT:      -1.1      1.155      1.910
REMARK  3 active torsions:
REMARK  status: ('A' for Active; 'I' for Inactive)
REMARK    1  A    between atoms: C_6  and  C_2 
REMARK    2  A    between atoms: C_7  and  C_6 
REMARK    3  A    between atoms: C_8  and  C_7 
ROOT
ATOM      1  N   UNL d   1      32.844  22.247 -20.990  0.00  0.00    -0.225 NA
ATOM      2  C   UNL d   1      33.031  21.447 -20.778  0.00  0.00     0.163 A 
ATOM      3  N   UNL d   1      33.010  21.396 -19.957  0.00  0.00    -0.225 NA
ATOM      4  C   UNL d   1      32.715  22.656 -20.304  0.00  0.00     0.101 A 
ATOM      5  C   UNL d   1      32.814  22.140 -19.633  0.00  0.00     0.101 A 
ATOM      6  C   UNL d   1      32.509  23.466 -20.143  0.00  0.00     0.021 A 
ATOM      7  C   UNL d   1      32.716  22.408 -18.859  0.00  0.00     0.021 A 
ATOM      8  C   UNL d   1      32.523  23.174 -18.735  0.00  0.00     0.002 A 
ATOM      9  C   UNL d   1      32.421  23.695 -19.367  0.00  0.00     0.002 A 
ENDROOT
BRANCH   2  10
ATOM     10  C   UNL d   1      33.169  20.999 -21.458  0.00  0.00     0.039 C 
BRANCH  10  11
ATOM     11  C   UNL d   1      33.103  20.185 -21.425  0.00  0.00     0.003 C 
BRANCH  11  12
ATOM     12  C   UNL d   1      32.964  19.757 -22.120  0.00  0.00     0.000 A 
ATOM     13  C   UNL d   1      33.160  20.073 -22.858  0.00  0.00     0.001 A 
ATOM     14  C   UNL d   1      33.011  19.627 -23.530  0.00  0.00     0.011 A 
ATOM     15  C   UNL d   1      32.678  18.888 -23.485  0.00  0.00     0.058 A 
ATOM     16  C   UNL d   1      32.483  18.574 -22.747  0.00  0.00     0.011 A 
ATOM     17 CL   UNL d   1      32.538  18.458 -24.182  0.00  0.00    -0.082 Cl
ATOM     18  C   UNL d   1      32.629  19.015 -22.072  0.00  0.00     0.001 A 
ENDBRANCH  11  12
ENDBRANCH  10  11
ENDBRANCH   2  10
TORSDOF 3
ENDMDL
