MODEL 1
REMARK VINA RESULT:      53.8      0.000      0.000
REMARK  5 active torsions:
REMARK  status: ('A' for Active; 'I' for Inactive)
REMARK    1  A    between atoms: N_8  and  C_1 
REMARK    2  A    between atoms: C_3  and  S_13 
REMARK       I    between atoms: C_12  and  N_8 
REMARK    3  A    between atoms: C_16  and  C_9 
REMARK    4  A    between atoms: C_15  and  C_12 
REMARK    5  A    between atoms: S_13  and  C_15 
ROOT
ATOM      1  C   UNL d   1      60.045  49.031  50.088  0.00  0.00     0.100 C 
ENDROOT
BRANCH   1   2
ATOM      2  S   UNL d   1      59.575  49.695  49.943  0.00  0.00    -0.056 SA
BRANCH   2   3
ATOM      3  C   UNL d   1      58.760  49.606  49.911  0.00  0.00     0.141 A 
ATOM      4  N   UNL d   1      58.303  49.425  49.244  0.00  0.00    -0.232 NA
ATOM      5  C   UNL d   1      57.511  49.389  49.463  0.00  0.00     0.088 A 
ATOM      6  C   UNL d   1      56.813  49.233  49.044  0.00  0.00     0.020 A 
ATOM      7  C   UNL d   1      57.467  49.551  50.283  0.00  0.00     0.049 A 
ATOM      8  C   UNL d   1      56.085  49.238  49.431  0.00  0.00     0.002 A 
ATOM      9  C   UNL d   1      56.048  49.397  50.234  0.00  0.00     0.001 A 
ATOM     10  C   UNL d   1      56.746  49.556  50.667  0.00  0.00     0.008 A 
ATOM     11  S   UNL d   1      58.241  49.684  50.554  0.00  0.00    -0.060 SA
ENDBRANCH   2   3
ENDBRANCH   1   2
BRANCH   1  12
ATOM     12  C   UNL d   1      60.491  48.995  50.779  0.00  0.00     0.288 C 
ATOM     13  N   UNL d   1      61.011  49.607  50.967  0.00  0.00    -0.181 NA
ATOM     14  O   UNL d   1      60.423  48.353  51.285  0.00  0.00    -0.265 OA
BRANCH  13  15
ATOM     15  C   UNL d   1      61.458  49.578  51.653  0.00  0.00     0.219 A 
ATOM     16  S   UNL d   1      61.177  49.440  52.412  0.00  0.00    -0.026 SA
ATOM     17  C   UNL d   1      61.817  49.459  52.933  0.00  0.00     0.135 A 
ATOM     18  N   UNL d   1      62.498  49.610  52.488  0.00  0.00    -0.139 NA
ATOM     19  N   UNL d   1      62.276  49.684  51.698  0.00  0.00    -0.121 NA
BRANCH  17  20
ATOM     20  C   UNL d   1      61.791  49.348  53.749  0.00  0.00     0.028 C 
ATOM     21  C   UNL d   1      62.404  49.648  54.217  0.00  0.00     0.002 C 
ENDBRANCH  17  20
ENDBRANCH  13  15
ENDBRANCH   1  12
TORSDOF 5
ENDMDL
