MODEL 1
REMARK VINA RESULT:      36.3      0.000      0.000
REMARK  2 active torsions:
REMARK  status: ('A' for Active; 'I' for Inactive)
REMARK    1  A    between atoms: C_10  and  C_1 
REMARK    2  A    between atoms: N_6  and  C_10 
ROOT
ATOM      1  C   UNL d   1      45.830 -17.134  43.573  0.00  0.00     0.025 A 
ATOM      2  C   UNL d   1      46.031 -17.935  43.555  0.00  0.00     0.025 A 
ATOM      3  C   UNL d   1      46.238 -18.329  44.236  0.00  0.00     0.013 A 
ATOM      4  C   UNL d   1      46.018 -18.331  42.835  0.00  0.00     0.103 A 
ATOM      5  O   UNL d   1      45.810 -17.944  42.135  0.00  0.00    -0.273 OA
ATOM      6  C   UNL d   1      46.436 -19.119  44.212  0.00  0.00     0.058 A 
ATOM      7  C   UNL d   1      45.610 -17.143  42.163  0.00  0.00     0.300 A 
ATOM      8  C   UNL d   1      45.619 -16.737  42.876  0.00  0.00     0.070 A 
ATOM      9  C   UNL d   1      46.426 -19.524  43.493  0.00  0.00     0.013 A 
ATOM     10  C   UNL d   1      46.216 -19.125  42.804  0.00  0.00     0.026 A 
ATOM     11  O   UNL d   1      45.401 -16.750  41.473  0.00  0.00    -0.259 OA
ATOM     12 CL   UNL d   1      46.647 -19.519  44.905  0.00  0.00    -0.082 Cl
ATOM     13  C   UNL d   1      46.248 -17.924  44.955  0.00  0.00     0.001 C 
ATOM     14  C   UNL d   1      46.627 -20.329  43.468  0.00  0.00     0.001 C 
ENDROOT
BRANCH   1  15
ATOM     15  C   UNL d   1      45.840 -16.730  44.292  0.00  0.00     0.080 C 
BRANCH  15  16
ATOM     16  N   UNL d   1      45.753 -15.905  44.304  0.00  0.00    -0.304 N 
ATOM     17  C   UNL d   1      45.071 -15.568  44.624  0.00  0.00     0.064 A 
ATOM     18  C   UNL d   1      44.473 -16.043  44.934  0.00  0.00     0.019 C 
ATOM     19  C   UNL d   1      44.992 -14.751  44.633  0.00  0.00     0.018 A 
ATOM     20  C   UNL d   1      45.583 -14.271  44.326  0.00  0.00     0.003 A 
ATOM     21  C   UNL d   1      46.265 -14.609  44.006  0.00  0.00     0.019 A 
ATOM     22  C   UNL d   1      46.355 -15.426  43.992  0.00  0.00     0.080 A 
ENDBRANCH  15  16
ENDBRANCH   1  15
TORSDOF 2
ENDMDL
MODEL 2
REMARK VINA RESULT:      39.1      1.971      4.184
REMARK  2 active torsions:
REMARK  status: ('A' for Active; 'I' for Inactive)
REMARK    1  A    between atoms: C_10  and  C_1 
REMARK    2  A    between atoms: N_6  and  C_10 
ROOT
ATOM      1  C   UNL d   1      45.319 -15.772  44.225  0.00  0.00     0.025 A 
ATOM      2  C   UNL d   1      45.318 -14.948  44.269  0.00  0.00     0.025 A 
ATOM      3  C   UNL d   1      45.971 -14.517  44.045  0.00  0.00     0.013 A 
ATOM      4  C   UNL d   1      44.644 -14.566  44.543  0.00  0.00     0.103 A 
ATOM      5  O   UNL d   1      43.973 -14.990  44.774  0.00  0.00    -0.273 OA
ATOM      6  C   UNL d   1      45.964 -13.703  44.090  0.00  0.00     0.058 A 
ATOM      7  C   UNL d   1      43.983 -15.815  44.727  0.00  0.00     0.300 A 
ATOM      8  C   UNL d   1      44.651 -16.208  44.455  0.00  0.00     0.070 A 
ATOM      9  C   UNL d   1      45.291 -13.313  44.364  0.00  0.00     0.013 A 
ATOM     10  C   UNL d   1      44.631 -13.749  44.590  0.00  0.00     0.026 A 
ATOM     11  O   UNL d   1      43.322 -16.245  44.954  0.00  0.00    -0.259 OA
ATOM     12 CL   UNL d   1      46.629 -13.266  43.862  0.00  0.00    -0.082 Cl
ATOM     13  C   UNL d   1      46.644 -14.908  43.771  0.00  0.00     0.001 C 
ATOM     14  C   UNL d   1      45.283 -12.484  44.410  0.00  0.00     0.001 C 
ENDROOT
BRANCH   1  15
ATOM     15  C   UNL d   1      45.992 -16.163  43.951  0.00  0.00     0.080 C 
BRANCH  15  16
ATOM     16  N   UNL d   1      46.072 -16.981  44.067  0.00  0.00    -0.304 N 
ATOM     17  C   UNL d   1      46.118 -17.486  43.417  0.00  0.00     0.064 A 
ATOM     18  C   UNL d   1      46.085 -17.187  42.649  0.00  0.00     0.019 C 
ATOM     19  C   UNL d   1      46.197 -18.294  43.540  0.00  0.00     0.018 A 
ATOM     20  C   UNL d   1      46.231 -18.599  44.302  0.00  0.00     0.003 A 
ATOM     21  C   UNL d   1      46.185 -18.093  44.952  0.00  0.00     0.019 A 
ATOM     22  C   UNL d   1      46.106 -17.282  44.841  0.00  0.00     0.080 A 
ENDBRANCH  15  16
ENDBRANCH   1  15
TORSDOF 2
ENDMDL
