MODEL 1
REMARK VINA RESULT:      17.1      0.000      0.000
REMARK  3 active torsions:
REMARK  status: ('A' for Active; 'I' for Inactive)
REMARK    1  A    between atoms: C_6  and  C_1 
REMARK    2  A    between atoms: C_7  and  C_5 
REMARK    3  A    between atoms: C_15  and  C_14 
ROOT
ATOM      1  C   UNL d   1      60.634  49.555  51.739  0.00  0.00     0.169 A 
ATOM      2  C   UNL d   1      59.926  49.514  52.078  0.00  0.00     0.048 A 
ATOM      3  N   UNL d   1      60.045  49.669  50.530  0.00  0.00    -0.148 NA
ATOM      4  N   UNL d   1      60.696  49.634  50.956  0.00  0.00    -0.142 NA
ATOM      5  C   UNL d   1      59.332  49.628  50.867  0.00  0.00     0.105 A 
ENDROOT
BRANCH   5   6
ATOM      6  C   UNL d   1      58.565  49.647  50.588  0.00  0.00     0.019 A 
ATOM      7  C   UNL d   1      57.934  49.660  51.129  0.00  0.00     0.002 A 
ATOM      8  C   UNL d   1      57.164  49.680  50.856  0.00  0.00     0.000 A 
ATOM      9  C   UNL d   1      57.008  49.685  50.046  0.00  0.00     0.000 A 
ATOM     10  C   UNL d   1      57.640  49.672  49.505  0.00  0.00     0.000 A 
ATOM     11  C   UNL d   1      58.416  49.652  49.784  0.00  0.00     0.002 A 
BRANCH   9  12
ATOM     12  C   UNL d   1      56.210  49.705  49.764  0.00  0.00     0.000 C 
ATOM     13  C   UNL d   1      56.055  49.698  48.935  0.00  0.00     0.000 C 
ENDBRANCH   9  12
ENDBRANCH   5   6
BRANCH   1  14
ATOM     14  C   UNL d   1      61.275  49.518  52.186  0.00  0.00     0.231 C 
ATOM     15  O   UNL d   1      61.966  49.317  51.860  0.00  0.00    -0.643 OA
ATOM     16  O   UNL d   1      61.233  49.680  52.957  0.00  0.00    -0.643 OA
ENDBRANCH   1  14
TORSDOF 3
ENDMDL
