MODEL 1
REMARK VINA RESULT:      -7.4      0.000      0.000
REMARK  7 active torsions:
REMARK  status: ('A' for Active; 'I' for Inactive)
REMARK    1  A    between atoms: C_2  and  S_1 
REMARK    2  A    between atoms: N_6  and  S_1 
REMARK    3  A    between atoms: C_14  and  C_4 
REMARK    4  A    between atoms: O_15  and  C_5 
REMARK    5  A    between atoms: C_12  and  N_6 
REMARK    6  A    between atoms: C_13  and  C_12 
REMARK    7  A    between atoms: C_20  and  O_15 
ROOT
ATOM      1  C   UNL d   1      52.026  33.469  53.182  0.00  0.00     0.128 A 
ATOM      2  C   UNL d   1      52.060  32.670  52.978  0.00  0.00     0.015 A 
ATOM      3  C   UNL d   1      52.681  32.202  53.244  0.00  0.00     0.001 A 
ATOM      4  C   UNL d   1      52.617  33.796  53.656  0.00  0.00     0.112 A 
ATOM      5  C   UNL d   1      53.272  32.529  53.718  0.00  0.00     0.002 A 
ATOM      6  C   UNL d   1      53.238  33.328  53.923  0.00  0.00     0.025 A 
ATOM      7  C   UNL d   1      53.896  32.059  53.986  0.00  0.00     0.000 C 
ENDROOT
BRANCH   1   8
ATOM      8  S   UNL d   1      51.402  33.939  52.914  0.00  0.00     0.287 S 
ATOM      9  O   UNL d   1      50.956  33.726  53.578  0.00  0.00    -0.198 OA
ATOM     10  O   UNL d   1      51.847  34.151  52.250  0.00  0.00    -0.198 OA
BRANCH   8  11
ATOM     11  N   UNL d   1      50.777  34.409  52.646  0.00  0.00    -0.155 NA
BRANCH  11  12
ATOM     12  C   UNL d   1      50.017  34.094  52.589  0.00  0.00     0.131 C 
BRANCH  12  13
ATOM     13  C   UNL d   1      49.397  34.557  52.297  0.00  0.00     0.101 A 
ATOM     14  N   UNL d   1      49.043  35.114  52.786  0.00  0.00    -0.242 NA
ATOM     15  C   UNL d   1      48.426  35.579  52.503  0.00  0.00     0.099 A 
ATOM     16  C   UNL d   1      48.164  35.479  51.717  0.00  0.00     0.021 A 
ATOM     17  C   UNL d   1      48.524  34.917  51.232  0.00  0.00     0.003 A 
ATOM     18  C   UNL d   1      49.138  34.458  51.521  0.00  0.00     0.021 A 
ENDBRANCH  12  13
ENDBRANCH  11  12
ENDBRANCH   8  11
ENDBRANCH   1   8
BRANCH   4  19
ATOM     19  O   UNL d   1      52.584  34.598  53.863  0.00  0.00    -0.304 OA
BRANCH  19  20
ATOM     20  C   UNL d   1      53.149  34.915  54.374  0.00  0.00     0.123 C 
ATOM     21  C   UNL d   1      53.134  35.726  54.561  0.00  0.00     0.029 C 
ENDBRANCH  19  20
ENDBRANCH   4  19
BRANCH   3  22
ATOM     22  C   UNL d   1      52.715  31.403  53.040  0.00  0.00     0.000 C 
ATOM     23  C   UNL d   1      53.265  31.147  52.480  0.00  0.00     0.000 C 
ATOM     24  C   UNL d   1      52.201  30.862  53.393  0.00  0.00     0.000 C 
ENDBRANCH   3  22
TORSDOF 7
ENDMDL
MODEL 2
REMARK VINA RESULT:      -7.2      2.313      4.606
REMARK  7 active torsions:
REMARK  status: ('A' for Active; 'I' for Inactive)
REMARK    1  A    between atoms: C_2  and  S_1 
REMARK    2  A    between atoms: N_6  and  S_1 
REMARK    3  A    between atoms: C_14  and  C_4 
REMARK    4  A    between atoms: O_15  and  C_5 
REMARK    5  A    between atoms: C_12  and  N_6 
REMARK    6  A    between atoms: C_13  and  C_12 
REMARK    7  A    between atoms: C_20  and  O_15 
ROOT
ATOM      1  C   UNL d   1      53.112  32.930  53.635  0.00  0.00     0.128 A 
ATOM      2  C   UNL d   1      52.446  33.123  53.187  0.00  0.00     0.015 A 
ATOM      3  C   UNL d   1      52.227  33.910  53.093  0.00  0.00     0.001 A 
ATOM      4  C   UNL d   1      53.556  33.528  53.989  0.00  0.00     0.112 A 
ATOM      5  C   UNL d   1      52.671  34.508  53.447  0.00  0.00     0.002 A 
ATOM      6  C   UNL d   1      53.337  34.315  53.895  0.00  0.00     0.025 A 
ATOM      7  C   UNL d   1      52.451  35.299  53.352  0.00  0.00     0.000 C 
ENDROOT
BRANCH   1   8
ATOM      8  S   UNL d   1      53.332  32.139  53.730  0.00  0.00     0.287 S 
ATOM      9  O   UNL d   1      52.917  32.109  54.444  0.00  0.00    -0.198 OA
ATOM     10  O   UNL d   1      53.747  32.169  53.015  0.00  0.00    -0.198 OA
BRANCH   8  11
ATOM     11  N   UNL d   1      53.553  31.348  53.824  0.00  0.00    -0.155 NA
BRANCH  11  12
ATOM     12  C   UNL d   1      52.978  30.756  53.826  0.00  0.00     0.131 C 
BRANCH  12  13
ATOM     13  C   UNL d   1      53.172  29.991  54.075  0.00  0.00     0.101 A 
ATOM     14  N   UNL d   1      53.083  29.788  54.865  0.00  0.00    -0.242 NA
ATOM     15  C   UNL d   1      53.274  29.029  55.120  0.00  0.00     0.099 A 
ATOM     16  C   UNL d   1      53.557  28.471  54.569  0.00  0.00     0.021 A 
ATOM     17  C   UNL d   1      53.643  28.681  53.776  0.00  0.00     0.003 A 
ATOM     18  C   UNL d   1      53.451  29.439  53.530  0.00  0.00     0.021 A 
ENDBRANCH  12  13
ENDBRANCH  11  12
ENDBRANCH   8  11
ENDBRANCH   1   8
BRANCH   4  19
ATOM     19  O   UNL d   1      54.224  33.336  54.440  0.00  0.00    -0.304 OA
BRANCH  19  20
ATOM     20  C   UNL d   1      54.621  33.925  54.860  0.00  0.00     0.123 C 
ATOM     21  C   UNL d   1      55.327  33.746  55.263  0.00  0.00     0.029 C 
ENDBRANCH  19  20
ENDBRANCH   4  19
BRANCH   3  22
ATOM     22  C   UNL d   1      51.562  34.103  52.645  0.00  0.00     0.000 C 
ATOM     23  C   UNL d   1      50.821  34.143  53.006  0.00  0.00     0.000 C 
ATOM     24  C   UNL d   1      51.637  34.256  51.836  0.00  0.00     0.000 C 
ENDBRANCH   3  22
TORSDOF 7
ENDMDL
MODEL 3
REMARK VINA RESULT:      -7.0      0.993      2.336
REMARK  7 active torsions:
REMARK  status: ('A' for Active; 'I' for Inactive)
REMARK    1  A    between atoms: C_2  and  S_1 
REMARK    2  A    between atoms: N_6  and  S_1 
REMARK    3  A    between atoms: C_14  and  C_4 
REMARK    4  A    between atoms: O_15  and  C_5 
REMARK    5  A    between atoms: C_12  and  N_6 
REMARK    6  A    between atoms: C_13  and  C_12 
REMARK    7  A    between atoms: C_20  and  O_15 
ROOT
ATOM      1  C   UNL d   1      52.588  33.212  53.587  0.00  0.00     0.128 A 
ATOM      2  C   UNL d   1      52.922  33.810  54.048  0.00  0.00     0.015 A 
ATOM      3  C   UNL d   1      53.591  33.657  54.500  0.00  0.00     0.001 A 
ATOM      4  C   UNL d   1      52.928  32.460  53.582  0.00  0.00     0.112 A 
ATOM      5  C   UNL d   1      53.931  32.905  54.495  0.00  0.00     0.002 A 
ATOM      6  C   UNL d   1      53.598  32.307  54.034  0.00  0.00     0.025 A 
ATOM      7  C   UNL d   1      54.604  32.751  54.949  0.00  0.00     0.000 C 
ENDROOT
BRANCH   1   8
ATOM      8  S   UNL d   1      51.916  33.365  53.133  0.00  0.00     0.287 S 
ATOM      9  O   UNL d   1      51.436  33.116  53.759  0.00  0.00    -0.198 OA
ATOM     10  O   UNL d   1      52.395  33.615  52.507  0.00  0.00    -0.198 OA
BRANCH   8  11
ATOM     11  N   UNL d   1      51.242  33.519  52.678  0.00  0.00    -0.155 NA
BRANCH  11  12
ATOM     12  C   UNL d   1      50.954  34.290  52.614  0.00  0.00     0.131 C 
BRANCH  12  13
ATOM     13  C   UNL d   1      50.219  34.429  52.262  0.00  0.00     0.101 A 
ATOM     14  N   UNL d   1      49.616  34.769  52.703  0.00  0.00    -0.242 NA
ATOM     15  C   UNL d   1      48.882  34.911  52.359  0.00  0.00     0.099 A 
ATOM     16  C   UNL d   1      48.757  34.706  51.561  0.00  0.00     0.021 A 
ATOM     17  C   UNL d   1      49.367  34.364  51.123  0.00  0.00     0.003 A 
ATOM     18  C   UNL d   1      50.095  34.226  51.472  0.00  0.00     0.021 A 
ENDBRANCH  12  13
ENDBRANCH  11  12
ENDBRANCH   8  11
ENDBRANCH   1   8
BRANCH   4  19
ATOM     19  O   UNL d   1      52.595  31.858  53.120  0.00  0.00    -0.304 OA
BRANCH  19  20
ATOM     20  C   UNL d   1      52.955  31.116  53.087  0.00  0.00     0.123 C 
ATOM     21  C   UNL d   1      52.547  30.469  52.758  0.00  0.00     0.029 C 
ENDBRANCH  19  20
ENDBRANCH   4  19
BRANCH   3  22
ATOM     22  C   UNL d   1      53.925  34.255  54.961  0.00  0.00     0.000 C 
ATOM     23  C   UNL d   1      54.723  34.444  54.872  0.00  0.00     0.000 C 
ATOM     24  C   UNL d   1      53.461  34.662  55.510  0.00  0.00     0.000 C 
ENDBRANCH   3  22
TORSDOF 7
ENDMDL
MODEL 4
REMARK VINA RESULT:      -6.5      1.838      4.404
REMARK  7 active torsions:
REMARK  status: ('A' for Active; 'I' for Inactive)
REMARK    1  A    between atoms: C_2  and  S_1 
REMARK    2  A    between atoms: N_6  and  S_1 
REMARK    3  A    between atoms: C_14  and  C_4 
REMARK    4  A    between atoms: O_15  and  C_5 
REMARK    5  A    between atoms: C_12  and  N_6 
REMARK    6  A    between atoms: C_13  and  C_12 
REMARK    7  A    between atoms: C_20  and  O_15 
ROOT
ATOM      1  C   UNL d   1      52.758  33.321  53.504  0.00  0.00     0.128 A 
ATOM      2  C   UNL d   1      53.270  33.520  54.119  0.00  0.00     0.015 A 
ATOM      3  C   UNL d   1      53.357  34.305  54.347  0.00  0.00     0.001 A 
ATOM      4  C   UNL d   1      52.331  33.913  53.118  0.00  0.00     0.112 A 
ATOM      5  C   UNL d   1      52.931  34.897  53.961  0.00  0.00     0.002 A 
ATOM      6  C   UNL d   1      52.418  34.699  53.346  0.00  0.00     0.025 A 
ATOM      7  C   UNL d   1      53.017  35.686  54.190  0.00  0.00     0.000 C 
ENDROOT
BRANCH   1   8
ATOM      8  S   UNL d   1      52.671  32.532  53.275  0.00  0.00     0.287 S 
ATOM      9  O   UNL d   1      52.042  32.448  53.805  0.00  0.00    -0.198 OA
ATOM     10  O   UNL d   1      53.300  32.617  52.745  0.00  0.00    -0.198 OA
BRANCH   8  11
ATOM     11  N   UNL d   1      52.584  31.742  53.046  0.00  0.00    -0.155 NA
BRANCH  11  12
ATOM     12  C   UNL d   1      53.219  31.221  53.114  0.00  0.00     0.131 C 
BRANCH  12  13
ATOM     13  C   UNL d   1      53.085  30.427  53.302  0.00  0.00     0.101 A 
ATOM     14  N   UNL d   1      52.542  29.993  52.865  0.00  0.00    -0.242 NA
ATOM     15  C   UNL d   1      52.402  29.203  53.047  0.00  0.00     0.099 A 
ATOM     16  C   UNL d   1      52.817  28.848  53.677  0.00  0.00     0.021 A 
ATOM     17  C   UNL d   1      53.362  29.289  54.112  0.00  0.00     0.003 A 
ATOM     18  C   UNL d   1      53.495  30.075  53.926  0.00  0.00     0.021 A 
ENDBRANCH  12  13
ENDBRANCH  11  12
ENDBRANCH   8  11
ENDBRANCH   1   8
BRANCH   4  19
ATOM     19  O   UNL d   1      51.816  33.716  52.500  0.00  0.00    -0.304 OA
BRANCH  19  20
ATOM     20  C   UNL d   1      51.379  34.306  52.123  0.00  0.00     0.123 C 
ATOM     21  C   UNL d   1      50.749  34.102  51.620  0.00  0.00     0.029 C 
ENDBRANCH  19  20
ENDBRANCH   4  19
BRANCH   3  22
ATOM     22  C   UNL d   1      53.870  34.504  54.962  0.00  0.00     0.000 C 
ATOM     23  C   UNL d   1      53.570  34.846  55.651  0.00  0.00     0.000 C 
ATOM     24  C   UNL d   1      54.680  34.361  54.889  0.00  0.00     0.000 C 
ENDBRANCH   3  22
TORSDOF 7
ENDMDL
