MODEL 1
REMARK VINA RESULT:      56.3      0.000      0.000
REMARK  4 active torsions:
REMARK  status: ('A' for Active; 'I' for Inactive)
REMARK    1  A    between atoms: C_3  and  C_2 
REMARK    2  A    between atoms: C_14  and  C_12 
REMARK    3  A    between atoms: C_15  and  C_14 
REMARK    4  A    between atoms: C_16  and  C_15 
ROOT
ATOM      1  N   UNL d   1      61.120  47.457  50.984  0.00  0.00    -0.244 NA
ATOM      2  C   UNL d   1      61.423  47.439  50.220  0.00  0.00     0.081 A 
ATOM      3  C   UNL d   1      61.471  48.187  49.764  0.00  0.00     0.019 A 
ATOM      4  C   UNL d   1      60.861  48.162  51.332  0.00  0.00     0.099 A 
ATOM      5  C   UNL d   1      61.212  48.892  50.112  0.00  0.00     0.003 A 
ATOM      6  C   UNL d   1      60.892  48.883  50.932  0.00  0.00     0.019 A 
ENDROOT
BRANCH   2   7
ATOM      7  C   UNL d   1      61.682  46.733  49.872  0.00  0.00     0.018 A 
ATOM      8  C   UNL d   1      61.284  46.019  49.984  0.00  0.00     0.002 A 
ATOM      9  C   UNL d   1      61.534  45.341  49.650  0.00  0.00     0.007 A 
ATOM     10  C   UNL d   1      62.211  45.295  49.162  0.00  0.00     0.035 A 
ATOM     11  C   UNL d   1      62.651  46.056  49.031  0.00  0.00     0.007 A 
ATOM     12 BR   UNL d   1      62.460  44.617  48.828  0.00  0.00    -0.049 Br
ATOM     13  C   UNL d   1      62.402  46.734  49.366  0.00  0.00     0.002 A 
ENDBRANCH   2   7
BRANCH   6  14
ATOM     14  C   UNL d   1      60.637  49.578  51.274  0.00  0.00     0.002 C 
BRANCH  14  15
ATOM     15  C   UNL d   1      59.857  49.687  51.466  0.00  0.00     0.000 C 
BRANCH  15  16
ATOM     16  C   UNL d   1      59.281  49.708  50.890  0.00  0.00     0.000 C 
ATOM     17  C   UNL d   1      58.510  49.706  51.098  0.00  0.00     0.000 C 
ENDBRANCH  15  16
ENDBRANCH  14  15
ENDBRANCH   6  14
TORSDOF 4
ENDMDL
