MODEL 1
REMARK VINA RESULT:      54.3      0.000      0.000
REMARK  4 active torsions:
REMARK  status: ('A' for Active; 'I' for Inactive)
REMARK    1  A    between atoms: N_2  and  S_1 
REMARK    2  A    between atoms: C_3  and  S_1 
REMARK    3  A    between atoms: C_5  and  N_4 
REMARK    4  A    between atoms: O_17  and  C_14 
ROOT
ATOM      1  N   UNL d   1     -56.209 -99.417 -44.301  0.00  0.00    -0.226 N 
ATOM      2  N   UNL d   1     -57.702 -99.155 -44.921  0.00  0.00    -0.299 N 
ATOM      3  C   UNL d   1     -56.879 -99.545 -43.830  0.00  0.00     0.111 A 
ATOM      4  C   UNL d   1     -56.289 -99.159 -45.078  0.00  0.00     0.111 A 
ATOM      5  C   UNL d   1     -57.629 -99.412 -44.147  0.00  0.00     0.100 A 
ATOM      6  C   UNL d   1     -57.042 -99.028 -45.388  0.00  0.00     0.100 A 
ENDROOT
BRANCH   1   7
ATOM      7  S   UNL d   1     -55.457 -99.549 -43.988  0.00  0.00     0.272 S 
ATOM      8  O   UNL d   1     -54.713 -99.676 -43.676  0.00  0.00    -0.200 OA
ATOM      9  O   UNL d   1     -55.523 -98.854 -43.548  0.00  0.00    -0.200 OA
BRANCH   7  10
ATOM     10  C   UNL d   1     -55.399-100.242 -44.430  0.00  0.00     0.106 A 
ATOM     11  C   UNL d   1     -55.273-100.969 -44.056  0.00  0.00     0.037 A 
ATOM     12  C   UNL d   1     -55.216-101.658 -44.505  0.00  0.00     0.095 A 
ATOM     13  C   UNL d   1     -55.285-101.622 -45.329  0.00  0.00     0.024 A 
ATOM     14  C   UNL d   1     -55.411-100.897 -45.699  0.00  0.00     0.003 A 
ATOM     15  C   UNL d   1     -55.468-100.207 -45.250  0.00  0.00     0.013 A 
BRANCH  12  16
ATOM     16  O   UNL d   1     -55.090-102.383 -44.135  0.00  0.00    -0.328 OA
ATOM     17  C   UNL d   1     -54.906-102.411 -43.332  0.00  0.00     0.181 C 
ENDBRANCH  12  16
ENDBRANCH   7  10
ENDBRANCH   1   7
BRANCH   2  18
ATOM     18  C   UNL d   1     -58.452 -99.022 -45.238  0.00  0.00     0.092 A 
ATOM     19  C   UNL d   1     -59.090 -98.899 -44.737  0.00  0.00     0.156 A 
ATOM     20  F   UNL d   1     -58.933 -98.916 -43.922  0.00  0.00    -0.203 F 
ATOM     21  C   UNL d   1     -59.846 -98.764 -45.042  0.00  0.00     0.031 A 
ATOM     22  C   UNL d   1     -59.954 -98.756 -45.867  0.00  0.00     0.002 A 
ATOM     23  C   UNL d   1     -59.310 -98.881 -46.371  0.00  0.00     0.002 A 
ATOM     24  C   UNL d   1     -58.560 -99.014 -46.054  0.00  0.00     0.020 A 
ENDBRANCH   2  18
TORSDOF 4
ENDMDL
