MODEL 1
REMARK VINA RESULT:      -8.0      0.000      0.000
REMARK  2 active torsions:
REMARK  status: ('A' for Active; 'I' for Inactive)
REMARK    1  A    between atoms: O_3  and  C_1 
REMARK    2  A    between atoms: C_2  and  O_3 
REMARK       I    between atoms: N_7  and  C_2 
ROOT
ATOM      1  C   UNL d   1     -48.831  13.563  22.098  0.00  0.00     0.133 A 
ATOM      2  C   UNL d   1     -49.204  14.221  22.459  0.00  0.00     0.106 A 
ATOM      3  C   UNL d   1     -49.938  14.466  22.190  0.00  0.00     0.030 A 
ATOM      4  C   UNL d   1     -49.200  13.168  21.478  0.00  0.00     0.083 A 
ATOM      5  C   UNL d   1     -50.315  14.077  21.571  0.00  0.00     0.060 A 
ATOM      6  C   UNL d   1     -49.941  13.419  21.210  0.00  0.00     0.025 A 
ATOM      7  N   UNL d   1     -48.824  14.611  23.081  0.00  0.00    -0.242 NA
ATOM      8 CL   UNL d   1     -48.832  12.521  21.123  0.00  0.00    -0.080 Cl
ATOM      9 CL   UNL d   1     -51.055  14.321  21.297  0.00  0.00    -0.082 Cl
ATOM     10  C   UNL d   1     -50.306  15.114  22.546  0.00  0.00     0.004 A 
ATOM     11  C   UNL d   1     -49.192  15.258  23.436  0.00  0.00     0.099 A 
ATOM     12  C   UNL d   1     -49.936  15.509  23.165  0.00  0.00     0.021 A 
ENDROOT
BRANCH   1  13
ATOM     13  O   UNL d   1     -48.081  13.302  22.363  0.00  0.00    -0.257 OA
BRANCH  13  14
ATOM     14  C   UNL d   1     -48.018  12.597  22.811  0.00  0.00     0.378 C 
ATOM     15  N   UNL d   1     -47.281  12.312  23.029  0.00  0.00    -0.252 N 
ATOM     16  C   UNL d   1     -47.224  11.615  23.471  0.00  0.00     0.085 A 
ATOM     17  C   UNL d   1     -46.596  12.717  22.810  0.00  0.00     0.085 A 
ATOM     18  C   UNL d   1     -46.485  11.326  23.692  0.00  0.00     0.019 A 
ATOM     19  C   UNL d   1     -45.800  11.731  23.473  0.00  0.00     0.003 A 
ATOM     20  C   UNL d   1     -45.859  12.423  23.034  0.00  0.00     0.019 A 
ATOM     21  O   UNL d   1     -48.712  12.186  23.033  0.00  0.00    -0.237 OA
ENDBRANCH  13  14
ENDBRANCH   1  13
TORSDOF 2
ENDMDL
MODEL 2
REMARK VINA RESULT:      -7.8      1.767      2.225
REMARK  2 active torsions:
REMARK  status: ('A' for Active; 'I' for Inactive)
REMARK    1  A    between atoms: O_3  and  C_1 
REMARK    2  A    between atoms: C_2  and  O_3 
REMARK       I    between atoms: N_7  and  C_2 
ROOT
ATOM      1  C   UNL d   1     -48.848  12.409  22.740  0.00  0.00     0.133 A 
ATOM      2  C   UNL d   1     -49.549  12.726  22.407  0.00  0.00     0.106 A 
ATOM      3  C   UNL d   1     -50.276  12.507  22.712  0.00  0.00     0.030 A 
ATOM      4  C   UNL d   1     -48.894  11.882  23.370  0.00  0.00     0.083 A 
ATOM      5  C   UNL d   1     -50.331  11.980  23.342  0.00  0.00     0.060 A 
ATOM      6  C   UNL d   1     -49.631  11.663  23.675  0.00  0.00     0.025 A 
ATOM      7  N   UNL d   1     -49.492  13.255  21.775  0.00  0.00    -0.242 NA
ATOM      8 CL   UNL d   1     -48.204  11.569  23.698  0.00  0.00    -0.080 Cl
ATOM      9 CL   UNL d   1     -51.064  11.757  23.653  0.00  0.00    -0.082 Cl
ATOM     10  C   UNL d   1     -50.966  12.820  22.384  0.00  0.00     0.004 A 
ATOM     11  C   UNL d   1     -50.181  13.567  21.447  0.00  0.00     0.099 A 
ATOM     12  C   UNL d   1     -50.921  13.347  21.754  0.00  0.00     0.021 A 
ENDROOT
BRANCH   1  13
ATOM     13  O   UNL d   1     -48.099  12.624  22.438  0.00  0.00    -0.257 OA
BRANCH  13  14
ATOM     14  C   UNL d   1     -47.648  13.218  22.820  0.00  0.00     0.378 C 
ATOM     15  N   UNL d   1     -46.864  13.339  22.612  0.00  0.00    -0.252 N 
ATOM     16  C   UNL d   1     -46.424  13.927  22.993  0.00  0.00     0.085 A 
ATOM     17  C   UNL d   1     -46.514  12.878  22.025  0.00  0.00     0.085 A 
ATOM     18  C   UNL d   1     -45.636  14.051  22.786  0.00  0.00     0.019 A 
ATOM     19  C   UNL d   1     -45.286  13.589  22.199  0.00  0.00     0.003 A 
ATOM     20  C   UNL d   1     -45.725  13.006  21.822  0.00  0.00     0.019 A 
ATOM     21  O   UNL d   1     -48.003  13.686  23.416  0.00  0.00    -0.237 OA
ENDBRANCH  13  14
ENDBRANCH   1  13
TORSDOF 2
ENDMDL
MODEL 3
REMARK VINA RESULT:      -7.3      1.213      1.798
REMARK  2 active torsions:
REMARK  status: ('A' for Active; 'I' for Inactive)
REMARK    1  A    between atoms: O_3  and  C_1 
REMARK    2  A    between atoms: C_2  and  O_3 
REMARK       I    between atoms: N_7  and  C_2 
ROOT
ATOM      1  C   UNL d   1     -48.815  14.155  22.313  0.00  0.00     0.133 A 
ATOM      2  C   UNL d   1     -49.498  13.748  22.049  0.00  0.00     0.106 A 
ATOM      3  C   UNL d   1     -50.236  14.084  22.158  0.00  0.00     0.030 A 
ATOM      4  C   UNL d   1     -48.888  14.887  22.680  0.00  0.00     0.083 A 
ATOM      5  C   UNL d   1     -50.319  14.816  22.523  0.00  0.00     0.060 A 
ATOM      6  C   UNL d   1     -49.636  15.224  22.788  0.00  0.00     0.025 A 
ATOM      7  N   UNL d   1     -49.413  13.012  21.681  0.00  0.00    -0.242 NA
ATOM      8 CL   UNL d   1     -48.216  15.288  22.941  0.00  0.00    -0.080 Cl
ATOM      9 CL   UNL d   1     -51.063  15.159  22.635  0.00  0.00    -0.082 Cl
ATOM     10  C   UNL d   1     -50.909  13.683  21.897  0.00  0.00     0.004 A 
ATOM     11  C   UNL d   1     -50.085  12.611  21.421  0.00  0.00     0.099 A 
ATOM     12  C   UNL d   1     -50.835  12.950  21.530  0.00  0.00     0.021 A 
ENDROOT
BRANCH   1  13
ATOM     13  O   UNL d   1     -48.054  13.822  22.208  0.00  0.00    -0.257 OA
BRANCH  13  14
ATOM     14  C   UNL d   1     -47.685  13.413  22.840  0.00  0.00     0.378 C 
ATOM     15  N   UNL d   1     -46.913  13.151  22.765  0.00  0.00    -0.252 N 
ATOM     16  C   UNL d   1     -46.553  12.747  23.392  0.00  0.00     0.085 A 
ATOM     17  C   UNL d   1     -46.493  13.286  22.068  0.00  0.00     0.085 A 
ATOM     18  C   UNL d   1     -45.776  12.482  23.320  0.00  0.00     0.019 A 
ATOM     19  C   UNL d   1     -45.356  12.618  22.623  0.00  0.00     0.003 A 
ATOM     20  C   UNL d   1     -45.715  13.019  22.002  0.00  0.00     0.019 A 
ATOM     21  O   UNL d   1     -48.112  13.276  23.547  0.00  0.00    -0.237 OA
ENDBRANCH  13  14
ENDBRANCH   1  13
TORSDOF 2
ENDMDL
MODEL 4
REMARK VINA RESULT:      -6.4      8.831     10.619
REMARK  2 active torsions:
REMARK  status: ('A' for Active; 'I' for Inactive)
REMARK    1  A    between atoms: O_3  and  C_1 
REMARK    2  A    between atoms: C_2  and  O_3 
REMARK       I    between atoms: N_7  and  C_2 
ROOT
ATOM      1  C   UNL d   1     -39.597  14.330  17.712  0.00  0.00     0.133 A 
ATOM      2  C   UNL d   1     -39.037  13.712  17.630  0.00  0.00     0.106 A 
ATOM      3  C   UNL d   1     -38.645  13.614  16.919  0.00  0.00     0.030 A 
ATOM      4  C   UNL d   1     -39.751  14.833  17.080  0.00  0.00     0.083 A 
ATOM      5  C   UNL d   1     -38.792  14.113  16.281  0.00  0.00     0.060 A 
ATOM      6  C   UNL d   1     -39.352  14.731  16.363  0.00  0.00     0.025 A 
ATOM      7  N   UNL d   1     -38.890  13.212  18.272  0.00  0.00    -0.242 NA
ATOM      8 CL   UNL d   1     -40.302  15.441  17.160  0.00  0.00    -0.080 Cl
ATOM      9 CL   UNL d   1     -38.398  14.017  15.560  0.00  0.00    -0.082 Cl
ATOM     10  C   UNL d   1     -38.093  13.006  16.838  0.00  0.00     0.004 A 
ATOM     11  C   UNL d   1     -38.339  12.604  18.192  0.00  0.00     0.099 A 
ATOM     12  C   UNL d   1     -37.940  12.503  17.470  0.00  0.00     0.021 A 
ENDROOT
BRANCH   1  13
ATOM     13  O   UNL d   1     -40.005  14.441  18.435  0.00  0.00    -0.257 OA
BRANCH  13  14
ATOM     14  C   UNL d   1     -39.782  15.063  18.950  0.00  0.00     0.378 C 
ATOM     15  N   UNL d   1     -40.143  15.143  19.681  0.00  0.00    -0.252 N 
ATOM     16  C   UNL d   1     -39.918  15.758  20.186  0.00  0.00     0.085 A 
ATOM     17  C   UNL d   1     -40.730  14.612  19.915  0.00  0.00     0.085 A 
ATOM     18  C   UNL d   1     -40.281  15.841  20.921  0.00  0.00     0.019 A 
ATOM     19  C   UNL d   1     -40.867  15.310  21.155  0.00  0.00     0.003 A 
ATOM     20  C   UNL d   1     -41.089  14.699  20.652  0.00  0.00     0.019 A 
ATOM     21  O   UNL d   1     -39.186  15.601  18.712  0.00  0.00    -0.237 OA
ENDBRANCH  13  14
ENDBRANCH   1  13
TORSDOF 2
ENDMDL
MODEL 5
REMARK VINA RESULT:      -6.3      1.362      2.184
REMARK  2 active torsions:
REMARK  status: ('A' for Active; 'I' for Inactive)
REMARK    1  A    between atoms: O_3  and  C_1 
REMARK    2  A    between atoms: C_2  and  O_3 
REMARK       I    between atoms: N_7  and  C_2 
ROOT
ATOM      1  C   UNL d   1     -47.706  13.396  22.772  0.00  0.00     0.133 A 
ATOM      2  C   UNL d   1     -48.395  13.180  22.347  0.00  0.00     0.106 A 
ATOM      3  C   UNL d   1     -48.892  13.764  22.058  0.00  0.00     0.030 A 
ATOM      4  C   UNL d   1     -47.532  14.190  22.898  0.00  0.00     0.083 A 
ATOM      5  C   UNL d   1     -48.725  14.561  22.180  0.00  0.00     0.060 A 
ATOM      6  C   UNL d   1     -48.036  14.777  22.605  0.00  0.00     0.025 A 
ATOM      7  N   UNL d   1     -48.561  12.380  22.226  0.00  0.00    -0.242 NA
ATOM      8 CL   UNL d   1     -46.854  14.403  23.317  0.00  0.00    -0.080 Cl
ATOM      9 CL   UNL d   1     -49.223  15.153  21.890  0.00  0.00    -0.082 Cl
ATOM     10  C   UNL d   1     -49.570  13.551  21.639  0.00  0.00     0.004 A 
ATOM     11  C   UNL d   1     -49.239  12.167  21.807  0.00  0.00     0.099 A 
ATOM     12  C   UNL d   1     -49.744  12.757  21.514  0.00  0.00     0.021 A 
ENDROOT
BRANCH   1  13
ATOM     13  O   UNL d   1     -47.191  12.809  23.072  0.00  0.00    -0.257 OA
BRANCH  13  14
ATOM     14  C   UNL d   1     -46.407  12.753  22.781  0.00  0.00     0.378 C 
ATOM     15  N   UNL d   1     -45.934  12.117  22.992  0.00  0.00    -0.252 N 
ATOM     16  C   UNL d   1     -45.161  12.066  22.702  0.00  0.00     0.085 A 
ATOM     17  C   UNL d   1     -46.226  11.529  23.491  0.00  0.00     0.085 A 
ATOM     18  C   UNL d   1     -44.683  11.428  22.912  0.00  0.00     0.019 A 
ATOM     19  C   UNL d   1     -44.975  10.840  23.411  0.00  0.00     0.003 A 
ATOM     20  C   UNL d   1     -45.743  10.893  23.698  0.00  0.00     0.019 A 
ATOM     21  O   UNL d   1     -46.111  13.349  22.275  0.00  0.00    -0.237 OA
ENDBRANCH  13  14
ENDBRANCH   1  13
TORSDOF 2
ENDMDL
MODEL 6
REMARK VINA RESULT:      -6.1      9.047      9.811
REMARK  2 active torsions:
REMARK  status: ('A' for Active; 'I' for Inactive)
REMARK    1  A    between atoms: O_3  and  C_1 
REMARK    2  A    between atoms: C_2  and  O_3 
REMARK       I    between atoms: N_7  and  C_2 
ROOT
ATOM      1  C   UNL d   1     -40.132  14.880  19.214  0.00  0.00     0.133 A 
ATOM      2  C   UNL d   1     -39.830  14.503  18.530  0.00  0.00     0.106 A 
ATOM      3  C   UNL d   1     -40.024  14.792  17.789  0.00  0.00     0.030 A 
ATOM      4  C   UNL d   1     -40.621  15.538  19.139  0.00  0.00     0.083 A 
ATOM      5  C   UNL d   1     -40.512  15.449  17.705  0.00  0.00     0.060 A 
ATOM      6  C   UNL d   1     -40.815  15.827  18.389  0.00  0.00     0.025 A 
ATOM      7  N   UNL d   1     -39.339  13.843  18.616  0.00  0.00    -0.242 NA
ATOM      8 CL   UNL d   1     -40.919  15.910  19.813  0.00  0.00    -0.080 Cl
ATOM      9 CL   UNL d   1     -40.711  15.745  16.959  0.00  0.00    -0.082 Cl
ATOM     10  C   UNL d   1     -39.726  14.420  17.115  0.00  0.00     0.004 A 
ATOM     11  C   UNL d   1     -39.041  13.471  17.942  0.00  0.00     0.099 A 
ATOM     12  C   UNL d   1     -39.237  13.763  17.190  0.00  0.00     0.021 A 
ENDROOT
BRANCH   1  13
ATOM     13  O   UNL d   1     -39.941  14.594  19.977  0.00  0.00    -0.257 OA
BRANCH  13  14
ATOM     14  C   UNL d   1     -39.369  14.993  20.442  0.00  0.00     0.378 C 
ATOM     15  N   UNL d   1     -39.162  14.701  21.179  0.00  0.00    -0.252 N 
ATOM     16  C   UNL d   1     -38.596  15.098  21.634  0.00  0.00     0.085 A 
ATOM     17  C   UNL d   1     -39.514  14.014  21.469  0.00  0.00     0.085 A 
ATOM     18  C   UNL d   1     -38.386  14.807  22.375  0.00  0.00     0.019 A 
ATOM     19  C   UNL d   1     -38.738  14.120  22.665  0.00  0.00     0.003 A 
ATOM     20  C   UNL d   1     -39.299  13.727  22.212  0.00  0.00     0.019 A 
ATOM     21  O   UNL d   1     -39.012  15.690  20.148  0.00  0.00    -0.237 OA
ENDBRANCH  13  14
ENDBRANCH   1  13
TORSDOF 2
ENDMDL
MODEL 7
REMARK VINA RESULT:      -5.8      8.749     10.116
REMARK  2 active torsions:
REMARK  status: ('A' for Active; 'I' for Inactive)
REMARK    1  A    between atoms: O_3  and  C_1 
REMARK    2  A    between atoms: C_2  and  O_3 
REMARK       I    between atoms: N_7  and  C_2 
ROOT
ATOM      1  C   UNL d   1     -39.908  15.455  19.172  0.00  0.00     0.133 A 
ATOM      2  C   UNL d   1     -39.661  15.307  19.959  0.00  0.00     0.106 A 
ATOM      3  C   UNL d   1     -40.173  15.463  20.579  0.00  0.00     0.030 A 
ATOM      4  C   UNL d   1     -40.660  15.754  19.025  0.00  0.00     0.083 A 
ATOM      5  C   UNL d   1     -40.927  15.763  20.441  0.00  0.00     0.060 A 
ATOM      6  C   UNL d   1     -41.173  15.911  19.654  0.00  0.00     0.025 A 
ATOM      7  N   UNL d   1     -38.904  15.006  20.095  0.00  0.00    -0.242 NA
ATOM      8 CL   UNL d   1     -40.903  15.900  18.250  0.00  0.00    -0.080 Cl
ATOM      9 CL   UNL d   1     -41.446  15.922  21.064  0.00  0.00    -0.082 Cl
ATOM     10  C   UNL d   1     -39.930  15.318  21.354  0.00  0.00     0.004 A 
ATOM     11  C   UNL d   1     -38.661  14.861  20.870  0.00  0.00     0.099 A 
ATOM     12  C   UNL d   1     -39.178  15.018  21.501  0.00  0.00     0.021 A 
ENDROOT
BRANCH   1  13
ATOM     13  O   UNL d   1     -39.394  15.300  18.530  0.00  0.00    -0.257 OA
BRANCH  13  14
ATOM     14  C   UNL d   1     -39.513  14.620  18.054  0.00  0.00     0.378 C 
ATOM     15  N   UNL d   1     -39.029  14.480  17.407  0.00  0.00    -0.252 N 
ATOM     16  C   UNL d   1     -39.151  13.807  16.941  0.00  0.00     0.085 A 
ATOM     17  C   UNL d   1     -38.422  15.006  17.220  0.00  0.00     0.085 A 
ATOM     18  C   UNL d   1     -38.666  13.664  16.290  0.00  0.00     0.019 A 
ATOM     19  C   UNL d   1     -38.059  14.190  16.104  0.00  0.00     0.003 A 
ATOM     20  C   UNL d   1     -37.940  14.857  16.568  0.00  0.00     0.019 A 
ATOM     21  O   UNL d   1     -40.130  14.087  18.243  0.00  0.00    -0.237 OA
ENDBRANCH  13  14
ENDBRANCH   1  13
TORSDOF 2
ENDMDL
