MODEL 1
REMARK VINA RESULT:      50.0      0.000      0.000
REMARK  4 active torsions:
REMARK  status: ('A' for Active; 'I' for Inactive)
REMARK    1  A    between atoms: C_7  and  N_1 
REMARK    2  A    between atoms: C_10  and  C_5 
REMARK    3  A    between atoms: N_6  and  C_9 
REMARK    4  A    between atoms: O_18  and  C_13 
ROOT
ATOM      1  N   UNL d   1      57.862  49.350  50.630  0.00  0.00    -0.279 N 
ATOM      2  C   UNL d   1      57.684  49.592  51.399  0.00  0.00     0.206 A 
ATOM      3  N   UNL d   1      58.382  49.707  51.784  0.00  0.00    -0.217 NA
ATOM      4  C   UNL d   1      58.678  49.322  50.564  0.00  0.00     0.101 A 
ATOM      5  C   UNL d   1      58.974  49.544  51.278  0.00  0.00     0.101 A 
ATOM      6  S   UNL d   1      56.905  49.695  51.711  0.00  0.00    -0.038 SA
ENDROOT
BRANCH   5   7
ATOM      7  C   UNL d   1      59.781  49.572  51.390  0.00  0.00     0.019 A 
ATOM      8  C   UNL d   1      60.403  49.601  50.859  0.00  0.00     0.003 A 
ATOM      9  C   UNL d   1      61.196  49.628  51.133  0.00  0.00     0.024 A 
ATOM     10  C   UNL d   1      61.349  49.625  51.935  0.00  0.00     0.127 A 
ATOM     11  C   UNL d   1      60.708  49.596  52.476  0.00  0.00     0.024 A 
ATOM     12  C   UNL d   1      59.933  49.570  52.191  0.00  0.00     0.003 A 
BRANCH  10  13
ATOM     13  N   UNL d   1      62.129  49.651  52.207  0.00  0.00    -0.114 N 
ATOM     14  O   UNL d   1      62.284  49.681  53.007  0.00  0.00    -0.532 OA
ATOM     15  O   UNL d   1      62.754  49.647  51.663  0.00  0.00    -0.532 OA
ENDBRANCH  10  13
ENDBRANCH   5   7
BRANCH   1  16
ATOM     16  C   UNL d   1      57.256  49.181  50.078  0.00  0.00     0.088 A 
ATOM     17  C   UNL d   1      56.804  48.493  50.146  0.00  0.00     0.110 A 
ATOM     18  C   UNL d   1      56.222  48.337  49.611  0.00  0.00     0.026 A 
ATOM     19  C   UNL d   1      56.064  48.860  48.982  0.00  0.00     0.002 A 
ATOM     20  C   UNL d   1      56.508  49.553  48.900  0.00  0.00     0.002 A 
ATOM     21  C   UNL d   1      57.114  49.706  49.466  0.00  0.00     0.020 A 
BRANCH  17  22
ATOM     22  O   UNL d   1      56.976  47.961  50.798  0.00  0.00    -0.327 OA
ATOM     23  C   UNL d   1      56.721  47.165  50.733  0.00  0.00     0.181 C 
ENDBRANCH  17  22
ENDBRANCH   1  16
TORSDOF 4
ENDMDL
