MODEL 1
REMARK VINA RESULT:      -2.8      0.000      0.000
REMARK  5 active torsions:
REMARK  status: ('A' for Active; 'I' for Inactive)
REMARK    1  A    between atoms: N_14  and  C_6 
REMARK    2  A    between atoms: C_20  and  N_14 
REMARK    3  A    between atoms: N_15  and  C_21 
REMARK    4  A    between atoms: C_17  and  C_20 
REMARK    5  A    between atoms: C_21  and  C_17 
ROOT
ATOM      1  N   UNL d   1      33.216  21.122 -21.684  0.00  0.00    -0.183 N 
ATOM      2  C   UNL d   1      33.207  21.949 -21.610  0.00  0.00     0.169 A 
ATOM      3  C   UNL d   1      33.192  22.301 -20.872  0.00  0.00     0.073 A 
ATOM      4  C   UNL d   1      33.186  21.823 -20.209  0.00  0.00     0.185 A 
ATOM      5  N   UNL d   1      33.196  20.997 -20.283  0.00  0.00    -0.142 NA
ATOM      6  C   UNL d   1      33.231  20.788 -22.430  0.00  0.00     0.218 A 
ATOM      7  N   UNL d   1      33.213  22.419 -22.284  0.00  0.00    -0.226 NA
ATOM      8  C   UNL d   1      33.182  23.119 -20.799  0.00  0.00     0.007 A 
ATOM      9  N   UNL d   1      33.171  22.165 -19.454  0.00  0.00    -0.225 NA
ATOM     10  C   UNL d   1      33.237  21.249 -23.099  0.00  0.00     0.071 A 
ATOM     11  C   UNL d   1      33.167  23.472 -20.061  0.00  0.00     0.019 A 
ATOM     12  C   UNL d   1      33.228  22.075 -23.025  0.00  0.00     0.087 A 
ATOM     13  C   UNL d   1      33.161  22.992 -19.380  0.00  0.00     0.083 A 
ATOM     14  C   UNL d   1      33.188  23.590 -21.476  0.00  0.00     0.000 C 
ATOM     15  C   UNL d   1      33.234  22.561 -23.728  0.00  0.00     0.021 C 
ATOM     16  C   UNL d   1      33.146  23.336 -18.643  0.00  0.00     0.021 C 
ENDROOT
BRANCH   6  17
ATOM     17  N   UNL d   1      33.241  19.935 -22.497  0.00  0.00    -0.380 NA
BRANCH  17  18
ATOM     18  C   UNL d   1      33.220  19.093 -22.511  0.00  0.00     0.164 C 
BRANCH  18  19
ATOM     19  C   UNL d   1      32.673  18.696 -23.026  0.00  0.00     0.054 C 
BRANCH  19  20
ATOM     20  C   UNL d   1      32.732  17.850 -23.127  0.00  0.00     0.083 C 
BRANCH  20  21
ATOM     21  N   UNL d   1      32.236  17.449 -23.690  0.00  0.00    -0.300 N 
ATOM     22  C   UNL d   1      32.452  16.685 -23.381  0.00  0.00     0.100 C 
ATOM     23  C   UNL d   1      31.691  17.487 -24.343  0.00  0.00     0.100 C 
ENDBRANCH  20  21
ENDBRANCH  19  20
ENDBRANCH  18  19
ENDBRANCH  17  18
ENDBRANCH   6  17
TORSDOF 5
ENDMDL
MODEL 2
REMARK VINA RESULT:      -2.3      1.586      6.248
REMARK  5 active torsions:
REMARK  status: ('A' for Active; 'I' for Inactive)
REMARK    1  A    between atoms: N_14  and  C_6 
REMARK    2  A    between atoms: C_20  and  N_14 
REMARK    3  A    between atoms: N_15  and  C_21 
REMARK    4  A    between atoms: C_17  and  C_20 
REMARK    5  A    between atoms: C_21  and  C_17 
ROOT
ATOM      1  N   UNL d   1      31.783  17.761 -23.813  0.00  0.00    -0.183 N 
ATOM      2  C   UNL d   1      31.489  16.989 -23.896  0.00  0.00     0.169 A 
ATOM      3  C   UNL d   1      30.739  16.858 -24.195  0.00  0.00     0.073 A 
ATOM      4  C   UNL d   1      30.285  17.503 -24.410  0.00  0.00     0.185 A 
ATOM      5  N   UNL d   1      30.578  18.274 -24.327  0.00  0.00    -0.142 NA
ATOM      6  C   UNL d   1      32.535  17.872 -23.512  0.00  0.00     0.218 A 
ATOM      7  N   UNL d   1      31.956  16.349 -23.677  0.00  0.00    -0.226 NA
ATOM      8  C   UNL d   1      30.449  16.095 -24.278  0.00  0.00     0.007 A 
ATOM      9  N   UNL d   1      29.523  17.386 -24.714  0.00  0.00    -0.225 NA
ATOM     10  C   UNL d   1      33.000  17.242 -23.294  0.00  0.00     0.071 A 
ATOM     11  C   UNL d   1      29.699  15.963 -24.576  0.00  0.00     0.019 A 
ATOM     12  C   UNL d   1      32.706  16.470 -23.377  0.00  0.00     0.087 A 
ATOM     13  C   UNL d   1      29.229  16.614 -24.798  0.00  0.00     0.083 A 
ATOM     14  C   UNL d   1      30.918  15.453 -24.057  0.00  0.00     0.000 C 
ATOM     15  C   UNL d   1      33.194  15.808 -23.148  0.00  0.00     0.021 C 
ATOM     16  C   UNL d   1      28.482  16.491 -25.096  0.00  0.00     0.021 C 
ENDROOT
BRANCH   6  17
ATOM     17  N   UNL d   1      32.830  18.671 -23.430  0.00  0.00    -0.380 NA
BRANCH  17  18
ATOM     18  C   UNL d   1      33.098  19.468 -23.404  0.00  0.00     0.164 C 
BRANCH  18  19
ATOM     19  C   UNL d   1      33.241  19.838 -22.651  0.00  0.00     0.054 C 
BRANCH  19  20
ATOM     20  C   UNL d   1      33.107  20.677 -22.566  0.00  0.00     0.083 C 
BRANCH  20  21
ATOM     21  N   UNL d   1      33.154  21.044 -21.799  0.00  0.00    -0.300 N 
ATOM     22  C   UNL d   1      33.175  21.824 -22.141  0.00  0.00     0.100 C 
ATOM     23  C   UNL d   1      33.186  20.968 -20.951  0.00  0.00     0.100 C 
ENDBRANCH  20  21
ENDBRANCH  19  20
ENDBRANCH  18  19
ENDBRANCH  17  18
ENDBRANCH   6  17
TORSDOF 5
ENDMDL
MODEL 3
REMARK VINA RESULT:      -2.2      1.143      5.163
REMARK  5 active torsions:
REMARK  status: ('A' for Active; 'I' for Inactive)
REMARK    1  A    between atoms: N_14  and  C_6 
REMARK    2  A    between atoms: C_20  and  N_14 
REMARK    3  A    between atoms: N_15  and  C_21 
REMARK    4  A    between atoms: C_17  and  C_20 
REMARK    5  A    between atoms: C_21  and  C_17 
ROOT
ATOM      1  N   UNL d   1      33.184  19.400 -22.834  0.00  0.00    -0.183 N 
ATOM      2  C   UNL d   1      33.165  19.045 -23.584  0.00  0.00     0.169 A 
ATOM      3  C   UNL d   1      33.128  18.231 -23.659  0.00  0.00     0.073 A 
ATOM      4  C   UNL d   1      33.111  17.775 -22.981  0.00  0.00     0.185 A 
ATOM      5  N   UNL d   1      33.130  18.130 -22.231  0.00  0.00    -0.142 NA
ATOM      6  C   UNL d   1      33.221  20.215 -22.780  0.00  0.00     0.218 A 
ATOM      7  N   UNL d   1      33.184  19.514 -24.258  0.00  0.00    -0.226 NA
ATOM      8  C   UNL d   1      33.110  17.879 -24.401  0.00  0.00     0.007 A 
ATOM      9  N   UNL d   1      33.073  16.949 -23.040  0.00  0.00    -0.225 NA
ATOM     10  C   UNL d   1      33.240  20.683 -23.444  0.00  0.00     0.071 A 
ATOM     11  C   UNL d   1      33.073  17.066 -24.476  0.00  0.00     0.019 A 
ATOM     12  C   UNL d   1      33.221  20.327 -24.193  0.00  0.00     0.087 A 
ATOM     13  C   UNL d   1      33.054  16.594 -23.790  0.00  0.00     0.083 A 
ATOM     14  C   UNL d   1      33.128  18.351 -25.078  0.00  0.00     0.000 C 
ATOM     15  C   UNL d   1      33.240  20.818 -24.892  0.00  0.00     0.021 C 
ATOM     16  C   UNL d   1      33.017  15.783 -23.858  0.00  0.00     0.021 C 
ENDROOT
BRANCH   6  17
ATOM     17  N   UNL d   1      33.240  20.573 -22.002  0.00  0.00    -0.380 NA
BRANCH  17  18
ATOM     18  C   UNL d   1      33.201  20.911 -21.233  0.00  0.00     0.164 C 
BRANCH  18  19
ATOM     19  C   UNL d   1      32.794  21.649 -21.119  0.00  0.00     0.054 C 
BRANCH  19  20
ATOM     20  C   UNL d   1      32.768  21.997 -20.340  0.00  0.00     0.083 C 
BRANCH  20  21
ATOM     21  N   UNL d   1      32.534  22.809 -20.240  0.00  0.00    -0.300 N 
ATOM     22  C   UNL d   1      32.811  22.821 -19.434  0.00  0.00     0.100 C 
ATOM     23  C   UNL d   1      32.187  23.517 -20.563  0.00  0.00     0.100 C 
ENDBRANCH  20  21
ENDBRANCH  19  20
ENDBRANCH  18  19
ENDBRANCH  17  18
ENDBRANCH   6  17
TORSDOF 5
ENDMDL
MODEL 4
REMARK VINA RESULT:      -2.1      1.430      2.769
REMARK  5 active torsions:
REMARK  status: ('A' for Active; 'I' for Inactive)
REMARK    1  A    between atoms: N_14  and  C_6 
REMARK    2  A    between atoms: C_20  and  N_14 
REMARK    3  A    between atoms: N_15  and  C_21 
REMARK    4  A    between atoms: C_17  and  C_20 
REMARK    5  A    between atoms: C_21  and  C_17 
ROOT
ATOM      1  N   UNL d   1      33.230  20.094 -22.994  0.00  0.00    -0.183 N 
ATOM      2  C   UNL d   1      33.231  20.831 -22.611  0.00  0.00     0.169 A 
ATOM      3  C   UNL d   1      33.234  21.526 -23.042  0.00  0.00     0.073 A 
ATOM      4  C   UNL d   1      33.234  21.480 -23.859  0.00  0.00     0.185 A 
ATOM      5  N   UNL d   1      33.233  20.744 -24.242  0.00  0.00    -0.142 NA
ATOM      6  C   UNL d   1      33.227  19.411 -22.546  0.00  0.00     0.218 A 
ATOM      7  N   UNL d   1      33.231  20.863 -21.790  0.00  0.00    -0.226 NA
ATOM      8  C   UNL d   1      33.235  22.254 -22.663  0.00  0.00     0.007 A 
ATOM      9  N   UNL d   1      33.237  22.175 -24.310  0.00  0.00    -0.225 NA
ATOM     10  C   UNL d   1      33.227  19.438 -21.734  0.00  0.00     0.071 A 
ATOM     11  C   UNL d   1      33.238  22.948 -23.094  0.00  0.00     0.019 A 
ATOM     12  C   UNL d   1      33.228  20.174 -21.350  0.00  0.00     0.087 A 
ATOM     13  C   UNL d   1      33.238  22.911 -23.926  0.00  0.00     0.083 A 
ATOM     14  C   UNL d   1      33.235  22.285 -21.838  0.00  0.00     0.000 C 
ATOM     15  C   UNL d   1      33.228  20.205 -20.497  0.00  0.00     0.021 C 
ATOM     16  C   UNL d   1      33.241  23.599 -24.362  0.00  0.00     0.021 C 
ENDROOT
BRANCH   6  17
ATOM     17  N   UNL d   1      33.225  18.656 -22.949  0.00  0.00    -0.380 NA
BRANCH  17  18
ATOM     18  C   UNL d   1      33.192  17.891 -23.300  0.00  0.00     0.164 C 
BRANCH  18  19
ATOM     19  C   UNL d   1      32.437  17.548 -23.484  0.00  0.00     0.054 C 
BRANCH  19  20
ATOM     20  C   UNL d   1      32.402  16.747 -23.779  0.00  0.00     0.083 C 
BRANCH  20  21
ATOM     21  N   UNL d   1      31.732  16.485 -24.234  0.00  0.00    -0.300 N 
ATOM     22  C   UNL d   1      32.112  15.746 -24.423  0.00  0.00     0.100 C 
ATOM     23  C   UNL d   1      30.950  16.632 -24.538  0.00  0.00     0.100 C 
ENDBRANCH  20  21
ENDBRANCH  19  20
ENDBRANCH  18  19
ENDBRANCH  17  18
ENDBRANCH   6  17
TORSDOF 5
ENDMDL
MODEL 5
REMARK VINA RESULT:      -1.5      1.407      2.307
REMARK  5 active torsions:
REMARK  status: ('A' for Active; 'I' for Inactive)
REMARK    1  A    between atoms: N_14  and  C_6 
REMARK    2  A    between atoms: C_20  and  N_14 
REMARK    3  A    between atoms: N_15  and  C_21 
REMARK    4  A    between atoms: C_17  and  C_20 
REMARK    5  A    between atoms: C_21  and  C_17 
ROOT
ATOM      1  N   UNL d   1      32.969  19.333 -23.177  0.00  0.00    -0.183 N 
ATOM      2  C   UNL d   1      33.059  20.146 -23.036  0.00  0.00     0.169 A 
ATOM      3  C   UNL d   1      33.104  20.434 -22.272  0.00  0.00     0.073 A 
ATOM      4  C   UNL d   1      33.058  19.906 -21.650  0.00  0.00     0.185 A 
ATOM      5  N   UNL d   1      32.968  19.093 -21.790  0.00  0.00    -0.142 NA
ATOM      6  C   UNL d   1      32.927  19.063 -23.947  0.00  0.00     0.218 A 
ATOM      7  N   UNL d   1      33.104  20.667 -23.669  0.00  0.00    -0.226 NA
ATOM      8  C   UNL d   1      33.193  21.238 -22.132  0.00  0.00     0.007 A 
ATOM      9  N   UNL d   1      33.102  20.183 -20.870  0.00  0.00    -0.225 NA
ATOM     10  C   UNL d   1      32.970  19.575 -24.577  0.00  0.00     0.071 A 
ATOM     11  C   UNL d   1      33.237  21.527 -21.369  0.00  0.00     0.019 A 
ATOM     12  C   UNL d   1      33.060  20.388 -24.436  0.00  0.00     0.087 A 
ATOM     13  C   UNL d   1      33.192  20.996 -20.729  0.00  0.00     0.083 A 
ATOM     14  C   UNL d   1      33.237  21.761 -22.770  0.00  0.00     0.000 C 
ATOM     15  C   UNL d   1      33.106  20.927 -25.097  0.00  0.00     0.021 C 
ATOM     16  C   UNL d   1      33.235  21.276 -19.966  0.00  0.00     0.021 C 
ENDROOT
BRANCH   6  17
ATOM     17  N   UNL d   1      32.834  18.223 -24.083  0.00  0.00    -0.380 NA
BRANCH  17  18
ATOM     18  C   UNL d   1      32.684  17.408 -24.228  0.00  0.00     0.164 C 
BRANCH  18  19
ATOM     19  C   UNL d   1      31.914  17.087 -24.064  0.00  0.00     0.054 C 
BRANCH  19  20
ATOM     20  C   UNL d   1      31.719  16.304 -24.343  0.00  0.00     0.083 C 
BRANCH  20  21
ATOM     21  N   UNL d   1      30.988  15.935 -24.110  0.00  0.00    -0.300 N 
ATOM     22  C   UNL d   1      30.897  15.568 -24.874  0.00  0.00     0.100 C 
ATOM     23  C   UNL d   1      30.393  15.799 -23.517  0.00  0.00     0.100 C 
ENDBRANCH  20  21
ENDBRANCH  19  20
ENDBRANCH  18  19
ENDBRANCH  17  18
ENDBRANCH   6  17
TORSDOF 5
ENDMDL
