MODEL 1
REMARK VINA RESULT:       1.6      0.000      0.000
REMARK  5 active torsions:
REMARK  status: ('A' for Active; 'I' for Inactive)
REMARK    1  A    between atoms: C_9  and  C_1 
REMARK    2  A    between atoms: N_4  and  C_2 
REMARK    3  A    between atoms: C_8  and  C_3 
REMARK       I    between atoms: C_7  and  N_4 
REMARK    4  A    between atoms: C_10  and  C_7 
REMARK    5  A    between atoms: O_18  and  C_9 
ROOT
ATOM      1  C   UNL d   1     -41.484-121.951 -52.777  0.00  0.00     0.088 A 
ATOM      2  C   UNL d   1     -41.314-122.050 -53.571  0.00  0.00     0.119 A 
ATOM      3  C   UNL d   1     -41.392-122.703 -52.424  0.00  0.00     0.020 A 
ATOM      4  S   UNL d   1     -41.124-122.788 -53.751  0.00  0.00    -0.067 SA
ATOM      5  C   UNL d   1     -41.167-123.235 -53.027  0.00  0.00     0.038 A 
ENDROOT
BRANCH   2   6
ATOM      6  N   UNL d   1     -41.330-121.428 -54.183  0.00  0.00    -0.201 NA
ATOM      7  C   UNL d   1     -41.714-121.588 -54.926  0.00  0.00     0.281 C 
ATOM      8  O   UNL d   1     -41.718-120.980 -55.497  0.00  0.00    -0.265 OA
BRANCH   7   9
ATOM      9  C   UNL d   1     -42.063-122.289 -55.088  0.00  0.00     0.077 A 
ATOM     10  C   UNL d   1     -41.602-122.943 -55.205  0.00  0.00     0.104 A 
ATOM     11  N   UNL d   1     -41.930-123.678 -55.373  0.00  0.00    -0.242 NA
ATOM     12  C   UNL d   1     -42.761-123.758 -55.426  0.00  0.00     0.099 A 
ATOM     13  C   UNL d   1     -43.235-123.080 -55.305  0.00  0.00     0.021 A 
ATOM     14  C   UNL d   1     -42.892-122.358 -55.138  0.00  0.00     0.008 A 
ENDBRANCH   7   9
ENDBRANCH   2   6
BRANCH   1  15
ATOM     15  C   UNL d   1     -41.706-121.246 -52.385  0.00  0.00     0.298 C 
ATOM     16  O   UNL d   1     -42.516-121.106 -52.202  0.00  0.00    -0.259 OA
BRANCH  15  17
ATOM     17  O   UNL d   1     -41.123-120.698 -52.183  0.00  0.00    -0.296 OA
ATOM     18  C   UNL d   1     -41.344-119.941 -51.891  0.00  0.00     0.185 C 
ENDBRANCH  15  17
ENDBRANCH   1  15
BRANCH   3  19
ATOM     19  C   UNL d   1     -41.521-122.813 -51.615  0.00  0.00     0.030 A 
ATOM     20  S   UNL d   1     -41.623-122.493 -50.878  0.00  0.00    -0.086 SA
ATOM     21  C   UNL d   1     -41.725-123.120 -50.368  0.00  0.00     0.035 A 
ATOM     22  C   UNL d   1     -41.689-123.815 -50.774  0.00  0.00     0.007 A 
ATOM     23  C   UNL d   1     -41.559-123.621 -51.565  0.00  0.00     0.007 A 
ENDBRANCH   3  19
TORSDOF 5
ENDMDL
MODEL 2
REMARK VINA RESULT:       2.6      1.436      3.526
REMARK  5 active torsions:
REMARK  status: ('A' for Active; 'I' for Inactive)
REMARK    1  A    between atoms: C_9  and  C_1 
REMARK    2  A    between atoms: N_4  and  C_2 
REMARK    3  A    between atoms: C_8  and  C_3 
REMARK       I    between atoms: C_7  and  N_4 
REMARK    4  A    between atoms: C_10  and  C_7 
REMARK    5  A    between atoms: O_18  and  C_9 
ROOT
ATOM      1  C   UNL d   1     -41.552-121.912 -53.364  0.00  0.00     0.088 A 
ATOM      2  C   UNL d   1     -41.288-122.046 -52.601  0.00  0.00     0.119 A 
ATOM      3  C   UNL d   1     -41.626-122.665 -53.719  0.00  0.00     0.020 A 
ATOM      4  S   UNL d   1     -41.189-122.806 -52.443  0.00  0.00    -0.067 SA
ATOM      5  C   UNL d   1     -41.400-123.232 -53.150  0.00  0.00     0.038 A 
ENDROOT
BRANCH   2   6
ATOM      6  N   UNL d   1     -41.123-121.436 -51.999  0.00  0.00    -0.201 NA
ATOM      7  C   UNL d   1     -41.292-121.606 -51.182  0.00  0.00     0.281 C 
ATOM      8  O   UNL d   1     -41.127-121.010 -50.621  0.00  0.00    -0.265 OA
BRANCH   7   9
ATOM      9  C   UNL d   1     -41.597-122.305 -50.941  0.00  0.00     0.077 A 
ATOM     10  C   UNL d   1     -42.377-122.345 -50.731  0.00  0.00     0.104 A 
ATOM     11  N   UNL d   1     -42.720-123.048 -50.480  0.00  0.00    -0.242 NA
ATOM     12  C   UNL d   1     -42.257-123.744 -50.437  0.00  0.00     0.099 A 
ATOM     13  C   UNL d   1     -41.450-123.699 -50.655  0.00  0.00     0.021 A 
ATOM     14  C   UNL d   1     -41.126-122.992 -50.902  0.00  0.00     0.008 A 
ENDBRANCH   7   9
ENDBRANCH   2   6
BRANCH   1  15
ATOM     15  C   UNL d   1     -41.719-121.177 -53.727  0.00  0.00     0.298 C 
ATOM     16  O   UNL d   1     -41.162-120.836 -54.258  0.00  0.00    -0.259 OA
BRANCH  15  17
ATOM     17  O   UNL d   1     -42.431-120.796 -53.557  0.00  0.00    -0.296 OA
ATOM     18  C   UNL d   1     -42.531-119.985 -53.755  0.00  0.00     0.185 C 
ENDBRANCH  15  17
ENDBRANCH   1  15
BRANCH   3  19
ATOM     19  C   UNL d   1     -41.884-122.743 -54.502  0.00  0.00     0.030 A 
ATOM     20  S   UNL d   1     -42.056-122.400 -55.214  0.00  0.00    -0.086 SA
ATOM     21  C   UNL d   1     -42.301-123.001 -55.706  0.00  0.00     0.035 A 
ATOM     22  C   UNL d   1     -42.283-123.704 -55.312  0.00  0.00     0.007 A 
ATOM     23  C   UNL d   1     -42.019-123.542 -54.548  0.00  0.00     0.007 A 
ENDBRANCH   3  19
TORSDOF 5
ENDMDL
MODEL 3
REMARK VINA RESULT:       2.8      1.216      1.617
REMARK  5 active torsions:
REMARK  status: ('A' for Active; 'I' for Inactive)
REMARK    1  A    between atoms: C_9  and  C_1 
REMARK    2  A    between atoms: N_4  and  C_2 
REMARK    3  A    between atoms: C_8  and  C_3 
REMARK       I    between atoms: C_7  and  N_4 
REMARK    4  A    between atoms: C_10  and  C_7 
REMARK    5  A    between atoms: O_18  and  C_9 
ROOT
ATOM      1  C   UNL d   1     -42.106-122.271 -51.666  0.00  0.00     0.088 A 
ATOM      2  C   UNL d   1     -41.877-122.112 -52.435  0.00  0.00     0.119 A 
ATOM      3  C   UNL d   1     -41.646-122.924 -51.418  0.00  0.00     0.020 A 
ATOM      4  S   UNL d   1     -41.321-122.599 -52.694  0.00  0.00    -0.067 SA
ATOM      5  C   UNL d   1     -41.151-123.137 -52.055  0.00  0.00     0.038 A 
ENDROOT
BRANCH   2   6
ATOM      6  N   UNL d   1     -42.193-121.479 -52.946  0.00  0.00    -0.201 NA
ATOM      7  C   UNL d   1     -42.253-121.615 -53.784  0.00  0.00     0.281 C 
ATOM      8  O   UNL d   1     -42.558-120.997 -54.255  0.00  0.00    -0.265 OA
BRANCH   7   9
ATOM      9  C   UNL d   1     -42.029-122.303 -54.126  0.00  0.00     0.077 A 
ATOM     10  C   UNL d   1     -42.359-122.996 -53.872  0.00  0.00     0.104 A 
ATOM     11  N   UNL d   1     -42.150-123.719 -54.202  0.00  0.00    -0.242 NA
ATOM     12  C   UNL d   1     -41.584-123.746 -54.818  0.00  0.00     0.099 A 
ATOM     13  C   UNL d   1     -41.245-123.027 -55.079  0.00  0.00     0.021 A 
ATOM     14  C   UNL d   1     -41.464-122.318 -54.738  0.00  0.00     0.008 A 
ENDBRANCH   7   9
ENDBRANCH   2   6
BRANCH   1  15
ATOM     15  C   UNL d   1     -42.681-121.871 -51.208  0.00  0.00     0.298 C 
ATOM     16  O   UNL d   1     -42.457-121.204 -50.745  0.00  0.00    -0.259 OA
BRANCH  15  17
ATOM     17  O   UNL d   1     -43.461-122.138 -51.220  0.00  0.00    -0.296 OA
ATOM     18  C   UNL d   1     -44.041-121.758 -50.745  0.00  0.00     0.185 C 
ENDBRANCH  15  17
ENDBRANCH   1  15
BRANCH   3  19
ATOM     19  C   UNL d   1     -41.731-123.240 -50.658  0.00  0.00     0.030 A 
ATOM     20  S   UNL d   1     -42.128-123.728 -50.148  0.00  0.00    -0.086 SA
ATOM     21  C   UNL d   1     -41.755-123.661 -49.428  0.00  0.00     0.035 A 
ATOM     22  C   UNL d   1     -41.139-123.145 -49.483  0.00  0.00     0.007 A 
ATOM     23  C   UNL d   1     -41.123-122.877 -50.263  0.00  0.00     0.007 A 
ENDBRANCH   3  19
TORSDOF 5
ENDMDL
