MODEL 1
REMARK VINA RESULT:       7.3      0.000      0.000
REMARK  4 active torsions:
REMARK  status: ('A' for Active; 'I' for Inactive)
REMARK    1  A    between atoms: C_17  and  C_4 
REMARK    2  A    between atoms: C_6  and  C_8 
REMARK       I    between atoms: C_8  and  N_16 
REMARK    3  A    between atoms: N_16  and  C_18 
REMARK    4  A    between atoms: C_18  and  C_17 
ROOT
ATOM      1  C   UNL d   1      45.447 -16.367  44.726  0.00  0.00     0.042 C 
ENDROOT
BRANCH   1   2
ATOM      2  C   UNL d   1      45.482 -15.541  44.657  0.00  0.00     0.103 A 
ATOM      3  N   UNL d   1      44.928 -15.055  44.283  0.00  0.00    -0.221 NA
ATOM      4  C   UNL d   1      45.188 -14.267  44.349  0.00  0.00     0.179 A 
ATOM      5  N   UNL d   1      45.905 -14.271  44.766  0.00  0.00    -0.282 N 
ATOM      6  S   UNL d   1      45.007 -13.486  44.160  0.00  0.00    -0.048 SA
ATOM      7  C   UNL d   1      46.082 -15.061  44.955  0.00  0.00     0.101 A 
ATOM      8  C   UNL d   1      46.162 -13.492  44.832  0.00  0.00     0.089 A 
ATOM      9  C   UNL d   1      45.611 -13.006  44.459  0.00  0.00     0.057 A 
ENDBRANCH   1   2
BRANCH   1  10
ATOM     10  C   UNL d   1      45.975 -16.834  44.294  0.00  0.00     0.104 C 
BRANCH  10  11
ATOM     11  N   UNL d   1      46.048 -17.648  44.463  0.00  0.00    -0.206 NA
ATOM     12  C   UNL d   1      46.348 -18.164  43.891  0.00  0.00     0.285 C 
ATOM     13  O   UNL d   1      46.577 -17.873  43.151  0.00  0.00    -0.265 OA
BRANCH  12  14
ATOM     14  C   UNL d   1      46.420 -18.969  44.058  0.00  0.00     0.087 A 
ATOM     15  S   UNL d   1      46.411 -19.588  43.500  0.00  0.00    -0.082 SA
ATOM     16  C   UNL d   1      46.499 -20.297  43.911  0.00  0.00     0.036 A 
ATOM     17  C   UNL d   1      46.561 -20.111  44.722  0.00  0.00     0.008 A 
ATOM     18  C   UNL d   1      46.511 -19.302  44.796  0.00  0.00     0.012 A 
ENDBRANCH  12  14
ENDBRANCH  10  11
ENDBRANCH   1  10
TORSDOF 4
ENDMDL
MODEL 2
REMARK VINA RESULT:       8.2      1.248      4.918
REMARK  4 active torsions:
REMARK  status: ('A' for Active; 'I' for Inactive)
REMARK    1  A    between atoms: C_17  and  C_4 
REMARK    2  A    between atoms: C_6  and  C_8 
REMARK       I    between atoms: C_8  and  N_16 
REMARK    3  A    between atoms: N_16  and  C_18 
REMARK    4  A    between atoms: C_18  and  C_17 
ROOT
ATOM      1  C   UNL d   1      46.470 -17.400  44.350  0.00  0.00     0.042 C 
ENDROOT
BRANCH   1   2
ATOM      2  C   UNL d   1      46.422 -18.123  43.947  0.00  0.00     0.103 A 
ATOM      3  N   UNL d   1      46.446 -18.878  44.285  0.00  0.00    -0.221 NA
ATOM      4  C   UNL d   1      46.379 -19.438  43.672  0.00  0.00     0.179 A 
ATOM      5  N   UNL d   1      46.314 -19.024  42.957  0.00  0.00    -0.282 N 
ATOM      6  S   UNL d   1      46.353 -20.243  43.505  0.00  0.00    -0.048 SA
ATOM      7  C   UNL d   1      46.341 -18.212  43.131  0.00  0.00     0.101 A 
ATOM      8  C   UNL d   1      46.248 -19.577  42.351  0.00  0.00     0.089 A 
ATOM      9  C   UNL d   1      46.272 -20.330  42.686  0.00  0.00     0.057 A 
ENDBRANCH   1   2
BRANCH   1  10
ATOM     10  C   UNL d   1      45.834 -16.872  44.317  0.00  0.00     0.104 C 
BRANCH  10  11
ATOM     11  N   UNL d   1      45.972 -16.051  44.350  0.00  0.00    -0.206 NA
ATOM     12  C   UNL d   1      45.398 -15.547  44.668  0.00  0.00     0.285 C 
ATOM     13  O   UNL d   1      44.688 -15.859  44.955  0.00  0.00    -0.265 OA
BRANCH  12  14
ATOM     14  C   UNL d   1      45.534 -14.734  44.700  0.00  0.00     0.087 A 
ATOM     15  S   UNL d   1      44.975 -14.151  44.905  0.00  0.00    -0.082 SA
ATOM     16  C   UNL d   1      45.350 -13.418  44.864  0.00  0.00     0.036 A 
ATOM     17  C   UNL d   1      46.140 -13.553  44.634  0.00  0.00     0.008 A 
ATOM     18  C   UNL d   1      46.238 -14.356  44.538  0.00  0.00     0.012 A 
ENDBRANCH  12  14
ENDBRANCH  10  11
ENDBRANCH   1  10
TORSDOF 4
ENDMDL
