MODEL 1
REMARK VINA RESULT:      25.7      0.000      0.000
REMARK  6 active torsions:
REMARK  status: ('A' for Active; 'I' for Inactive)
REMARK       I    between atoms: N_2  and  C_1 
REMARK    1  A    between atoms: C_3  and  C_1 
REMARK    2  A    between atoms: C_5  and  N_2 
REMARK    3  A    between atoms: C_6  and  C_3 
REMARK    4  A    between atoms: C_8  and  C_5 
REMARK    5  A    between atoms: O_7  and  C_6 
REMARK    6  A    between atoms: C_9  and  O_7 
ROOT
ATOM      1  C   UNL d   1     -54.737-101.554 -41.610  0.00  0.00     0.330 C 
ATOM      2  N   UNL d   1     -54.725-102.196 -41.102  0.00  0.00    -0.362 NA
ATOM      3  O   UNL d   1     -54.715-100.795 -41.311  0.00  0.00    -0.251 OA
ENDROOT
BRANCH   1   4
ATOM      4  C   UNL d   1     -54.771-101.678 -42.414  0.00  0.00     0.103 C 
BRANCH   4   5
ATOM      5  C   UNL d   1     -55.273-101.204 -42.876  0.00  0.00     0.129 C 
BRANCH   5   6
ATOM      6  O   UNL d   1     -55.058-101.014 -43.659  0.00  0.00    -0.305 OA
BRANCH   6   7
ATOM      7  C   UNL d   1     -55.240-100.271 -43.973  0.00  0.00     0.100 A 
ATOM      8  C   UNL d   1     -55.932-100.161 -44.376  0.00  0.00     0.025 A 
ATOM      9  C   UNL d   1     -56.125 -99.412 -44.696  0.00  0.00     0.002 A 
ATOM     10  C   UNL d   1     -55.589 -98.788 -44.590  0.00  0.00     0.000 A 
ATOM     11  C   UNL d   1     -54.897 -98.898 -44.187  0.00  0.00     0.002 A 
ATOM     12  C   UNL d   1     -54.713 -99.637 -43.874  0.00  0.00     0.025 A 
ENDBRANCH   6   7
ENDBRANCH   5   6
ENDBRANCH   4   5
ENDBRANCH   1   4
BRANCH   2  13
ATOM     13  C   UNL d   1     -54.714-102.851 -40.605  0.00  0.00     0.165 C 
BRANCH  13  14
ATOM     14  C   UNL d   1     -55.125-102.854 -39.895  0.00  0.00     0.032 A 
ATOM     15  C   UNL d   1     -55.950-102.834 -39.898  0.00  0.00     0.003 A 
ATOM     16  C   UNL d   1     -56.368-102.837 -39.177  0.00  0.00     0.000 A 
ATOM     17  C   UNL d   1     -55.956-102.860 -38.461  0.00  0.00     0.000 A 
ATOM     18  C   UNL d   1     -55.136-102.880 -38.464  0.00  0.00     0.000 A 
ATOM     19  C   UNL d   1     -54.718-102.877 -39.185  0.00  0.00     0.003 A 
ENDBRANCH  13  14
ENDBRANCH   2  13
TORSDOF 6
ENDMDL
MODEL 2
REMARK VINA RESULT:      27.8      1.824      3.116
REMARK  6 active torsions:
REMARK  status: ('A' for Active; 'I' for Inactive)
REMARK       I    between atoms: N_2  and  C_1 
REMARK    1  A    between atoms: C_3  and  C_1 
REMARK    2  A    between atoms: C_5  and  N_2 
REMARK    3  A    between atoms: C_6  and  C_3 
REMARK    4  A    between atoms: C_8  and  C_5 
REMARK    5  A    between atoms: O_7  and  C_6 
REMARK    6  A    between atoms: C_9  and  O_7 
ROOT
ATOM      1  C   UNL d   1     -55.494-102.632 -39.081  0.00  0.00     0.330 C 
ATOM      2  N   UNL d   1     -55.451-102.753 -38.273  0.00  0.00    -0.362 NA
ATOM      3  O   UNL d   1     -56.176-102.334 -39.415  0.00  0.00    -0.251 OA
ENDROOT
BRANCH   1   4
ATOM      4  C   UNL d   1     -54.852-102.812 -39.549  0.00  0.00     0.103 C 
BRANCH   4   5
ATOM      5  C   UNL d   1     -54.715-102.366 -40.237  0.00  0.00     0.129 C 
BRANCH   5   6
ATOM      6  O   UNL d   1     -54.987-102.647 -40.974  0.00  0.00    -0.305 OA
BRANCH   6   7
ATOM      7  C   UNL d   1     -54.913-102.179 -41.651  0.00  0.00     0.100 A 
ATOM      8  C   UNL d   1     -54.787-101.384 -41.581  0.00  0.00     0.025 A 
ATOM      9  C   UNL d   1     -54.711-100.902 -42.262  0.00  0.00     0.002 A 
ATOM     10  C   UNL d   1     -54.768-101.261 -43.007  0.00  0.00     0.000 A 
ATOM     11  C   UNL d   1     -54.894-102.057 -43.077  0.00  0.00     0.002 A 
ATOM     12  C   UNL d   1     -54.968-102.525 -42.404  0.00  0.00     0.025 A 
ENDBRANCH   6   7
ENDBRANCH   5   6
ENDBRANCH   4   5
ENDBRANCH   1   4
BRANCH   2  13
ATOM     13  C   UNL d   1     -55.393-102.879 -37.463  0.00  0.00     0.165 C 
BRANCH  13  14
ATOM     14  C   UNL d   1     -55.172-102.276 -36.952  0.00  0.00     0.032 A 
ATOM     15  C   UNL d   1     -55.178-101.493 -37.214  0.00  0.00     0.003 A 
ATOM     16  C   UNL d   1     -54.955-100.881 -36.696  0.00  0.00     0.000 A 
ATOM     17  C   UNL d   1     -54.727-101.057 -35.921  0.00  0.00     0.000 A 
ATOM     18  C   UNL d   1     -54.723-101.837 -35.666  0.00  0.00     0.000 A 
ATOM     19  C   UNL d   1     -54.947-102.450 -36.185  0.00  0.00     0.003 A 
ENDBRANCH  13  14
ENDBRANCH   2  13
TORSDOF 6
ENDMDL
MODEL 3
REMARK VINA RESULT:      28.6      2.341      3.716
REMARK  6 active torsions:
REMARK  status: ('A' for Active; 'I' for Inactive)
REMARK       I    between atoms: N_2  and  C_1 
REMARK    1  A    between atoms: C_3  and  C_1 
REMARK    2  A    between atoms: C_5  and  N_2 
REMARK    3  A    between atoms: C_6  and  C_3 
REMARK    4  A    between atoms: C_8  and  C_5 
REMARK    5  A    between atoms: O_7  and  C_6 
REMARK    6  A    between atoms: C_9  and  O_7 
ROOT
ATOM      1  C   UNL d   1     -55.321 -99.423 -44.451  0.00  0.00     0.330 C 
ATOM      2  N   UNL d   1     -55.200-100.227 -44.354  0.00  0.00    -0.362 NA
ATOM      3  O   UNL d   1     -54.859 -99.001 -44.975  0.00  0.00    -0.251 OA
ENDROOT
BRANCH   1   4
ATOM      4  C   UNL d   1     -55.902 -99.048 -44.024  0.00  0.00     0.103 C 
BRANCH   4   5
ATOM      5  C   UNL d   1     -56.696 -99.139 -44.252  0.00  0.00     0.129 C 
BRANCH   5   6
ATOM      6  O   UNL d   1     -57.305 -98.902 -43.734  0.00  0.00    -0.305 OA
BRANCH   6   7
ATOM      7  C   UNL d   1     -58.086 -98.857 -44.002  0.00  0.00     0.100 A 
ATOM      8  C   UNL d   1     -58.697 -98.869 -43.473  0.00  0.00     0.025 A 
ATOM      9  C   UNL d   1     -59.491 -98.824 -43.736  0.00  0.00     0.002 A 
ATOM     10  C   UNL d   1     -59.633 -98.768 -44.552  0.00  0.00     0.000 A 
ATOM     11  C   UNL d   1     -59.022 -98.756 -45.080  0.00  0.00     0.002 A 
ATOM     12  C   UNL d   1     -58.244 -98.801 -44.816  0.00  0.00     0.025 A 
ENDBRANCH   6   7
ENDBRANCH   5   6
ENDBRANCH   4   5
ENDBRANCH   1   4
BRANCH   2  13
ATOM     13  C   UNL d   1     -55.092-101.035 -44.244  0.00  0.00     0.165 C 
BRANCH  13  14
ATOM     14  C   UNL d   1     -54.969-101.351 -43.497  0.00  0.00     0.032 A 
ATOM     15  C   UNL d   1     -54.978-102.169 -43.391  0.00  0.00     0.003 A 
ATOM     16  C   UNL d   1     -54.854-102.490 -42.632  0.00  0.00     0.000 A 
ATOM     17  C   UNL d   1     -54.721-101.989 -41.988  0.00  0.00     0.000 A 
ATOM     18  C   UNL d   1     -54.713-101.176 -42.100  0.00  0.00     0.000 A 
ATOM     19  C   UNL d   1     -54.838-100.855 -42.859  0.00  0.00     0.003 A 
ENDBRANCH  13  14
ENDBRANCH   2  13
TORSDOF 6
ENDMDL
