MODEL 1
REMARK VINA RESULT:      -4.0      0.000      0.000
REMARK  3 active torsions:
REMARK  status: ('A' for Active; 'I' for Inactive)
REMARK    1  A    between atoms: N_7  and  C_3 
REMARK       I    between atoms: C_8  and  N_7 
REMARK    2  A    between atoms: C_14  and  C_8 
REMARK    3  A    between atoms: C_15  and  C_14 
ROOT
ATOM      1  C   UNL d   1      59.362   0.537  30.225  0.00  0.00     0.343 A 
ATOM      2  N   UNL d   1      58.869   0.536  30.877  0.00  0.00    -0.241 N 
ATOM      3  C   UNL d   1      58.065   0.394  30.788  0.00  0.00     0.159 A 
ATOM      4  N   UNL d   1      59.052   0.395  29.474  0.00  0.00    -0.224 N 
ATOM      5  C   UNL d   1      57.755   0.251  30.037  0.00  0.00     0.099 A 
ATOM      6  C   UNL d   1      58.246   0.249  29.367  0.00  0.00     0.271 A 
ATOM      7  O   UNL d   1      60.170   0.681  30.316  0.00  0.00    -0.245 OA
ATOM      8  O   UNL d   1      57.939   0.108  28.624  0.00  0.00    -0.266 OA
ATOM      9  C   UNL d   1      59.180   0.679  31.628  0.00  0.00     0.105 C 
ATOM     10  C   UNL d   1      59.550   0.396  28.814  0.00  0.00     0.107 C 
ENDROOT
BRANCH   3  11
ATOM     11  N   UNL d   1      57.566   0.392  31.447  0.00  0.00    -0.190 NA
ATOM     12  C   UNL d   1      57.129  -0.280  31.632  0.00  0.00     0.281 C 
ATOM     13  O   UNL d   1      57.189  -0.954  31.160  0.00  0.00    -0.265 OA
BRANCH  12  14
ATOM     14  C   UNL d   1      56.633  -0.279  32.289  0.00  0.00     0.063 C 
BRANCH  14  15
ATOM     15  C   UNL d   1      56.201  -0.958  32.474  0.00  0.00     0.005 C 
ATOM     16  C   UNL d   1      55.632  -0.949  33.048  0.00  0.00     0.000 C 
ENDBRANCH  14  15
ENDBRANCH  12  14
ENDBRANCH   3  11
TORSDOF 3
ENDMDL
MODEL 2
REMARK VINA RESULT:      -3.8      1.315      1.542
REMARK  3 active torsions:
REMARK  status: ('A' for Active; 'I' for Inactive)
REMARK    1  A    between atoms: N_7  and  C_3 
REMARK       I    between atoms: C_8  and  N_7 
REMARK    2  A    between atoms: C_14  and  C_8 
REMARK    3  A    between atoms: C_15  and  C_14 
ROOT
ATOM      1  C   UNL d   1      58.785  -0.455  29.181  0.00  0.00     0.343 A 
ATOM      2  N   UNL d   1      58.371  -0.137  29.810  0.00  0.00    -0.241 N 
ATOM      3  C   UNL d   1      58.006  -0.630  30.357  0.00  0.00     0.159 A 
ATOM      4  N   UNL d   1      58.836  -1.274  29.094  0.00  0.00    -0.224 N 
ATOM      5  C   UNL d   1      58.058  -1.448  30.270  0.00  0.00     0.099 A 
ATOM      6  C   UNL d   1      58.475  -1.782  29.635  0.00  0.00     0.271 A 
ATOM      7  O   UNL d   1      59.151   0.042  28.632  0.00  0.00    -0.245 OA
ATOM      8  O   UNL d   1      58.526  -2.593  29.548  0.00  0.00    -0.266 OA
ATOM      9  C   UNL d   1      58.319   0.682  29.898  0.00  0.00     0.105 C 
ATOM     10  C   UNL d   1      59.254  -1.596  28.458  0.00  0.00     0.107 C 
ENDROOT
BRANCH   3  11
ATOM     11  N   UNL d   1      57.588  -0.309  30.994  0.00  0.00    -0.190 NA
ATOM     12  C   UNL d   1      57.071  -0.780  31.427  0.00  0.00     0.281 C 
ATOM     13  O   UNL d   1      56.970  -1.574  31.227  0.00  0.00    -0.265 OA
BRANCH  12  14
ATOM     14  C   UNL d   1      56.655  -0.459  32.061  0.00  0.00     0.063 C 
BRANCH  14  15
ATOM     15  C   UNL d   1      56.206  -0.953  32.546  0.00  0.00     0.005 C 
ATOM     16  C   UNL d   1      55.576  -0.669  32.965  0.00  0.00     0.000 C 
ENDBRANCH  14  15
ENDBRANCH  12  14
ENDBRANCH   3  11
TORSDOF 3
ENDMDL
MODEL 3
REMARK VINA RESULT:      -3.6      1.635      3.652
REMARK  3 active torsions:
REMARK  status: ('A' for Active; 'I' for Inactive)
REMARK    1  A    between atoms: N_7  and  C_3 
REMARK       I    between atoms: C_8  and  N_7 
REMARK    2  A    between atoms: C_14  and  C_8 
REMARK    3  A    between atoms: C_15  and  C_14 
ROOT
ATOM      1  C   UNL d   1      56.850  -0.029  33.247  0.00  0.00     0.343 A 
ATOM      2  N   UNL d   1      57.285   0.106  32.568  0.00  0.00    -0.241 N 
ATOM      3  C   UNL d   1      57.136  -0.329  31.888  0.00  0.00     0.159 A 
ATOM      4  N   UNL d   1      56.259  -0.605  33.249  0.00  0.00    -0.224 N 
ATOM      5  C   UNL d   1      56.545  -0.904  31.890  0.00  0.00     0.099 A 
ATOM      6  C   UNL d   1      56.097  -1.051  32.573  0.00  0.00     0.271 A 
ATOM      7  O   UNL d   1      57.001   0.409  33.931  0.00  0.00    -0.245 OA
ATOM      8  O   UNL d   1      55.512  -1.621  32.576  0.00  0.00    -0.266 OA
ATOM      9  C   UNL d   1      57.876   0.682  32.566  0.00  0.00     0.105 C 
ATOM     10  C   UNL d   1      55.819  -0.742  33.935  0.00  0.00     0.107 C 
ENDROOT
BRANCH   3  11
ATOM     11  N   UNL d   1      57.576  -0.192  31.200  0.00  0.00    -0.190 NA
ATOM     12  C   UNL d   1      57.717  -0.807  30.673  0.00  0.00     0.281 C 
ATOM     13  O   UNL d   1      57.421  -1.561  30.828  0.00  0.00    -0.265 OA
BRANCH  12  14
ATOM     14  C   UNL d   1      58.155  -0.669  29.989  0.00  0.00     0.063 C 
BRANCH  14  15
ATOM     15  C   UNL d   1      58.483  -1.306  29.580  0.00  0.00     0.005 C 
ATOM     16  C   UNL d   1      58.910  -1.194  28.902  0.00  0.00     0.000 C 
ENDBRANCH  14  15
ENDBRANCH  12  14
ENDBRANCH   3  11
TORSDOF 3
ENDMDL
MODEL 4
REMARK VINA RESULT:      -3.5      1.914      3.906
REMARK  3 active torsions:
REMARK  status: ('A' for Active; 'I' for Inactive)
REMARK    1  A    between atoms: N_7  and  C_3 
REMARK       I    between atoms: C_8  and  N_7 
REMARK    2  A    between atoms: C_14  and  C_8 
REMARK    3  A    between atoms: C_15  and  C_14 
ROOT
ATOM      1  C   UNL d   1      56.719   0.500  34.045  0.00  0.00     0.343 A 
ATOM      2  N   UNL d   1      57.191   0.501  33.379  0.00  0.00    -0.241 N 
ATOM      3  C   UNL d   1      56.871   0.322  32.644  0.00  0.00     0.159 A 
ATOM      4  N   UNL d   1      55.916   0.319  33.981  0.00  0.00    -0.224 N 
ATOM      5  C   UNL d   1      56.069   0.141  32.579  0.00  0.00     0.099 A 
ATOM      6  C   UNL d   1      55.579   0.137  33.249  0.00  0.00     0.271 A 
ATOM      7  O   UNL d   1      57.043   0.679  34.784  0.00  0.00    -0.245 OA
ATOM      8  O   UNL d   1      54.784  -0.042  33.186  0.00  0.00    -0.266 OA
ATOM      9  C   UNL d   1      57.994   0.681  33.443  0.00  0.00     0.105 C 
ATOM     10  C   UNL d   1      55.438   0.318  34.655  0.00  0.00     0.107 C 
ENDROOT
BRANCH   3  11
ATOM     11  N   UNL d   1      57.349   0.323  31.969  0.00  0.00    -0.190 NA
ATOM     12  C   UNL d   1      57.287  -0.287  31.420  0.00  0.00     0.281 C 
ATOM     13  O   UNL d   1      56.749  -0.900  31.542  0.00  0.00    -0.265 OA
BRANCH  12  14
ATOM     14  C   UNL d   1      57.764  -0.284  30.748  0.00  0.00     0.063 C 
BRANCH  14  15
ATOM     15  C   UNL d   1      57.885  -0.986  30.331  0.00  0.00     0.005 C 
ATOM     16  C   UNL d   1      58.384  -1.016  29.697  0.00  0.00     0.000 C 
ENDBRANCH  14  15
ENDBRANCH  12  14
ENDBRANCH   3  11
TORSDOF 3
ENDMDL
MODEL 5
REMARK VINA RESULT:      -3.0      2.438      2.922
REMARK  3 active torsions:
REMARK  status: ('A' for Active; 'I' for Inactive)
REMARK    1  A    between atoms: N_7  and  C_3 
REMARK       I    between atoms: C_8  and  N_7 
REMARK    2  A    between atoms: C_14  and  C_8 
REMARK    3  A    between atoms: C_15  and  C_14 
ROOT
ATOM      1  C   UNL d   1      60.171  -2.275  28.875  0.00  0.00     0.343 A 
ATOM      2  N   UNL d   1      59.843  -1.565  29.114  0.00  0.00    -0.241 N 
ATOM      3  C   UNL d   1      59.042  -1.518  29.289  0.00  0.00     0.159 A 
ATOM      4  N   UNL d   1      59.696  -2.946  28.809  0.00  0.00    -0.224 N 
ATOM      5  C   UNL d   1      58.567  -2.189  29.222  0.00  0.00     0.099 A 
ATOM      6  C   UNL d   1      58.889  -2.915  28.980  0.00  0.00     0.271 A 
ATOM      7  O   UNL d   1      60.977  -2.321  28.700  0.00  0.00    -0.245 OA
ATOM      8  O   UNL d   1      58.419  -3.580  28.915  0.00  0.00    -0.266 OA
ATOM      9  C   UNL d   1      60.318  -0.894  29.181  0.00  0.00     0.105 C 
ATOM     10  C   UNL d   1      60.027  -3.664  28.567  0.00  0.00     0.107 C 
ENDROOT
BRANCH   3  11
ATOM     11  N   UNL d   1      58.709  -0.800  29.531  0.00  0.00    -0.190 NA
ATOM     12  C   UNL d   1      58.127  -0.791  30.111  0.00  0.00     0.281 C 
ATOM     13  O   UNL d   1      57.873  -1.498  30.453  0.00  0.00    -0.265 OA
BRANCH  12  14
ATOM     14  C   UNL d   1      57.796  -0.076  30.351  0.00  0.00     0.063 C 
BRANCH  14  15
ATOM     15  C   UNL d   1      57.382  -0.036  31.063  0.00  0.00     0.005 C 
ATOM     16  C   UNL d   1      57.094   0.666  31.343  0.00  0.00     0.000 C 
ENDBRANCH  14  15
ENDBRANCH  12  14
ENDBRANCH   3  11
TORSDOF 3
ENDMDL
MODEL 6
REMARK VINA RESULT:      -2.8      1.627      2.193
REMARK  3 active torsions:
REMARK  status: ('A' for Active; 'I' for Inactive)
REMARK    1  A    between atoms: N_7  and  C_3 
REMARK       I    between atoms: C_8  and  N_7 
REMARK    2  A    between atoms: C_14  and  C_8 
REMARK    3  A    between atoms: C_15  and  C_14 
ROOT
ATOM      1  C   UNL d   1      58.449   0.678  32.134  0.00  0.00     0.343 A 
ATOM      2  N   UNL d   1      57.955   0.680  32.786  0.00  0.00    -0.241 N 
ATOM      3  C   UNL d   1      57.140   0.678  32.687  0.00  0.00     0.159 A 
ATOM      4  N   UNL d   1      58.127   0.676  31.374  0.00  0.00    -0.224 N 
ATOM      5  C   UNL d   1      56.818   0.676  31.927  0.00  0.00     0.099 A 
ATOM      6  C   UNL d   1      57.310   0.675  31.258  0.00  0.00     0.271 A 
ATOM      7  O   UNL d   1      59.268   0.680  32.235  0.00  0.00    -0.245 OA
ATOM      8  O   UNL d   1      56.992   0.672  30.506  0.00  0.00    -0.266 OA
ATOM      9  C   UNL d   1      58.276   0.682  33.546  0.00  0.00     0.105 C 
ATOM     10  C   UNL d   1      58.626   0.675  30.715  0.00  0.00     0.107 C 
ENDROOT
BRANCH   3  11
ATOM     11  N   UNL d   1      56.639   0.680  33.346  0.00  0.00    -0.190 NA
ATOM     12  C   UNL d   1      55.936   0.254  33.330  0.00  0.00     0.281 C 
ATOM     13  O   UNL d   1      55.728  -0.175  32.657  0.00  0.00    -0.265 OA
BRANCH  12  14
ATOM     14  C   UNL d   1      55.439   0.256  33.987  0.00  0.00     0.063 C 
BRANCH  14  15
ATOM     15  C   UNL d   1      54.621   0.268  33.879  0.00  0.00     0.005 C 
ATOM     16  C   UNL d   1      54.135   0.651  34.399  0.00  0.00     0.000 C 
ENDBRANCH  14  15
ENDBRANCH  12  14
ENDBRANCH   3  11
TORSDOF 3
ENDMDL
MODEL 7
REMARK VINA RESULT:      -2.8      1.507      2.107
REMARK  3 active torsions:
REMARK  status: ('A' for Active; 'I' for Inactive)
REMARK    1  A    between atoms: N_7  and  C_3 
REMARK       I    between atoms: C_8  and  N_7 
REMARK    2  A    between atoms: C_14  and  C_8 
REMARK    3  A    between atoms: C_15  and  C_14 
ROOT
ATOM      1  C   UNL d   1      59.707  -1.375  28.993  0.00  0.00     0.343 A 
ATOM      2  N   UNL d   1      58.985  -1.266  29.360  0.00  0.00    -0.241 N 
ATOM      3  C   UNL d   1      58.738  -0.511  29.570  0.00  0.00     0.159 A 
ATOM      4  N   UNL d   1      60.190  -0.726  28.832  0.00  0.00    -0.224 N 
ATOM      5  C   UNL d   1      59.221   0.138  29.409  0.00  0.00     0.099 A 
ATOM      6  C   UNL d   1      59.956   0.039  29.036  0.00  0.00     0.271 A 
ATOM      7  O   UNL d   1      59.954  -2.135  28.783  0.00  0.00    -0.245 OA
ATOM      8  O   UNL d   1      60.434   0.682  28.876  0.00  0.00    -0.266 OA
ATOM      9  C   UNL d   1      58.502  -1.915  29.522  0.00  0.00     0.105 C 
ATOM     10  C   UNL d   1      60.920  -0.837  28.460  0.00  0.00     0.107 C 
ENDROOT
BRANCH   3  11
ATOM     11  N   UNL d   1      58.008  -0.399  29.942  0.00  0.00    -0.190 NA
ATOM     12  C   UNL d   1      57.961   0.046  30.632  0.00  0.00     0.281 C 
ATOM     13  O   UNL d   1      58.642   0.381  30.955  0.00  0.00    -0.265 OA
BRANCH  12  14
ATOM     14  C   UNL d   1      57.233   0.156  31.001  0.00  0.00     0.063 C 
BRANCH  14  15
ATOM     15  C   UNL d   1      57.203   0.287  31.815  0.00  0.00     0.005 C 
ATOM     16  C   UNL d   1      56.521   0.175  32.234  0.00  0.00     0.000 C 
ENDBRANCH  14  15
ENDBRANCH  12  14
ENDBRANCH   3  11
TORSDOF 3
ENDMDL
MODEL 8
REMARK VINA RESULT:      -2.7      1.599      3.990
REMARK  3 active torsions:
REMARK  status: ('A' for Active; 'I' for Inactive)
REMARK    1  A    between atoms: N_7  and  C_3 
REMARK       I    between atoms: C_8  and  N_7 
REMARK    2  A    between atoms: C_14  and  C_8 
REMARK    3  A    between atoms: C_15  and  C_14 
ROOT
ATOM      1  C   UNL d   1      56.085  -1.229  32.652  0.00  0.00     0.343 A 
ATOM      2  N   UNL d   1      56.520  -0.996  32.001  0.00  0.00    -0.241 N 
ATOM      3  C   UNL d   1      56.719  -0.205  31.898  0.00  0.00     0.159 A 
ATOM      4  N   UNL d   1      55.844  -0.670  33.209  0.00  0.00    -0.224 N 
ATOM      5  C   UNL d   1      56.478   0.354  32.455  0.00  0.00     0.099 A 
ATOM      6  C   UNL d   1      56.036   0.128  33.120  0.00  0.00     0.271 A 
ATOM      7  O   UNL d   1      55.886  -2.025  32.754  0.00  0.00    -0.245 OA
ATOM      8  O   UNL d   1      55.797   0.682  33.671  0.00  0.00    -0.266 OA
ATOM      9  C   UNL d   1      56.761  -1.555  31.444  0.00  0.00     0.105 C 
ATOM     10  C   UNL d   1      55.404  -0.906  33.868  0.00  0.00     0.107 C 
ENDROOT
BRANCH   3  11
ATOM     11  N   UNL d   1      57.159   0.032  31.240  0.00  0.00    -0.190 NA
ATOM     12  C   UNL d   1      57.863   0.446  31.342  0.00  0.00     0.281 C 
ATOM     13  O   UNL d   1      58.130   0.625  32.101  0.00  0.00    -0.265 OA
BRANCH  12  14
ATOM     14  C   UNL d   1      58.300   0.681  30.685  0.00  0.00     0.063 C 
BRANCH  14  15
ATOM     15  C   UNL d   1      59.122   0.614  30.696  0.00  0.00     0.005 C 
ATOM     16  C   UNL d   1      59.552   0.610  30.013  0.00  0.00     0.000 C 
ENDBRANCH  14  15
ENDBRANCH  12  14
ENDBRANCH   3  11
TORSDOF 3
ENDMDL
MODEL 9
REMARK VINA RESULT:      -2.1      2.616      3.908
REMARK  3 active torsions:
REMARK  status: ('A' for Active; 'I' for Inactive)
REMARK    1  A    between atoms: N_7  and  C_3 
REMARK       I    between atoms: C_8  and  N_7 
REMARK    2  A    between atoms: C_14  and  C_8 
REMARK    3  A    between atoms: C_15  and  C_14 
ROOT
ATOM      1  C   UNL d   1      59.835  -0.080  29.670  0.00  0.00     0.343 A 
ATOM      2  N   UNL d   1      60.312  -0.675  29.379  0.00  0.00    -0.241 N 
ATOM      3  C   UNL d   1      59.996  -1.264  28.901  0.00  0.00     0.159 A 
ATOM      4  N   UNL d   1      59.031  -0.068  29.484  0.00  0.00    -0.224 N 
ATOM      5  C   UNL d   1      59.192  -1.252  28.715  0.00  0.00     0.099 A 
ATOM      6  C   UNL d   1      58.697  -0.652  29.005  0.00  0.00     0.271 A 
ATOM      7  O   UNL d   1      60.155   0.511  30.151  0.00  0.00    -0.245 OA
ATOM      8  O   UNL d   1      57.901  -0.641  28.821  0.00  0.00    -0.266 OA
ATOM      9  C   UNL d   1      61.116  -0.687  29.565  0.00  0.00     0.105 C 
ATOM     10  C   UNL d   1      58.548   0.534  29.779  0.00  0.00     0.107 C 
ENDROOT
BRANCH   3  11
ATOM     11  N   UNL d   1      60.478  -1.867  28.606  0.00  0.00    -0.190 NA
ATOM     12  C   UNL d   1      60.302  -2.654  28.771  0.00  0.00     0.281 C 
ATOM     13  O   UNL d   1      59.643  -2.842  29.230  0.00  0.00    -0.265 OA
BRANCH  12  14
ATOM     14  C   UNL d   1      60.784  -3.253  28.476  0.00  0.00     0.063 C 
BRANCH  14  15
ATOM     15  C   UNL d   1      60.703  -4.021  28.767  0.00  0.00     0.005 C 
ATOM     16  C   UNL d   1      61.129  -4.634  28.456  0.00  0.00     0.000 C 
ENDBRANCH  14  15
ENDBRANCH  12  14
ENDBRANCH   3  11
TORSDOF 3
ENDMDL
