MODEL 1
REMARK VINA RESULT:      55.5      0.000      0.000
REMARK  3 active torsions:
REMARK  status: ('A' for Active; 'I' for Inactive)
REMARK    1  A    between atoms: N_3  and  C_1 
REMARK       I    between atoms: C_5  and  N_3 
REMARK    2  A    between atoms: C_4  and  C_5 
REMARK    3  A    between atoms: C_12  and  C_6 
ROOT
ATOM      1  C   UNL d   1     -56.607 -99.887 -43.976  0.00  0.00     0.249 A 
ATOM      2  N   UNL d   1     -57.084 -99.961 -44.649  0.00  0.00    -0.210 NA
ATOM      3  C   UNL d   1     -57.632 -99.330 -44.645  0.00  0.00     0.091 A 
ATOM      4  S   UNL d   1     -56.845 -99.223 -43.551  0.00  0.00    -0.033 SA
ATOM      5  C   UNL d   1     -57.487 -98.875 -43.972  0.00  0.00     0.059 A 
ENDROOT
BRANCH   1   6
ATOM      6  N   UNL d   1     -55.994-100.397 -43.768  0.00  0.00    -0.337 NA
ATOM      7  C   UNL d   1     -55.298-100.838 -43.796  0.00  0.00     0.355 C 
ATOM      8  O   UNL d   1     -54.810-100.807 -44.468  0.00  0.00    -0.249 OA
BRANCH   7   9
ATOM      9  C   UNL d   1     -55.080-101.316 -43.152  0.00  0.00     0.197 A 
ATOM     10  O   UNL d   1     -55.005-102.148 -43.155  0.00  0.00    -0.205 OA
ATOM     11  N   UNL d   1     -54.777-102.387 -42.395  0.00  0.00    -0.124 NA
ATOM     12  C   UNL d   1     -54.711-101.710 -41.922  0.00  0.00     0.130 A 
ATOM     13  C   UNL d   1     -54.897-101.045 -42.383  0.00  0.00     0.056 A 
ENDBRANCH   7   9
ENDBRANCH   1   6
BRANCH   3  14
ATOM     14  C   UNL d   1     -58.210 -99.188 -45.209  0.00  0.00     0.018 A 
ATOM     15  C   UNL d   1     -57.999 -98.956 -45.964  0.00  0.00     0.002 A 
ATOM     16  C   UNL d   1     -58.578 -98.813 -46.532  0.00  0.00     0.000 A 
ATOM     17  C   UNL d   1     -59.373 -98.905 -46.332  0.00  0.00     0.000 A 
ATOM     18  C   UNL d   1     -59.592 -99.139 -45.573  0.00  0.00     0.000 A 
ATOM     19  C   UNL d   1     -59.960 -98.762 -46.900  0.00  0.00     0.000 C 
ATOM     20  C   UNL d   1     -59.004 -99.282 -45.005  0.00  0.00     0.002 A 
ENDBRANCH   3  14
TORSDOF 3
ENDMDL
MODEL 2
REMARK VINA RESULT:      58.4      1.725      5.013
REMARK  3 active torsions:
REMARK  status: ('A' for Active; 'I' for Inactive)
REMARK    1  A    between atoms: N_3  and  C_1 
REMARK       I    between atoms: C_5  and  N_3 
REMARK    2  A    between atoms: C_4  and  C_5 
REMARK    3  A    between atoms: C_12  and  C_6 
ROOT
ATOM      1  C   UNL d   1     -56.289-100.484 -44.048  0.00  0.00     0.249 A 
ATOM      2  N   UNL d   1     -56.235-100.699 -43.250  0.00  0.00    -0.210 NA
ATOM      3  C   UNL d   1     -55.655-101.296 -43.185  0.00  0.00     0.091 A 
ATOM      4  S   UNL d   1     -55.754-100.934 -44.483  0.00  0.00    -0.033 SA
ATOM      5  C   UNL d   1     -55.357-101.442 -43.940  0.00  0.00     0.059 A 
ENDROOT
BRANCH   1   6
ATOM      6  N   UNL d   1     -56.796 -99.911 -44.355  0.00  0.00    -0.337 NA
ATOM      7  C   UNL d   1     -57.079 -99.252 -44.761  0.00  0.00     0.355 C 
ATOM      8  O   UNL d   1     -56.556 -98.767 -45.188  0.00  0.00    -0.249 OA
BRANCH   7   9
ATOM      9  C   UNL d   1     -57.890 -99.068 -44.746  0.00  0.00     0.197 A 
ATOM     10  O   UNL d   1     -58.378 -98.924 -45.409  0.00  0.00    -0.205 OA
ATOM     11  N   UNL d   1     -59.143 -98.764 -45.133  0.00  0.00    -0.124 NA
ATOM     12  C   UNL d   1     -59.132 -98.808 -44.305  0.00  0.00     0.130 A 
ATOM     13  C   UNL d   1     -58.361 -98.995 -44.060  0.00  0.00     0.056 A 
ENDBRANCH   7   9
ENDBRANCH   1   6
BRANCH   3  14
ATOM     14  C   UNL d   1     -55.422-101.670 -42.493  0.00  0.00     0.018 A 
ATOM     15  C   UNL d   1     -55.002-101.258 -41.925  0.00  0.00     0.002 A 
ATOM     16  C   UNL d   1     -54.767-101.632 -41.229  0.00  0.00     0.000 A 
ATOM     17  C   UNL d   1     -54.959-102.425 -41.111  0.00  0.00     0.000 A 
ATOM     18  C   UNL d   1     -55.382-102.845 -41.680  0.00  0.00     0.000 A 
ATOM     19  C   UNL d   1     -54.725-102.807 -40.413  0.00  0.00     0.000 C 
ATOM     20  C   UNL d   1     -55.616-102.464 -42.378  0.00  0.00     0.002 A 
ENDBRANCH   3  14
TORSDOF 3
ENDMDL
