MODEL 1
REMARK VINA RESULT:      41.3      0.000      0.000
REMARK  4 active torsions:
REMARK  status: ('A' for Active; 'I' for Inactive)
REMARK    1  A    between atoms: C_12  and  N_1 
REMARK    2  A    between atoms: N_2  and  C_11 
REMARK    3  A    between atoms: C_11  and  C_15 
REMARK    4  A    between atoms: C_15  and  C_12 
ROOT
ATOM      1  N   UNL d   1      13.099  12.994  -3.979  0.00  0.00    -0.303 N 
ATOM      2  C   UNL d   1      13.116  12.593  -4.715  0.00  0.00     0.064 A 
ATOM      3  C   UNL d   1      13.254  13.168  -5.311  0.00  0.00     0.018 A 
ATOM      4  C   UNL d   1      13.320  13.909  -4.940  0.00  0.00     0.018 A 
ATOM      5  C   UNL d   1      13.226  13.802  -4.125  0.00  0.00     0.064 A 
ATOM      6  C   UNL d   1      13.266  14.450  -3.616  0.00  0.00     0.018 A 
ATOM      7  C   UNL d   1      13.455  14.664  -5.244  0.00  0.00     0.002 A 
ATOM      8  C   UNL d   1      13.400  15.205  -3.921  0.00  0.00     0.002 A 
ATOM      9  C   UNL d   1      13.495  15.312  -4.736  0.00  0.00     0.000 A 
ATOM     10  C   UNL d   1      13.015  11.780  -4.833  0.00  0.00     0.019 C 
ATOM     11  C   UNL d   1      13.313  13.022  -6.116  0.00  0.00     0.002 C 
ATOM     12  C   UNL d   1      13.629  16.066  -5.041  0.00  0.00     0.000 C 
ENDROOT
BRANCH   1  13
ATOM     13  C   UNL d   1      12.978  12.634  -3.243  0.00  0.00     0.124 C 
BRANCH  13  14
ATOM     14  C   UNL d   1      13.531  12.087  -2.962  0.00  0.00     0.232 C 
ATOM     15  O   UNL d   1      14.108  11.779  -3.470  0.00  0.00    -0.283 OA
BRANCH  14  16
ATOM     16  C   UNL d   1      13.507  11.848  -2.176  0.00  0.00     0.144 C 
BRANCH  16  17
ATOM     17  N   UNL d   1      14.112  12.068  -1.654  0.00  0.00    -0.225 N 
ATOM     18  N   UNL d   1      14.884  11.781  -1.661  0.00  0.00    -0.165 NA
ATOM     19  C   UNL d   1      15.302  12.147  -1.046  0.00  0.00     0.109 A 
ATOM     20  C   UNL d   1      16.093  12.019  -0.856  0.00  0.00     0.023 C 
ATOM     21  C   UNL d   1      14.780  12.663  -0.660  0.00  0.00     0.072 A 
ATOM     22  C   UNL d   1      14.048  12.617  -1.032  0.00  0.00     0.091 A 
ATOM     23 BR   UNL d   1      14.964  13.142  -0.014  0.00  0.00    -0.046 Br
ATOM     24  C   UNL d   1      13.369  13.038  -0.826  0.00  0.00     0.021 C 
ENDBRANCH  16  17
ENDBRANCH  14  16
ENDBRANCH  13  14
ENDBRANCH   1  13
TORSDOF 4
ENDMDL
