MODEL 1
REMARK VINA RESULT:       4.1      0.000      0.000
REMARK  6 active torsions:
REMARK  status: ('A' for Active; 'I' for Inactive)
REMARK    1  A    between atoms: C_3  and  C_1 
REMARK    2  A    between atoms: N_9  and  C_3 
REMARK    3  A    between atoms: C_13  and  C_3 
REMARK    4  A    between atoms: N_4  and  C_10 
REMARK    5  A    between atoms: C_19  and  C_8 
REMARK    6  A    between atoms: C_15  and  N_9 
ROOT
ATOM      1  C   UNL d   1     -41.863-122.193 -50.884  0.00  0.00     0.125 C 
ENDROOT
BRANCH   1   2
ATOM      2  C   UNL d   1     -41.667-122.225 -51.700  0.00  0.00     0.161 A 
ATOM      3  C   UNL d   1     -41.524-121.542 -52.123  0.00  0.00     0.258 A 
ATOM      4  C   UNL d   1     -41.331-121.588 -52.931  0.00  0.00     0.238 A 
ATOM      5  O   UNL d   1     -41.566-120.787 -51.754  0.00  0.00    -0.281 OA
ATOM      6  O   UNL d   1     -41.187-120.905 -53.354  0.00  0.00    -0.283 OA
ATOM      7  C   UNL d   1     -41.286-122.323 -53.304  0.00  0.00     0.073 A 
ATOM      8  C   UNL d   1     -41.429-123.006 -52.881  0.00  0.00     0.146 A 
ATOM      9  O   UNL d   1     -41.621-122.964 -52.079  0.00  0.00    -0.299 OA
BRANCH   8  10
ATOM     10  C   UNL d   1     -41.383-123.745 -53.260  0.00  0.00     0.259 C 
ATOM     11  O   UNL d   1     -41.513-123.817 -54.067  0.00  0.00    -0.281 OA
ENDBRANCH   8  10
ENDBRANCH   1   2
BRANCH   1  12
ATOM     12  N   UNL d   1     -41.282-122.099 -50.319  0.00  0.00    -0.242 NA
BRANCH  12  13
ATOM     13  C   UNL d   1     -41.279-122.557 -49.649  0.00  0.00     0.083 A 
ATOM     14  C   UNL d   1     -41.435-122.205 -48.912  0.00  0.00     0.043 A 
ATOM     15  C   UNL d   1     -41.435-122.664 -48.222  0.00  0.00     0.128 A 
ATOM     16  C   UNL d   1     -41.280-123.464 -48.265  0.00  0.00     0.024 A 
ATOM     17  C   UNL d   1     -41.123-123.817 -48.999  0.00  0.00     0.003 A 
ATOM     18  C   UNL d   1     -41.124-123.357 -49.692  0.00  0.00     0.019 A 
BRANCH  15  19
ATOM     19  N   UNL d   1     -41.589-122.324 -47.486  0.00  0.00    -0.114 N 
ATOM     20  O   UNL d   1     -42.205-122.570 -46.978  0.00  0.00    -0.532 OA
ATOM     21  O   UNL d   1     -41.160-121.705 -47.163  0.00  0.00    -0.532 OA
ENDBRANCH  15  19
ENDBRANCH  12  13
ENDBRANCH   1  12
BRANCH   1  22
ATOM     22  C   UNL d   1     -42.657-122.257 -50.655  0.00  0.00     0.101 A 
ATOM     23  N   UNL d   1     -43.048-122.989 -50.704  0.00  0.00    -0.242 NA
ATOM     24  C   UNL d   1     -43.838-123.051 -50.476  0.00  0.00     0.099 A 
ATOM     25  C   UNL d   1     -44.238-122.394 -50.202  0.00  0.00     0.021 A 
ATOM     26  C   UNL d   1     -43.843-121.681 -50.158  0.00  0.00     0.003 A 
ATOM     27  C   UNL d   1     -43.068-121.609 -50.379  0.00  0.00     0.021 A 
ENDBRANCH   1  22
TORSDOF 6
ENDMDL
MODEL 2
REMARK VINA RESULT:       5.6      1.092      1.863
REMARK  6 active torsions:
REMARK  status: ('A' for Active; 'I' for Inactive)
REMARK    1  A    between atoms: C_3  and  C_1 
REMARK    2  A    between atoms: N_9  and  C_3 
REMARK    3  A    between atoms: C_13  and  C_3 
REMARK    4  A    between atoms: N_4  and  C_10 
REMARK    5  A    between atoms: C_19  and  C_8 
REMARK    6  A    between atoms: C_15  and  N_9 
ROOT
ATOM      1  C   UNL d   1     -42.843-122.900 -50.474  0.00  0.00     0.125 C 
ENDROOT
BRANCH   1   2
ATOM      2  C   UNL d   1     -42.269-122.590 -51.002  0.00  0.00     0.161 A 
ATOM      3  C   UNL d   1     -41.994-123.034 -51.629  0.00  0.00     0.258 A 
ATOM      4  C   UNL d   1     -41.424-122.714 -52.144  0.00  0.00     0.238 A 
ATOM      5  O   UNL d   1     -42.277-123.815 -51.765  0.00  0.00    -0.281 OA
ATOM      6  O   UNL d   1     -41.149-123.159 -52.771  0.00  0.00    -0.283 OA
ATOM      7  C   UNL d   1     -41.138-121.950 -52.021  0.00  0.00     0.073 A 
ATOM      8  C   UNL d   1     -41.413-121.506 -51.395  0.00  0.00     0.146 A 
ATOM      9  O   UNL d   1     -41.978-121.819 -50.881  0.00  0.00    -0.299 OA
BRANCH   8  10
ATOM     10  C   UNL d   1     -41.123-120.736 -51.274  0.00  0.00     0.259 C 
ATOM     11  O   UNL d   1     -41.232-120.148 -51.836  0.00  0.00    -0.281 OA
ENDBRANCH   8  10
ENDBRANCH   1   2
BRANCH   1  12
ATOM     12  N   UNL d   1     -42.716-123.606 -50.085  0.00  0.00    -0.242 NA
BRANCH  12  13
ATOM     13  C   UNL d   1     -42.320-123.622 -49.376  0.00  0.00     0.083 A 
ATOM     14  C   UNL d   1     -42.740-123.490 -48.671  0.00  0.00     0.043 A 
ATOM     15  C   UNL d   1     -42.345-123.505 -47.942  0.00  0.00     0.128 A 
ATOM     16  C   UNL d   1     -41.543-123.650 -47.917  0.00  0.00     0.024 A 
ATOM     17  C   UNL d   1     -41.123-123.782 -48.619  0.00  0.00     0.003 A 
ATOM     18  C   UNL d   1     -41.518-123.767 -49.351  0.00  0.00     0.019 A 
BRANCH  15  19
ATOM     19  N   UNL d   1     -42.753-123.375 -47.237  0.00  0.00    -0.114 N 
ATOM     20  O   UNL d   1     -42.547-122.787 -46.680  0.00  0.00    -0.532 OA
ATOM     21  O   UNL d   1     -43.408-123.804 -46.994  0.00  0.00    -0.532 OA
ENDBRANCH  15  19
ENDBRANCH  12  13
ENDBRANCH   1  12
BRANCH   1  22
ATOM     22  C   UNL d   1     -43.547-122.481 -50.350  0.00  0.00     0.101 A 
ATOM     23  N   UNL d   1     -44.280-122.833 -50.525  0.00  0.00    -0.242 NA
ATOM     24  C   UNL d   1     -44.980-122.414 -50.401  0.00  0.00     0.099 A 
ATOM     25  C   UNL d   1     -44.955-121.653 -50.107  0.00  0.00     0.021 A 
ATOM     26  C   UNL d   1     -44.230-121.318 -49.939  0.00  0.00     0.003 A 
ATOM     27  C   UNL d   1     -43.537-121.719 -50.056  0.00  0.00     0.021 A 
ENDBRANCH   1  22
TORSDOF 6
ENDMDL
MODEL 3
REMARK VINA RESULT:       7.0      1.491      3.799
REMARK  6 active torsions:
REMARK  status: ('A' for Active; 'I' for Inactive)
REMARK    1  A    between atoms: C_3  and  C_1 
REMARK    2  A    between atoms: N_9  and  C_3 
REMARK    3  A    between atoms: C_13  and  C_3 
REMARK    4  A    between atoms: N_4  and  C_10 
REMARK    5  A    between atoms: C_19  and  C_8 
REMARK    6  A    between atoms: C_15  and  N_9 
ROOT
ATOM      1  C   UNL d   1     -41.983-122.448 -50.053  0.00  0.00     0.125 C 
ENDROOT
BRANCH   1   2
ATOM      2  C   UNL d   1     -42.812-122.404 -50.176  0.00  0.00     0.161 A 
ATOM      3  C   UNL d   1     -43.171-121.693 -50.352  0.00  0.00     0.258 A 
ATOM      4  C   UNL d   1     -43.994-121.664 -50.471  0.00  0.00     0.238 A 
ATOM      5  O   UNL d   1     -42.723-120.984 -50.415  0.00  0.00    -0.281 OA
ATOM      6  O   UNL d   1     -44.354-120.952 -50.647  0.00  0.00    -0.283 OA
ATOM      7  C   UNL d   1     -44.446-122.352 -50.412  0.00  0.00     0.073 A 
ATOM      8  C   UNL d   1     -44.086-123.063 -50.237  0.00  0.00     0.146 A 
ATOM      9  O   UNL d   1     -43.270-123.096 -50.117  0.00  0.00    -0.299 OA
BRANCH   8  10
ATOM     10  C   UNL d   1     -44.544-123.755 -50.178  0.00  0.00     0.259 C 
ATOM     11  O   UNL d   1     -45.347-123.720 -50.011  0.00  0.00    -0.281 OA
ENDBRANCH   8  10
ENDBRANCH   1   2
BRANCH   1  12
ATOM     12  N   UNL d   1     -41.461-122.204 -50.630  0.00  0.00    -0.242 NA
BRANCH  12  13
ATOM     13  C   UNL d   1     -41.393-122.614 -51.327  0.00  0.00     0.083 A 
ATOM     14  C   UNL d   1     -41.529-122.221 -52.048  0.00  0.00     0.043 A 
ATOM     15  C   UNL d   1     -41.462-122.631 -52.765  0.00  0.00     0.128 A 
ATOM     16  C   UNL d   1     -41.262-123.422 -52.764  0.00  0.00     0.024 A 
ATOM     17  C   UNL d   1     -41.126-123.815 -52.047  0.00  0.00     0.003 A 
ATOM     18  C   UNL d   1     -41.193-123.405 -51.327  0.00  0.00     0.019 A 
BRANCH  15  19
ATOM     19  N   UNL d   1     -41.595-122.251 -53.485  0.00  0.00    -0.114 N 
ATOM     20  O   UNL d   1     -42.118-121.606 -53.582  0.00  0.00    -0.532 OA
ATOM     21  O   UNL d   1     -41.233-122.456 -54.191  0.00  0.00    -0.532 OA
ENDBRANCH  15  19
ENDBRANCH  12  13
ENDBRANCH   1  12
BRANCH   1  22
ATOM     22  C   UNL d   1     -41.695-122.744 -49.334  0.00  0.00     0.101 A 
ATOM     23  N   UNL d   1     -41.648-122.250 -48.667  0.00  0.00    -0.242 NA
ATOM     24  C   UNL d   1     -41.362-122.546 -47.952  0.00  0.00     0.099 A 
ATOM     25  C   UNL d   1     -41.125-123.325 -47.898  0.00  0.00     0.021 A 
ATOM     26  C   UNL d   1     -41.176-123.801 -48.559  0.00  0.00     0.003 A 
ATOM     27  C   UNL d   1     -41.455-123.521 -49.265  0.00  0.00     0.021 A 
ENDBRANCH   1  22
TORSDOF 6
ENDMDL
