MODEL 1
REMARK VINA RESULT:      -3.6      0.000      0.000
REMARK  4 active torsions:
REMARK  status: ('A' for Active; 'I' for Inactive)
REMARK    1  A    between atoms: C_4  and  S_1 
REMARK    2  A    between atoms: N_8  and  S_1 
REMARK    3  A    between atoms: C_5  and  C_11 
REMARK    4  A    between atoms: C_16  and  N_8 
ROOT
ATOM      1  C   UNL d   1      32.772  18.442 -23.710  0.00  0.00     0.021 A 
ATOM      2  C   UNL d   1      32.088  17.220 -24.033  0.00  0.00     0.094 A 
ATOM      3  C   UNL d   1      32.190  17.867 -23.535  0.00  0.00     0.021 A 
ATOM      4  C   UNL d   1      33.240  18.359 -24.379  0.00  0.00     0.002 A 
ATOM      5  C   UNL d   1      33.144  17.708 -24.888  0.00  0.00     0.002 A 
ATOM      6  C   UNL d   1      32.562  17.133 -24.713  0.00  0.00     0.020 A 
ENDROOT
BRANCH   2   7
ATOM      7  N   UNL d   1      31.520  16.658 -23.862  0.00  0.00    -0.158 NA
BRANCH   7   8
ATOM      8  S   UNL d   1      31.114  16.283 -24.472  0.00  0.00     0.287 S 
ATOM      9  O   UNL d   1      31.706  16.485 -24.995  0.00  0.00    -0.198 OA
ATOM     10  O   UNL d   1      30.715  15.909 -25.095  0.00  0.00    -0.198 OA
BRANCH   8  11
ATOM     11  C   UNL d   1      30.511  16.075 -23.951  0.00  0.00     0.133 A 
ATOM     12  C   UNL d   1      29.734  16.282 -24.123  0.00  0.00     0.155 A 
ATOM     13  C   UNL d   1      29.128  16.078 -23.609  0.00  0.00     0.060 A 
ATOM     14  F   UNL d   1      29.560  16.697 -24.815  0.00  0.00    -0.203 F 
ATOM     15  C   UNL d   1      29.300  15.659 -22.909  0.00  0.00     0.142 A 
ATOM     16  C   UNL d   1      30.081  15.453 -22.740  0.00  0.00     0.030 A 
ATOM     17  F   UNL d   1      28.691  15.453 -22.390  0.00  0.00    -0.204 F 
ATOM     18  C   UNL d   1      30.682  15.658 -23.254  0.00  0.00     0.018 A 
ENDBRANCH   8  11
ENDBRANCH   7   8
ENDBRANCH   2   7
BRANCH   1  19
ATOM     19  C   UNL d   1      32.874  19.089 -23.213  0.00  0.00     0.101 A 
ATOM     20  N   UNL d   1      32.822  19.077 -22.392  0.00  0.00    -0.221 NA
ATOM     21  C   UNL d   1      32.962  19.846 -22.110  0.00  0.00     0.179 A 
ATOM     22  S   UNL d   1      33.017  20.312 -21.445  0.00  0.00    -0.048 SA
ATOM     23  N   UNL d   1      33.101  20.330 -22.778  0.00  0.00    -0.282 N 
ATOM     24  C   UNL d   1      33.189  21.085 -21.679  0.00  0.00     0.057 A 
ATOM     25  C   UNL d   1      33.241  21.099 -22.505  0.00  0.00     0.089 A 
ATOM     26  C   UNL d   1      33.043  19.851 -23.452  0.00  0.00     0.101 A 
ENDBRANCH   1  19
TORSDOF 4
ENDMDL
MODEL 2
REMARK VINA RESULT:      -3.4      2.301      4.903
REMARK  4 active torsions:
REMARK  status: ('A' for Active; 'I' for Inactive)
REMARK    1  A    between atoms: C_4  and  S_1 
REMARK    2  A    between atoms: N_8  and  S_1 
REMARK    3  A    between atoms: C_5  and  C_11 
REMARK    4  A    between atoms: C_16  and  N_8 
ROOT
ATOM      1  C   UNL d   1      31.749  17.542 -24.080  0.00  0.00     0.021 A 
ATOM      2  C   UNL d   1      32.573  18.635 -23.640  0.00  0.00     0.094 A 
ATOM      3  C   UNL d   1      31.837  18.269 -23.675  0.00  0.00     0.021 A 
ATOM      4  C   UNL d   1      32.399  17.195 -24.441  0.00  0.00     0.002 A 
ATOM      5  C   UNL d   1      33.148  17.557 -24.410  0.00  0.00     0.002 A 
ATOM      6  C   UNL d   1      33.236  18.284 -24.006  0.00  0.00     0.020 A 
ENDROOT
BRANCH   2   7
ATOM      7  N   UNL d   1      32.659  19.345 -23.245  0.00  0.00    -0.158 NA
BRANCH   7   8
ATOM      8  S   UNL d   1      32.949  19.356 -22.475  0.00  0.00     0.287 S 
ATOM      9  O   UNL d   1      32.968  18.540 -22.466  0.00  0.00    -0.198 OA
ATOM     10  O   UNL d   1      33.241  19.354 -21.699  0.00  0.00    -0.198 OA
BRANCH   8  11
ATOM     11  C   UNL d   1      32.933  20.180 -22.475  0.00  0.00     0.133 A 
ATOM     12  C   UNL d   1      32.610  20.581 -21.833  0.00  0.00     0.155 A 
ATOM     13  C   UNL d   1      32.591  21.401 -21.825  0.00  0.00     0.060 A 
ATOM     14  F   UNL d   1      32.304  20.159 -21.193  0.00  0.00    -0.203 F 
ATOM     15  C   UNL d   1      32.899  21.830 -22.470  0.00  0.00     0.142 A 
ATOM     16  C   UNL d   1      33.222  21.424 -23.111  0.00  0.00     0.030 A 
ATOM     17  F   UNL d   1      32.881  22.656 -22.464  0.00  0.00    -0.204 F 
ATOM     18  C   UNL d   1      33.240  20.607 -23.116  0.00  0.00     0.018 A 
ENDBRANCH   8  11
ENDBRANCH   7   8
ENDBRANCH   2   7
BRANCH   1  19
ATOM     19  C   UNL d   1      31.013  17.176 -24.115  0.00  0.00     0.101 A 
ATOM     20  N   UNL d   1      30.845  16.410 -23.868  0.00  0.00    -0.221 NA
ATOM     21  C   UNL d   1      30.038  16.263 -24.002  0.00  0.00     0.179 A 
ATOM     22  S   UNL d   1      29.441  15.714 -23.936  0.00  0.00    -0.048 SA
ATOM     23  N   UNL d   1      29.716  16.960 -24.336  0.00  0.00    -0.282 N 
ATOM     24  C   UNL d   1      28.743  16.050 -24.224  0.00  0.00     0.057 A 
ATOM     25  C   UNL d   1      28.911  16.821 -24.473  0.00  0.00     0.089 A 
ATOM     26  C   UNL d   1      30.328  17.515 -24.401  0.00  0.00     0.101 A 
ENDBRANCH   1  19
TORSDOF 4
ENDMDL
MODEL 3
REMARK VINA RESULT:      -3.2      2.128      4.824
REMARK  4 active torsions:
REMARK  status: ('A' for Active; 'I' for Inactive)
REMARK    1  A    between atoms: C_4  and  S_1 
REMARK    2  A    between atoms: N_8  and  S_1 
REMARK    3  A    between atoms: C_5  and  C_11 
REMARK    4  A    between atoms: C_16  and  N_8 
ROOT
ATOM      1  C   UNL d   1      30.802  16.082 -24.033  0.00  0.00     0.021 A 
ATOM      2  C   UNL d   1      31.946  16.953 -23.998  0.00  0.00     0.094 A 
ATOM      3  C   UNL d   1      31.137  16.838 -23.900  0.00  0.00     0.021 A 
ATOM      4  C   UNL d   1      31.282  15.457 -24.261  0.00  0.00     0.002 A 
ATOM      5  C   UNL d   1      32.101  15.564 -24.362  0.00  0.00     0.002 A 
ATOM      6  C   UNL d   1      32.436  16.319 -24.229  0.00  0.00     0.020 A 
ENDROOT
BRANCH   2   7
ATOM      7  N   UNL d   1      32.273  17.690 -23.868  0.00  0.00    -0.158 NA
BRANCH   7   8
ATOM      8  S   UNL d   1      32.756  17.817 -23.214  0.00  0.00     0.287 S 
ATOM      9  O   UNL d   1      32.641  17.046 -22.974  0.00  0.00    -0.198 OA
ATOM     10  O   UNL d   1      33.240  17.933 -22.552  0.00  0.00    -0.198 OA
BRANCH   8  11
ATOM     11  C   UNL d   1      32.877  18.598 -23.449  0.00  0.00     0.133 A 
ATOM     12  C   UNL d   1      32.830  19.202 -22.892  0.00  0.00     0.155 A 
ATOM     13  C   UNL d   1      32.950  19.982 -23.118  0.00  0.00     0.060 A 
ATOM     14  F   UNL d   1      32.662  19.027 -22.104  0.00  0.00    -0.203 F 
ATOM     15  C   UNL d   1      33.120  20.163 -23.913  0.00  0.00     0.142 A 
ATOM     16  C   UNL d   1      33.166  19.554 -24.468  0.00  0.00     0.030 A 
ATOM     17  F   UNL d   1      33.241  20.947 -24.143  0.00  0.00    -0.204 F 
ATOM     18  C   UNL d   1      33.046  18.779 -24.240  0.00  0.00     0.018 A 
ENDBRANCH   8  11
ENDBRANCH   7   8
ENDBRANCH   2   7
BRANCH   1  19
ATOM     19  C   UNL d   1      29.993  15.968 -23.936  0.00  0.00     0.101 A 
ATOM     20  N   UNL d   1      29.575  16.067 -23.235  0.00  0.00    -0.221 NA
ATOM     21  C   UNL d   1      28.775  15.894 -23.381  0.00  0.00     0.179 A 
ATOM     22  S   UNL d   1      28.033  15.848 -23.051  0.00  0.00    -0.048 SA
ATOM     23  N   UNL d   1      28.714  15.686 -24.189  0.00  0.00    -0.282 N 
ATOM     24  C   UNL d   1      27.499  15.613 -23.636  0.00  0.00     0.057 A 
ATOM     25  C   UNL d   1      27.919  15.513 -24.342  0.00  0.00     0.089 A 
ATOM     26  C   UNL d   1      29.472  15.736 -24.520  0.00  0.00     0.101 A 
ENDBRANCH   1  19
TORSDOF 4
ENDMDL
MODEL 4
REMARK VINA RESULT:      -2.5      1.807      2.679
REMARK  4 active torsions:
REMARK  status: ('A' for Active; 'I' for Inactive)
REMARK    1  A    between atoms: C_4  and  S_1 
REMARK    2  A    between atoms: N_8  and  S_1 
REMARK    3  A    between atoms: C_5  and  C_11 
REMARK    4  A    between atoms: C_16  and  N_8 
ROOT
ATOM      1  C   UNL d   1      33.046  20.758 -22.872  0.00  0.00     0.021 A 
ATOM      2  C   UNL d   1      33.000  19.546 -23.643  0.00  0.00     0.094 A 
ATOM      3  C   UNL d   1      32.950  19.928 -22.917  0.00  0.00     0.021 A 
ATOM      4  C   UNL d   1      33.189  21.189 -23.556  0.00  0.00     0.002 A 
ATOM      5  C   UNL d   1      33.241  20.812 -24.295  0.00  0.00     0.002 A 
ATOM      6  C   UNL d   1      33.145  19.981 -24.339  0.00  0.00     0.020 A 
ENDROOT
BRANCH   2   7
ATOM      7  N   UNL d   1      32.906  18.735 -23.686  0.00  0.00    -0.158 NA
BRANCH   7   8
ATOM      8  S   UNL d   1      32.635  18.388 -24.381  0.00  0.00     0.287 S 
ATOM      9  O   UNL d   1      32.710  19.101 -24.771  0.00  0.00    -0.198 OA
ATOM     10  O   UNL d   1      32.362  18.050 -25.087  0.00  0.00    -0.198 OA
BRANCH   8  11
ATOM     11  C   UNL d   1      32.555  17.665 -23.995  0.00  0.00     0.133 A 
ATOM     12  C   UNL d   1      31.805  17.355 -23.861  0.00  0.00     0.155 A 
ATOM     13  C   UNL d   1      31.717  16.635 -23.477  0.00  0.00     0.060 A 
ATOM     14  F   UNL d   1      31.136  17.767 -24.112  0.00  0.00    -0.203 F 
ATOM     15  C   UNL d   1      32.391  16.215 -23.222  0.00  0.00     0.142 A 
ATOM     16  C   UNL d   1      33.141  16.529 -23.359  0.00  0.00     0.030 A 
ATOM     17  F   UNL d   1      32.305  15.490 -22.836  0.00  0.00    -0.204 F 
ATOM     18  C   UNL d   1      33.225  17.246 -23.741  0.00  0.00     0.018 A 
ENDBRANCH   8  11
ENDBRANCH   7   8
ENDBRANCH   2   7
BRANCH   1  19
ATOM     19  C   UNL d   1      32.997  21.141 -22.145  0.00  0.00     0.101 A 
ATOM     20  N   UNL d   1      32.720  21.905 -22.023  0.00  0.00    -0.221 NA
ATOM     21  C   UNL d   1      32.764  22.072 -21.210  0.00  0.00     0.179 A 
ATOM     22  S   UNL d   1      32.626  22.633 -20.636  0.00  0.00    -0.048 SA
ATOM     23  N   UNL d   1      33.075  21.390 -20.838  0.00  0.00    -0.282 N 
ATOM     24  C   UNL d   1      32.844  22.318 -19.904  0.00  0.00     0.057 A 
ATOM     25  C   UNL d   1      33.123  21.549 -20.026  0.00  0.00     0.089 A 
ATOM     26  C   UNL d   1      33.214  20.823 -21.426  0.00  0.00     0.101 A 
ENDBRANCH   1  19
TORSDOF 4
ENDMDL
MODEL 5
REMARK VINA RESULT:      -1.9      3.929      6.410
REMARK  4 active torsions:
REMARK  status: ('A' for Active; 'I' for Inactive)
REMARK    1  A    between atoms: C_4  and  S_1 
REMARK    2  A    between atoms: N_8  and  S_1 
REMARK    3  A    between atoms: C_5  and  C_11 
REMARK    4  A    between atoms: C_16  and  N_8 
ROOT
ATOM      1  C   UNL d   1      33.019  21.252 -22.529  0.00  0.00     0.021 A 
ATOM      2  C   UNL d   1      32.883  22.333 -21.592  0.00  0.00     0.094 A 
ATOM      3  C   UNL d   1      32.921  21.526 -21.745  0.00  0.00     0.021 A 
ATOM      4  C   UNL d   1      33.077  21.792 -23.145  0.00  0.00     0.002 A 
ATOM      5  C   UNL d   1      33.040  22.610 -23.000  0.00  0.00     0.002 A 
ATOM      6  C   UNL d   1      32.941  22.884 -22.215  0.00  0.00     0.020 A 
ENDROOT
BRANCH   2   7
ATOM      7  N   UNL d   1      32.787  22.601 -20.825  0.00  0.00    -0.158 NA
BRANCH   7   8
ATOM      8  S   UNL d   1      32.195  23.144 -20.650  0.00  0.00     0.287 S 
ATOM      9  O   UNL d   1      31.953  23.139 -21.429  0.00  0.00    -0.198 OA
ATOM     10  O   UNL d   1      31.595  23.692 -20.485  0.00  0.00    -0.198 OA
BRANCH   8  11
ATOM     11  C   UNL d   1      32.433  23.156 -19.861  0.00  0.00     0.133 A 
ATOM     12  C   UNL d   1      32.096  22.629 -19.326  0.00  0.00     0.155 A 
ATOM     13  C   UNL d   1      32.327  22.635 -18.538  0.00  0.00     0.060 A 
ATOM     14  F   UNL d   1      31.523  22.092 -19.579  0.00  0.00    -0.203 F 
ATOM     15  C   UNL d   1      32.905  23.176 -18.279  0.00  0.00     0.142 A 
ATOM     16  C   UNL d   1      33.241  23.702 -18.819  0.00  0.00     0.030 A 
ATOM     17  F   UNL d   1      33.140  23.184 -17.487  0.00  0.00    -0.204 F 
ATOM     18  C   UNL d   1      33.008  23.694 -19.602  0.00  0.00     0.018 A 
ENDBRANCH   8  11
ENDBRANCH   7   8
ENDBRANCH   2   7
BRANCH   1  19
ATOM     19  C   UNL d   1      33.057  20.445 -22.683  0.00  0.00     0.101 A 
ATOM     20  N   UNL d   1      33.008  19.847 -22.121  0.00  0.00    -0.221 NA
ATOM     21  C   UNL d   1      33.071  19.116 -22.510  0.00  0.00     0.179 A 
ATOM     22  S   UNL d   1      33.081  18.307 -22.414  0.00  0.00    -0.048 SA
ATOM     23  N   UNL d   1      33.159  19.281 -23.326  0.00  0.00    -0.282 N 
ATOM     24  C   UNL d   1      33.174  17.956 -23.155  0.00  0.00     0.057 A 
ATOM     25  C   UNL d   1      33.223  18.557 -23.722  0.00  0.00     0.089 A 
ATOM     26  C   UNL d   1      33.149  20.105 -23.418  0.00  0.00     0.101 A 
ENDBRANCH   1  19
TORSDOF 4
ENDMDL
MODEL 6
REMARK VINA RESULT:      -1.4      3.134      5.407
REMARK  4 active torsions:
REMARK  status: ('A' for Active; 'I' for Inactive)
REMARK    1  A    between atoms: C_4  and  S_1 
REMARK    2  A    between atoms: N_8  and  S_1 
REMARK    3  A    between atoms: C_5  and  C_11 
REMARK    4  A    between atoms: C_16  and  N_8 
ROOT
ATOM      1  C   UNL d   1      32.865  19.513 -23.821  0.00  0.00     0.021 A 
ATOM      2  C   UNL d   1      32.977  20.813 -23.218  0.00  0.00     0.094 A 
ATOM      3  C   UNL d   1      32.818  20.009 -23.148  0.00  0.00     0.021 A 
ATOM      4  C   UNL d   1      33.071  19.831 -24.549  0.00  0.00     0.002 A 
ATOM      5  C   UNL d   1      33.233  20.643 -24.629  0.00  0.00     0.002 A 
ATOM      6  C   UNL d   1      33.186  21.139 -23.956  0.00  0.00     0.020 A 
ENDROOT
BRANCH   2   7
ATOM      7  N   UNL d   1      32.930  21.298 -22.562  0.00  0.00    -0.158 NA
BRANCH   7   8
ATOM      8  S   UNL d   1      33.034  22.110 -22.641  0.00  0.00     0.287 S 
ATOM      9  O   UNL d   1      33.234  22.012 -23.426  0.00  0.00    -0.198 OA
ATOM     10  O   UNL d   1      33.141  22.927 -22.733  0.00  0.00    -0.198 OA
BRANCH   8  11
ATOM     11  C   UNL d   1      32.832  22.219 -21.849  0.00  0.00     0.133 A 
ATOM     12  C   UNL d   1      32.220  22.732 -21.652  0.00  0.00     0.155 A 
ATOM     13  C   UNL d   1      32.014  22.845 -20.866  0.00  0.00     0.060 A 
ATOM     14  F   UNL d   1      31.811  23.136 -22.243  0.00  0.00    -0.203 F 
ATOM     15  C   UNL d   1      32.425  22.440 -20.265  0.00  0.00     0.142 A 
ATOM     16  C   UNL d   1      33.038  21.926 -20.468  0.00  0.00     0.030 A 
ATOM     17  F   UNL d   1      32.219  22.552 -19.473  0.00  0.00    -0.204 F 
ATOM     18  C   UNL d   1      33.241  21.815 -21.251  0.00  0.00     0.018 A 
ENDBRANCH   8  11
ENDBRANCH   7   8
ENDBRANCH   2   7
BRANCH   1  19
ATOM     19  C   UNL d   1      32.706  18.709 -23.751  0.00  0.00     0.101 A 
ATOM     20  N   UNL d   1      33.167  18.100 -24.055  0.00  0.00    -0.221 NA
ATOM     21  C   UNL d   1      32.808  17.377 -23.860  0.00  0.00     0.179 A 
ATOM     22  S   UNL d   1      32.863  16.567 -23.922  0.00  0.00    -0.048 SA
ATOM     23  N   UNL d   1      32.114  17.558 -23.429  0.00  0.00    -0.282 N 
ATOM     24  C   UNL d   1      32.215  16.230 -23.537  0.00  0.00     0.057 A 
ATOM     25  C   UNL d   1      31.749  16.841 -23.230  0.00  0.00     0.089 A 
ATOM     26  C   UNL d   1      32.063  18.383 -23.369  0.00  0.00     0.101 A 
ENDBRANCH   1  19
TORSDOF 4
ENDMDL
MODEL 7
REMARK VINA RESULT:      -1.3      3.530      5.425
REMARK  4 active torsions:
REMARK  status: ('A' for Active; 'I' for Inactive)
REMARK    1  A    between atoms: C_4  and  S_1 
REMARK    2  A    between atoms: N_8  and  S_1 
REMARK    3  A    between atoms: C_5  and  C_11 
REMARK    4  A    between atoms: C_16  and  N_8 
ROOT
ATOM      1  C   UNL d   1      32.516  22.842 -20.359  0.00  0.00     0.021 A 
ATOM      2  C   UNL d   1      32.731  21.973 -21.485  0.00  0.00     0.094 A 
ATOM      3  C   UNL d   1      32.773  22.110 -20.675  0.00  0.00     0.021 A 
ATOM      4  C   UNL d   1      32.222  23.421 -20.860  0.00  0.00     0.002 A 
ATOM      5  C   UNL d   1      32.176  23.292 -21.681  0.00  0.00     0.002 A 
ATOM      6  C   UNL d   1      32.433  22.561 -21.996  0.00  0.00     0.020 A 
ENDROOT
BRANCH   2   7
ATOM      7  N   UNL d   1      32.981  21.259 -21.793  0.00  0.00    -0.158 NA
BRANCH   7   8
ATOM      8  S   UNL d   1      33.093  21.177 -22.604  0.00  0.00     0.287 S 
ATOM      9  O   UNL d   1      33.070  21.987 -22.693  0.00  0.00    -0.198 OA
ATOM     10  O   UNL d   1      33.205  21.107 -23.422  0.00  0.00    -0.198 OA
BRANCH   8  11
ATOM     11  C   UNL d   1      33.118  20.357 -22.523  0.00  0.00     0.133 A 
ATOM     12  C   UNL d   1      33.081  19.880 -23.193  0.00  0.00     0.155 A 
ATOM     13  C   UNL d   1      33.105  19.063 -23.120  0.00  0.00     0.060 A 
ATOM     14  F   UNL d   1      33.019  20.222 -23.941  0.00  0.00    -0.203 F 
ATOM     15  C   UNL d   1      33.168  18.715 -22.366  0.00  0.00     0.142 A 
ATOM     16  C   UNL d   1      33.205  19.197 -21.697  0.00  0.00     0.030 A 
ATOM     17  F   UNL d   1      33.192  17.892 -22.290  0.00  0.00    -0.204 F 
ATOM     18  C   UNL d   1      33.180  20.009 -21.773  0.00  0.00     0.018 A 
ENDBRANCH   8  11
ENDBRANCH   7   8
ENDBRANCH   2   7
BRANCH   1  19
ATOM     19  C   UNL d   1      32.558  22.978 -19.549  0.00  0.00     0.101 A 
ATOM     20  N   UNL d   1      33.158  22.721 -19.049  0.00  0.00    -0.221 NA
ATOM     21  C   UNL d   1      32.985  22.978 -18.279  0.00  0.00     0.179 A 
ATOM     22  S   UNL d   1      33.238  22.983 -17.505  0.00  0.00    -0.048 SA
ATOM     23  N   UNL d   1      32.263  23.400 -18.319  0.00  0.00    -0.282 N 
ATOM     24  C   UNL d   1      32.688  23.401 -17.052  0.00  0.00     0.057 A 
ATOM     25  C   UNL d   1      32.083  23.660 -17.553  0.00  0.00     0.089 A 
ATOM     26  C   UNL d   1      32.011  23.393 -19.108  0.00  0.00     0.101 A 
ENDBRANCH   1  19
TORSDOF 4
ENDMDL
