MODEL 1
REMARK VINA RESULT:      -4.6      0.000      0.000
REMARK  3 active torsions:
REMARK  status: ('A' for Active; 'I' for Inactive)
REMARK    1  A    between atoms: C_2  and  C_1 
REMARK       I    between atoms: N_4  and  C_2 
REMARK    2  A    between atoms: C_6  and  N_4 
REMARK    3  A    between atoms: S_12  and  C_5 
ROOT
ATOM      1  C   UNL d   1     -41.766-123.050 -51.813  0.00  0.00     0.298 C 
ATOM      2  N   UNL d   1     -42.069-122.663 -52.478  0.00  0.00    -0.207 NA
ATOM      3  O   UNL d   1     -41.221-123.674 -51.897  0.00  0.00    -0.264 OA
ENDROOT
BRANCH   1   4
ATOM      4  C   UNL d   1     -42.006-122.815 -51.058  0.00  0.00     0.153 A 
ATOM      5  N   UNL d   1     -42.538-123.288 -50.617  0.00  0.00    -0.216 NA
ATOM      6  C   UNL d   1     -42.774-123.044 -49.859  0.00  0.00     0.190 A 
ATOM      7  N   UNL d   1     -42.487-122.339 -49.538  0.00  0.00    -0.219 NA
ATOM      8  C   UNL d   1     -41.960-121.871 -49.975  0.00  0.00     0.114 A 
ATOM      9  C   UNL d   1     -41.718-122.106 -50.734  0.00  0.00     0.099 A 
ATOM     10 CL   UNL d   1     -41.191-121.635 -51.168  0.00  0.00    -0.079 Cl
BRANCH   6  11
ATOM     11  S   UNL d   1     -43.298-123.508 -49.421  0.00  0.00    -0.075 SA
ATOM     12  C   UNL d   1     -43.065-123.812 -48.680  0.00  0.00     0.077 C 
ENDBRANCH   6  11
ENDBRANCH   1   4
BRANCH   2  13
ATOM     13  C   UNL d   1     -41.832-122.896 -53.232  0.00  0.00     0.085 A 
ATOM     14  C   UNL d   1     -42.061-122.463 -53.889  0.00  0.00     0.018 A 
ATOM     15  C   UNL d   1     -41.829-122.689 -54.642  0.00  0.00     0.002 A 
ATOM     16  C   UNL d   1     -42.532-121.792 -53.791  0.00  0.00     0.002 A 
ATOM     17  C   UNL d   1     -42.063-122.250 -55.298  0.00  0.00     0.000 A 
ATOM     18  C   UNL d   1     -41.359-123.359 -54.739  0.00  0.00     0.000 A 
ATOM     19  C   UNL d   1     -42.529-121.586 -55.201  0.00  0.00     0.000 A 
ATOM     20  C   UNL d   1     -42.765-121.354 -54.448  0.00  0.00     0.000 A 
ATOM     21  C   UNL d   1     -41.125-123.798 -54.079  0.00  0.00     0.002 A 
ATOM     22  C   UNL d   1     -41.364-123.563 -53.325  0.00  0.00     0.019 A 
ENDBRANCH   2  13
TORSDOF 3
ENDMDL
MODEL 2
REMARK VINA RESULT:      -4.1      1.551      2.355
REMARK  3 active torsions:
REMARK  status: ('A' for Active; 'I' for Inactive)
REMARK    1  A    between atoms: C_2  and  C_1 
REMARK       I    between atoms: N_4  and  C_2 
REMARK    2  A    between atoms: C_6  and  N_4 
REMARK    3  A    between atoms: S_12  and  C_5 
ROOT
ATOM      1  C   UNL d   1     -42.255-122.448 -50.306  0.00  0.00     0.298 C 
ATOM      2  N   UNL d   1     -41.691-122.722 -50.845  0.00  0.00    -0.207 NA
ATOM      3  O   UNL d   1     -42.640-121.719 -50.428  0.00  0.00    -0.264 OA
ENDROOT
BRANCH   1   4
ATOM      4  C   UNL d   1     -42.440-122.902 -49.641  0.00  0.00     0.153 A 
ATOM      5  N   UNL d   1     -41.852-123.072 -49.069  0.00  0.00    -0.216 NA
ATOM      6  C   UNL d   1     -42.045-123.529 -48.403  0.00  0.00     0.190 A 
ATOM      7  N   UNL d   1     -42.813-123.815 -48.302  0.00  0.00    -0.219 NA
ATOM      8  C   UNL d   1     -43.395-123.646 -48.868  0.00  0.00     0.114 A 
ATOM      9  C   UNL d   1     -43.211-123.190 -49.537  0.00  0.00     0.099 A 
ATOM     10 CL   UNL d   1     -43.796-123.024 -50.101  0.00  0.00    -0.079 Cl
BRANCH   6  11
ATOM     11  S   UNL d   1     -41.468-123.699 -47.838  0.00  0.00    -0.075 SA
ATOM     12  C   UNL d   1     -41.584-123.472 -47.044  0.00  0.00     0.077 C 
ENDBRANCH   6  11
ENDBRANCH   1   4
BRANCH   2  13
ATOM     13  C   UNL d   1     -41.505-122.271 -51.509  0.00  0.00     0.085 A 
ATOM     14  C   UNL d   1     -41.406-122.632 -52.238  0.00  0.00     0.018 A 
ATOM     15  C   UNL d   1     -41.221-122.190 -52.903  0.00  0.00     0.002 A 
ATOM     16  C   UNL d   1     -41.494-123.450 -52.304  0.00  0.00     0.002 A 
ATOM     17  C   UNL d   1     -41.123-122.559 -53.633  0.00  0.00     0.000 A 
ATOM     18  C   UNL d   1     -41.133-121.373 -52.838  0.00  0.00     0.000 A 
ATOM     19  C   UNL d   1     -41.210-123.368 -53.698  0.00  0.00     0.000 A 
ATOM     20  C   UNL d   1     -41.396-123.817 -53.034  0.00  0.00     0.000 A 
ATOM     21  C   UNL d   1     -41.232-121.005 -52.104  0.00  0.00     0.002 A 
ATOM     22  C   UNL d   1     -41.418-121.459 -51.440  0.00  0.00     0.019 A 
ENDBRANCH   2  13
TORSDOF 3
ENDMDL
MODEL 3
REMARK VINA RESULT:      -2.3      1.568      4.380
REMARK  3 active torsions:
REMARK  status: ('A' for Active; 'I' for Inactive)
REMARK    1  A    between atoms: C_2  and  C_1 
REMARK       I    between atoms: N_4  and  C_2 
REMARK    2  A    between atoms: C_6  and  N_4 
REMARK    3  A    between atoms: S_12  and  C_5 
ROOT
ATOM      1  C   UNL d   1     -41.457-122.341 -51.048  0.00  0.00     0.298 C 
ATOM      2  N   UNL d   1     -41.728-123.031 -50.683  0.00  0.00    -0.207 NA
ATOM      3  O   UNL d   1     -41.227-121.682 -50.593  0.00  0.00    -0.264 OA
ENDROOT
BRANCH   1   4
ATOM      4  C   UNL d   1     -41.414-122.305 -51.872  0.00  0.00     0.153 A 
ATOM      5  N   UNL d   1     -41.366-123.008 -52.325  0.00  0.00    -0.216 NA
ATOM      6  C   UNL d   1     -41.323-122.963 -53.153  0.00  0.00     0.190 A 
ATOM      7  N   UNL d   1     -41.327-122.229 -53.532  0.00  0.00    -0.219 NA
ATOM      8  C   UNL d   1     -41.374-121.533 -53.084  0.00  0.00     0.114 A 
ATOM      9  C   UNL d   1     -41.418-121.568 -52.255  0.00  0.00     0.099 A 
ATOM     10 CL   UNL d   1     -41.465-120.869 -51.810  0.00  0.00    -0.079 Cl
BRANCH   6  11
ATOM     11  S   UNL d   1     -41.276-123.653 -53.602  0.00  0.00    -0.075 SA
ATOM     12  C   UNL d   1     -41.667-123.699 -54.338  0.00  0.00     0.077 C 
ENDBRANCH   6  11
ENDBRANCH   1   4
BRANCH   2  13
ATOM     13  C   UNL d   1     -41.773-123.071 -49.861  0.00  0.00     0.085 A 
ATOM     14  C   UNL d   1     -42.463-123.318 -49.496  0.00  0.00     0.018 A 
ATOM     15  C   UNL d   1     -42.514-123.360 -48.679  0.00  0.00     0.002 A 
ATOM     16  C   UNL d   1     -43.115-123.528 -49.956  0.00  0.00     0.002 A 
ATOM     17  C   UNL d   1     -43.210-123.610 -48.318  0.00  0.00     0.000 A 
ATOM     18  C   UNL d   1     -41.862-123.151 -48.219  0.00  0.00     0.000 A 
ATOM     19  C   UNL d   1     -43.856-123.817 -48.774  0.00  0.00     0.000 A 
ATOM     20  C   UNL d   1     -43.812-123.777 -49.594  0.00  0.00     0.000 A 
ATOM     21  C   UNL d   1     -41.163-122.901 -48.584  0.00  0.00     0.002 A 
ATOM     22  C   UNL d   1     -41.122-122.862 -49.407  0.00  0.00     0.019 A 
ENDBRANCH   2  13
TORSDOF 3
ENDMDL
