MODEL 1
REMARK VINA RESULT:       6.2      0.000      0.000
REMARK  6 active torsions:
REMARK  status: ('A' for Active; 'I' for Inactive)
REMARK    1  A    between atoms: C_5  and  N_1 
REMARK    2  A    between atoms: N_2  and  C_5 
REMARK    3  A    between atoms: C_12  and  C_9 
REMARK    4  A    between atoms: C_14  and  C_10 
REMARK    5  A    between atoms: O_29  and  C_20 
REMARK    6  A    between atoms: O_28  and  C_21 
ROOT
ATOM      1  N   UNL d   1      58.217  -0.792  30.375  0.00  0.00    -0.211 N 
ATOM      2  N   UNL d   1      58.511  -1.361  29.873  0.00  0.00    -0.164 NA
ATOM      3  C   UNL d   1      58.065  -2.048  29.990  0.00  0.00     0.103 A 
ATOM      4  C   UNL d   1      57.599  -1.118  30.797  0.00  0.00     0.086 A 
ATOM      5  C   UNL d   1      57.521  -1.897  30.544  0.00  0.00     0.040 A 
ENDROOT
BRANCH   1   6
ATOM      6  C   UNL d   1      58.433  -0.005  30.507  0.00  0.00     0.186 C 
BRANCH   6   7
ATOM      7  N   UNL d   1      59.229   0.198  30.517  0.00  0.00    -0.254 N 
ATOM      8  C   UNL d   1      59.733   0.317  31.164  0.00  0.00     0.305 A 
ATOM      9  C   UNL d   1      60.485   0.512  30.930  0.00  0.00     0.253 A 
ATOM     10  O   UNL d   1      58.996   0.125  31.451  0.00  0.00    -0.263 OA
ATOM     11  O   UNL d   1      61.133   0.670  31.412  0.00  0.00    -0.281 OA
ATOM     12  C   UNL d   1      60.470   0.520  30.097  0.00  0.00     0.060 A 
ATOM     13  C   UNL d   1      59.704   0.329  29.845  0.00  0.00     0.072 A 
ATOM     14  C   UNL d   1      61.069   0.681  29.535  0.00  0.00     0.005 A 
ATOM     15  C   UNL d   1      59.526   0.295  29.027  0.00  0.00     0.018 A 
ATOM     16  C   UNL d   1      60.120   0.454  28.483  0.00  0.00     0.002 A 
ATOM     17  C   UNL d   1      60.886   0.646  28.734  0.00  0.00     0.000 A 
ENDBRANCH   6   7
ENDBRANCH   1   6
BRANCH   4  18
ATOM     18  C   UNL d   1      57.126  -0.773  31.366  0.00  0.00     0.018 A 
ATOM     19  C   UNL d   1      56.646  -0.123  31.196  0.00  0.00     0.004 A 
ATOM     20  C   UNL d   1      56.164   0.225  31.785  0.00  0.00     0.024 A 
ATOM     21  C   UNL d   1      56.165  -0.081  32.544  0.00  0.00     0.094 A 
ATOM     22  C   UNL d   1      56.646  -0.734  32.723  0.00  0.00     0.024 A 
ATOM     23  C   UNL d   1      57.122  -1.079  32.144  0.00  0.00     0.004 A 
BRANCH  21  24
ATOM     24  O   UNL d   1      55.691   0.260  33.131  0.00  0.00    -0.328 OA
ATOM     25  C   UNL d   1      55.049  -0.166  33.442  0.00  0.00     0.181 C 
ENDBRANCH  21  24
ENDBRANCH   4  18
BRANCH   3  26
ATOM     26  C   UNL d   1      58.184  -2.761  29.587  0.00  0.00     0.019 A 
ATOM     27  C   UNL d   1      58.595  -3.375  29.969  0.00  0.00     0.004 A 
ATOM     28  C   UNL d   1      58.720  -4.084  29.587  0.00  0.00     0.024 A 
ATOM     29  C   UNL d   1      58.434  -4.165  28.835  0.00  0.00     0.094 A 
ATOM     30  C   UNL d   1      58.034  -3.572  28.459  0.00  0.00     0.024 A 
ATOM     31  C   UNL d   1      57.909  -2.863  28.842  0.00  0.00     0.004 A 
BRANCH  29  32
ATOM     32  O   UNL d   1      58.560  -4.872  28.456  0.00  0.00    -0.328 OA
ATOM     33  C   UNL d   1      59.256  -5.305  28.595  0.00  0.00     0.181 C 
ENDBRANCH  29  32
ENDBRANCH   3  26
TORSDOF 6
ENDMDL
MODEL 2
REMARK VINA RESULT:       8.8      6.884      8.704
REMARK  6 active torsions:
REMARK  status: ('A' for Active; 'I' for Inactive)
REMARK    1  A    between atoms: C_5  and  N_1 
REMARK    2  A    between atoms: N_2  and  C_5 
REMARK    3  A    between atoms: C_12  and  C_9 
REMARK    4  A    between atoms: C_14  and  C_10 
REMARK    5  A    between atoms: O_29  and  C_20 
REMARK    6  A    between atoms: O_28  and  C_21 
ROOT
ATOM      1  N   UNL d   1      58.228  -9.443  29.995  0.00  0.00    -0.211 N 
ATOM      2  N   UNL d   1      58.711  -9.445  30.650  0.00  0.00    -0.164 NA
ATOM      3  C   UNL d   1      58.233  -9.603  31.307  0.00  0.00     0.103 A 
ATOM      4  C   UNL d   1      57.465  -9.595  30.239  0.00  0.00     0.086 A 
ATOM      5  C   UNL d   1      57.489  -9.691  31.055  0.00  0.00     0.040 A 
ENDROOT
BRANCH   1   6
ATOM      6  C   UNL d   1      58.385  -9.319  29.192  0.00  0.00     0.186 C 
BRANCH   6   7
ATOM      7  N   UNL d   1      59.057  -8.899  28.973  0.00  0.00    -0.254 N 
ATOM      8  C   UNL d   1      59.828  -9.173  28.841  0.00  0.00     0.305 A 
ATOM      9  C   UNL d   1      60.330  -8.571  28.632  0.00  0.00     0.253 A 
ATOM     10  O   UNL d   1      59.366  -9.811  29.048  0.00  0.00    -0.263 OA
ATOM     11  O   UNL d   1      61.133  -8.629  28.458  0.00  0.00    -0.281 OA
ATOM     12  C   UNL d   1      59.868  -7.878  28.627  0.00  0.00     0.060 A 
ATOM     13  C   UNL d   1      59.091  -8.078  28.835  0.00  0.00     0.072 A 
ATOM     14  C   UNL d   1      60.065  -7.083  28.456  0.00  0.00     0.005 A 
ATOM     15  C   UNL d   1      58.500  -7.486  28.875  0.00  0.00     0.018 A 
ATOM     16  C   UNL d   1      58.703  -6.708  28.706  0.00  0.00     0.002 A 
ATOM     17  C   UNL d   1      59.480  -6.508  28.497  0.00  0.00     0.000 A 
ENDBRANCH   6   7
ENDBRANCH   1   6
BRANCH   4  18
ATOM     18  C   UNL d   1      56.783  -9.650  29.793  0.00  0.00     0.018 A 
ATOM     19  C   UNL d   1      56.806  -9.687  28.968  0.00  0.00     0.004 A 
ATOM     20  C   UNL d   1      56.103  -9.743  28.517  0.00  0.00     0.024 A 
ATOM     21  C   UNL d   1      55.378  -9.762  28.896  0.00  0.00     0.094 A 
ATOM     22  C   UNL d   1      55.347  -9.725  29.726  0.00  0.00     0.024 A 
ATOM     23  C   UNL d   1      56.039  -9.669  30.172  0.00  0.00     0.004 A 
BRANCH  21  24
ATOM     24  O   UNL d   1      54.680  -9.817  28.455  0.00  0.00    -0.328 OA
ATOM     25  C   UNL d   1      54.133  -9.192  28.465  0.00  0.00     0.181 C 
ENDBRANCH  21  24
ENDBRANCH   4  18
BRANCH   3  26
ATOM     26  C   UNL d   1      58.507  -9.654  32.087  0.00  0.00     0.019 A 
ATOM     27  C   UNL d   1      57.953  -9.665  32.707  0.00  0.00     0.004 A 
ATOM     28  C   UNL d   1      58.205  -9.715  33.480  0.00  0.00     0.024 A 
ATOM     29  C   UNL d   1      59.001  -9.754  33.618  0.00  0.00     0.094 A 
ATOM     30  C   UNL d   1      59.544  -9.744  33.020  0.00  0.00     0.024 A 
ATOM     31  C   UNL d   1      59.291  -9.694  32.246  0.00  0.00     0.004 A 
BRANCH  29  32
ATOM     32  O   UNL d   1      59.250  -9.804  34.389  0.00  0.00    -0.328 OA
ATOM     33  C   UNL d   1      59.480  -9.119  34.802  0.00  0.00     0.181 C 
ENDBRANCH  29  32
ENDBRANCH   3  26
TORSDOF 6
ENDMDL
