MODEL 1
REMARK VINA RESULT:      -5.4      0.000      0.000
REMARK  2 active torsions:
REMARK  status: ('A' for Active; 'I' for Inactive)
REMARK    1  A    between atoms: C_3  and  C_1 
REMARK       I    between atoms: N_6  and  C_3 
REMARK    2  A    between atoms: C_11  and  N_6 
ROOT
ATOM      1  C   UNL d   1      58.170   0.335  30.632  0.00  0.00     0.121 A 
ATOM      2  C   UNL d   1      58.123   0.315  29.879  0.00  0.00     0.305 A 
ATOM      3  C   UNL d   1      58.897   0.432  31.004  0.00  0.00     0.012 A 
ATOM      4  O   UNL d   1      58.843   0.393  29.365  0.00  0.00    -0.273 OA
ATOM      5  C   UNL d   1      59.598   0.509  30.580  0.00  0.00     0.023 A 
ATOM      6  C   UNL d   1      59.571   0.490  29.750  0.00  0.00     0.103 A 
ATOM      7  O   UNL d   1      57.386   0.216  29.468  0.00  0.00    -0.259 OA
ATOM      8  C   UNL d   1      60.309   0.604  30.958  0.00  0.00     0.002 A 
ATOM      9  C   UNL d   1      60.255   0.565  29.314  0.00  0.00     0.025 A 
ATOM     10  C   UNL d   1      61.010   0.682  30.530  0.00  0.00     0.000 A 
ATOM     11  C   UNL d   1      60.983   0.662  29.699  0.00  0.00     0.002 A 
ENDROOT
BRANCH   1  12
ATOM     12  C   UNL d   1      57.472   0.259  31.077  0.00  0.00     0.284 C 
ATOM     13  N   UNL d   1      57.468  -0.195  31.661  0.00  0.00    -0.208 NA
ATOM     14  O   UNL d   1      56.798   0.682  30.869  0.00  0.00    -0.265 OA
BRANCH  13  15
ATOM     15  C   UNL d   1      56.784  -0.332  32.176  0.00  0.00     0.087 A 
ATOM     16  C   UNL d   1      56.371   0.242  32.588  0.00  0.00     0.049 A 
ATOM     17  C   UNL d   1      55.727   0.051  33.063  0.00  0.00     0.142 A 
ATOM     18  F   UNL d   1      55.318   0.627  33.472  0.00  0.00    -0.204 F 
ATOM     19  C   UNL d   1      55.493  -0.750  33.125  0.00  0.00     0.030 A 
ATOM     20  C   UNL d   1      55.912  -1.325  32.708  0.00  0.00     0.004 A 
ATOM     21  C   UNL d   1      56.549  -1.136  32.238  0.00  0.00     0.019 A 
ENDBRANCH  13  15
ENDBRANCH   1  12
TORSDOF 2
ENDMDL
MODEL 2
REMARK VINA RESULT:      -5.3      1.816      4.431
REMARK  2 active torsions:
REMARK  status: ('A' for Active; 'I' for Inactive)
REMARK    1  A    between atoms: C_3  and  C_1 
REMARK       I    between atoms: N_6  and  C_3 
REMARK    2  A    between atoms: C_11  and  N_6 
ROOT
ATOM      1  C   UNL d   1      57.021  -0.582  31.455  0.00  0.00     0.121 A 
ATOM      2  C   UNL d   1      56.788  -1.273  31.649  0.00  0.00     0.305 A 
ATOM      3  C   UNL d   1      56.763   0.079  31.871  0.00  0.00     0.012 A 
ATOM      4  O   UNL d   1      56.229  -1.403  32.328  0.00  0.00    -0.273 OA
ATOM      5  C   UNL d   1      56.246   0.021  32.508  0.00  0.00     0.023 A 
ATOM      6  C   UNL d   1      55.975  -0.730  32.740  0.00  0.00     0.103 A 
ATOM      7  O   UNL d   1      57.038  -1.973  31.238  0.00  0.00    -0.259 OA
ATOM      8  C   UNL d   1      55.998   0.680  32.910  0.00  0.00     0.002 A 
ATOM      9  C   UNL d   1      55.463  -0.807  33.368  0.00  0.00     0.025 A 
ATOM     10  C   UNL d   1      55.479   0.617  33.549  0.00  0.00     0.000 A 
ATOM     11  C   UNL d   1      55.209  -0.134  33.780  0.00  0.00     0.002 A 
ENDROOT
BRANCH   1  12
ATOM     12  C   UNL d   1      57.543  -0.503  30.814  0.00  0.00     0.284 C 
ATOM     13  N   UNL d   1      57.809   0.168  30.648  0.00  0.00    -0.208 NA
ATOM     14  O   UNL d   1      57.761  -1.161  30.371  0.00  0.00    -0.265 OA
BRANCH  13  15
ATOM     15  C   UNL d   1      58.357   0.336  29.998  0.00  0.00     0.087 A 
ATOM     16  C   UNL d   1      59.174   0.333  30.046  0.00  0.00     0.049 A 
ATOM     17  C   UNL d   1      59.643   0.502  29.391  0.00  0.00     0.142 A 
ATOM     18  F   UNL d   1      60.458   0.497  29.443  0.00  0.00    -0.204 F 
ATOM     19  C   UNL d   1      59.273   0.680  28.662  0.00  0.00     0.030 A 
ATOM     20  C   UNL d   1      58.450   0.682  28.619  0.00  0.00     0.004 A 
ATOM     21  C   UNL d   1      57.985   0.515  29.267  0.00  0.00     0.019 A 
ENDBRANCH  13  15
ENDBRANCH   1  12
TORSDOF 2
ENDMDL
MODEL 3
REMARK VINA RESULT:      -5.2      1.674      2.595
REMARK  2 active torsions:
REMARK  status: ('A' for Active; 'I' for Inactive)
REMARK    1  A    between atoms: C_3  and  C_1 
REMARK       I    between atoms: N_6  and  C_3 
REMARK    2  A    between atoms: C_11  and  N_6 
ROOT
ATOM      1  C   UNL d   1      56.728  -0.432  32.201  0.00  0.00     0.121 A 
ATOM      2  C   UNL d   1      56.660  -1.112  31.883  0.00  0.00     0.305 A 
ATOM      3  C   UNL d   1      57.174   0.157  31.839  0.00  0.00     0.012 A 
ATOM      4  O   UNL d   1      57.054  -1.307  31.111  0.00  0.00    -0.273 OA
ATOM      5  C   UNL d   1      57.561   0.036  31.124  0.00  0.00     0.023 A 
ATOM      6  C   UNL d   1      57.501  -0.706  30.755  0.00  0.00     0.103 A 
ATOM      7  O   UNL d   1      56.206  -1.739  32.234  0.00  0.00    -0.259 OA
ATOM      8  C   UNL d   1      57.998   0.624  30.777  0.00  0.00     0.002 A 
ATOM      9  C   UNL d   1      57.877  -0.845  30.046  0.00  0.00     0.025 A 
ATOM     10  C   UNL d   1      58.385   0.498  30.060  0.00  0.00     0.000 A 
ATOM     11  C   UNL d   1      58.324  -0.244  29.690  0.00  0.00     0.002 A 
ENDROOT
BRANCH   1  12
ATOM     12  C   UNL d   1      56.344  -0.290  32.924  0.00  0.00     0.284 C 
ATOM     13  N   UNL d   1      55.722   0.112  32.928  0.00  0.00    -0.208 NA
ATOM     14  O   UNL d   1      56.651  -0.593  33.625  0.00  0.00    -0.265 OA
BRANCH  13  15
ATOM     15  C   UNL d   1      55.262   0.306  33.636  0.00  0.00     0.087 A 
ATOM     16  C   UNL d   1      55.558   0.382  34.395  0.00  0.00     0.049 A 
ATOM     17  C   UNL d   1      55.070   0.568  35.030  0.00  0.00     0.142 A 
ATOM     18  F   UNL d   1      55.369   0.642  35.786  0.00  0.00    -0.204 F 
ATOM     19  C   UNL d   1      54.252   0.682  34.893  0.00  0.00     0.030 A 
ATOM     20  C   UNL d   1      53.959   0.605  34.126  0.00  0.00     0.004 A 
ATOM     21  C   UNL d   1      54.442   0.421  33.498  0.00  0.00     0.019 A 
ENDBRANCH  13  15
ENDBRANCH   1  12
TORSDOF 2
ENDMDL
MODEL 4
REMARK VINA RESULT:      -5.0      2.344      4.391
REMARK  2 active torsions:
REMARK  status: ('A' for Active; 'I' for Inactive)
REMARK    1  A    between atoms: C_3  and  C_1 
REMARK       I    between atoms: N_6  and  C_3 
REMARK    2  A    between atoms: C_11  and  N_6 
ROOT
ATOM      1  C   UNL d   1      57.525  -0.570  30.992  0.00  0.00     0.121 A 
ATOM      2  C   UNL d   1      57.629   0.145  31.211  0.00  0.00     0.305 A 
ATOM      3  C   UNL d   1      57.026  -1.068  31.416  0.00  0.00     0.012 A 
ATOM      4  O   UNL d   1      57.224   0.477  31.928  0.00  0.00    -0.273 OA
ATOM      5  C   UNL d   1      56.624  -0.817  32.088  0.00  0.00     0.023 A 
ATOM      6  C   UNL d   1      56.724  -0.034  32.348  0.00  0.00     0.103 A 
ATOM      7  O   UNL d   1      58.138   0.682  30.792  0.00  0.00    -0.259 OA
ATOM      8  C   UNL d   1      56.136  -1.318  32.498  0.00  0.00     0.002 A 
ATOM      9  C   UNL d   1      56.334   0.233  33.011  0.00  0.00     0.025 A 
ATOM     10  C   UNL d   1      55.734  -1.062  33.171  0.00  0.00     0.000 A 
ATOM     11  C   UNL d   1      55.834  -0.279  33.431  0.00  0.00     0.002 A 
ENDROOT
BRANCH   1  12
ATOM     12  C   UNL d   1      57.923  -0.842  30.316  0.00  0.00     0.284 C 
ATOM     13  N   UNL d   1      58.370  -1.429  30.374  0.00  0.00    -0.208 NA
ATOM     14  O   UNL d   1      57.819  -0.465  29.592  0.00  0.00    -0.265 OA
BRANCH  13  15
ATOM     15  C   UNL d   1      58.820  -1.775  29.720  0.00  0.00     0.087 A 
ATOM     16  C   UNL d   1      59.541  -1.509  29.439  0.00  0.00     0.049 A 
ATOM     17  C   UNL d   1      59.923  -1.880  28.812  0.00  0.00     0.142 A 
ATOM     18  F   UNL d   1      60.642  -1.611  28.535  0.00  0.00    -0.204 F 
ATOM     19  C   UNL d   1      59.562  -2.545  28.455  0.00  0.00     0.030 A 
ATOM     20  C   UNL d   1      58.835  -2.810  28.742  0.00  0.00     0.004 A 
ATOM     21  C   UNL d   1      58.458  -2.443  29.362  0.00  0.00     0.019 A 
ENDBRANCH  13  15
ENDBRANCH   1  12
TORSDOF 2
ENDMDL
MODEL 5
REMARK VINA RESULT:      -4.9      1.611      2.004
REMARK  2 active torsions:
REMARK  status: ('A' for Active; 'I' for Inactive)
REMARK    1  A    between atoms: C_3  and  C_1 
REMARK       I    between atoms: N_6  and  C_3 
REMARK    2  A    between atoms: C_11  and  N_6 
ROOT
ATOM      1  C   UNL d   1      58.056  -0.616  30.284  0.00  0.00     0.121 A 
ATOM      2  C   UNL d   1      58.556  -0.148  29.969  0.00  0.00     0.305 A 
ATOM      3  C   UNL d   1      58.049  -1.415  30.089  0.00  0.00     0.012 A 
ATOM      4  O   UNL d   1      59.156  -0.434  29.380  0.00  0.00    -0.273 OA
ATOM      5  C   UNL d   1      58.580  -1.738  29.550  0.00  0.00     0.023 A 
ATOM      6  C   UNL d   1      59.141  -1.241  29.191  0.00  0.00     0.103 A 
ATOM      7  O   UNL d   1      58.585   0.682  30.152  0.00  0.00    -0.259 OA
ATOM      8  C   UNL d   1      58.565  -2.527  29.366  0.00  0.00     0.002 A 
ATOM      9  C   UNL d   1      59.675  -1.543  28.655  0.00  0.00     0.025 A 
ATOM     10  C   UNL d   1      59.099  -2.847  28.825  0.00  0.00     0.000 A 
ATOM     11  C   UNL d   1      59.660  -2.350  28.466  0.00  0.00     0.002 A 
ENDROOT
BRANCH   1  12
ATOM     12  C   UNL d   1      57.511  -0.308  30.831  0.00  0.00     0.284 C 
ATOM     13  N   UNL d   1      57.504  -0.576  31.520  0.00  0.00    -0.208 NA
ATOM     14  O   UNL d   1      56.987   0.286  30.607  0.00  0.00    -0.265 OA
BRANCH  13  15
ATOM     15  C   UNL d   1      56.970  -0.311  32.149  0.00  0.00     0.087 A 
ATOM     16  C   UNL d   1      56.208  -0.579  32.276  0.00  0.00     0.049 A 
ATOM     17  C   UNL d   1      55.746  -0.289  32.892  0.00  0.00     0.142 A 
ATOM     18  F   UNL d   1      54.986  -0.559  33.015  0.00  0.00    -0.204 F 
ATOM     19  C   UNL d   1      56.068   0.293  33.399  0.00  0.00     0.030 A 
ATOM     20  C   UNL d   1      56.837   0.560  33.268  0.00  0.00     0.004 A 
ATOM     21  C   UNL d   1      57.293   0.273  32.658  0.00  0.00     0.019 A 
ENDBRANCH  13  15
ENDBRANCH   1  12
TORSDOF 2
ENDMDL
