MODEL 1
REMARK VINA RESULT:      22.7      0.000      0.000
REMARK  2 active torsions:
REMARK  status: ('A' for Active; 'I' for Inactive)
REMARK    1  A    between atoms: C_12  and  N_1 
REMARK    2  A    between atoms: N_6  and  C_13 
ROOT
ATOM      1  N   UNL d   1      58.563  49.703  50.620  0.00  0.00    -0.242 N 
ATOM      2  C   UNL d   1      57.771  49.701  51.016  0.00  0.00     0.263 A 
ATOM      3  C   UNL d   1      58.466  49.705  49.840  0.00  0.00     0.263 A 
ATOM      4  C   UNL d   1      57.648  49.704  49.624  0.00  0.00     0.039 A 
ATOM      5  C   UNL d   1      57.207  49.702  50.255  0.00  0.00     0.039 A 
ATOM      6  C   UNL d   1      56.423  49.701  50.226  0.00  0.00     0.049 A 
ATOM      7  C   UNL d   1      57.267  49.706  48.896  0.00  0.00     0.049 A 
ATOM      8  C   UNL d   1      56.038  49.703  49.527  0.00  0.00    -0.026 A 
ATOM      9  C   UNL d   1      56.476  49.705  48.850  0.00  0.00    -0.026 A 
ATOM     10  C   UNL d   1      57.160  49.703  49.814  0.00  0.00     0.018 A 
ATOM     11  O   UNL d   1      59.071  49.707  49.286  0.00  0.00    -0.267 OA
ATOM     12  O   UNL d   1      57.569  49.699  51.704  0.00  0.00    -0.267 OA
ENDROOT
BRANCH   1  13
ATOM     13  C   UNL d   1      59.310  49.702  50.964  0.00  0.00     0.070 A 
ATOM     14  C   UNL d   1      59.386  49.702  51.789  0.00  0.00     0.019 A 
ATOM     15  C   UNL d   1      60.137  49.702  52.144  0.00  0.00     0.018 A 
ATOM     16  C   UNL d   1      60.825  49.702  51.663  0.00  0.00     0.096 A 
ATOM     17  C   UNL d   1      60.738  49.702  50.843  0.00  0.00     0.018 A 
ATOM     18  C   UNL d   1      59.980  49.702  50.494  0.00  0.00     0.019 A 
BRANCH  16  19
ATOM     19  N   UNL d   1      61.571  49.702  52.002  0.00  0.00     0.037 NA
ATOM     20  O   UNL d   1      60.826  49.695  52.340  0.00  0.00    -0.084 OA
ATOM     21  O   UNL d   1      62.284  49.700  52.502  0.00  0.00    -0.084 OA
ENDBRANCH  16  19
ENDBRANCH   1  13
TORSDOF 2
ENDMDL
