MODEL 1
REMARK VINA RESULT:      -7.8      0.000      0.000
REMARK  3 active torsions:
REMARK  status: ('A' for Active; 'I' for Inactive)
REMARK    1  A    between atoms: N_4  and  C_1 
REMARK    2  A    between atoms: C_5  and  C_3 
REMARK       I    between atoms: C_8  and  N_4 
REMARK    3  A    between atoms: C_9  and  C_8 
ROOT
ATOM      1  C   UNL d   1     -47.465  12.999  23.030  0.00  0.00     0.204 A 
ATOM      2  S   UNL d   1     -47.804  13.666  22.973  0.00  0.00    -0.031 SA
ATOM      3  C   UNL d   1     -48.677  13.557  23.125  0.00  0.00     0.119 A 
ATOM      4  N   UNL d   1     -48.047  12.382  23.220  0.00  0.00    -0.123 NA
ATOM      5  N   UNL d   1     -48.749  12.733  23.271  0.00  0.00    -0.143 NA
ENDROOT
BRANCH   3   6
ATOM      6  C   UNL d   1     -49.226  14.117  23.119  0.00  0.00     0.081 A 
ATOM      7  C   UNL d   1     -49.866  13.697  22.386  0.00  0.00     0.023 A 
ATOM      8  C   UNL d   1     -50.538  14.147  22.219  0.00  0.00     0.045 A 
ATOM      9  C   UNL d   1     -50.635  14.893  22.655  0.00  0.00    -0.022 A 
ATOM     10  C   UNL d   1     -51.024  15.186  22.580  0.00  0.00    -0.022 A 
ATOM     11  C   UNL d   1     -50.167  15.228  23.209  0.00  0.00    -0.008 A 
ATOM     12  C   UNL d   1     -49.282  14.814  23.550  0.00  0.00    -0.017 A 
ATOM     13  C   UNL d   1     -50.275  15.912  23.596  0.00  0.00    -0.001 A 
ATOM     14  C   UNL d   1     -50.387  15.283  23.092  0.00  0.00    -0.008 A 
ATOM     15  C   UNL d   1     -49.716  14.833  23.259  0.00  0.00    -0.017 A 
ENDBRANCH   3   6
BRANCH   1  16
ATOM     16  N   UNL d   1     -46.685  12.760  22.949  0.00  0.00    -0.248 N 
ATOM     17  C   UNL d   1     -46.167  13.062  22.383  0.00  0.00     0.289 C 
ATOM     18  O   UNL d   1     -46.447  13.651  21.855  0.00  0.00    -0.264 OA
ATOM     19  C   UNL d   1     -46.408  12.207  23.438  0.00  0.00     0.104 C 
BRANCH  17  20
ATOM     20  C   UNL d   1     -45.384  12.796  22.329  0.00  0.00     0.156 A 
ATOM     21  O   UNL d   1     -44.954  12.232  22.758  0.00  0.00    -0.300 OA
ATOM     22  C   UNL d   1     -44.166  12.217  22.427  0.00  0.00     0.123 A 
ATOM     23  C   UNL d   1     -44.123  12.741  21.836  0.00  0.00     0.029 A 
ATOM     24  C   UNL d   1     -44.854  13.105  21.759  0.00  0.00     0.032 A 
ENDBRANCH  17  20
ENDBRANCH   1  16
TORSDOF 3
ENDMDL
MODEL 2
REMARK VINA RESULT:      -7.4      1.397      2.103
REMARK  3 active torsions:
REMARK  status: ('A' for Active; 'I' for Inactive)
REMARK    1  A    between atoms: N_4  and  C_1 
REMARK    2  A    between atoms: C_5  and  C_3 
REMARK       I    between atoms: C_8  and  N_4 
REMARK    3  A    between atoms: C_9  and  C_8 
ROOT
ATOM      1  C   UNL d   1     -46.571  13.112  22.713  0.00  0.00     0.204 A 
ATOM      2  S   UNL d   1     -47.185  12.699  22.594  0.00  0.00    -0.031 SA
ATOM      3  C   UNL d   1     -47.823  12.963  23.158  0.00  0.00     0.119 A 
ATOM      4  N   UNL d   1     -46.715  13.685  23.351  0.00  0.00    -0.123 NA
ATOM      5  N   UNL d   1     -47.455  13.579  23.595  0.00  0.00    -0.143 NA
ENDROOT
BRANCH   3   6
ATOM      6  C   UNL d   1     -48.549  12.672  23.213  0.00  0.00     0.081 A 
ATOM      7  C   UNL d   1     -49.066  13.451  22.714  0.00  0.00     0.023 A 
ATOM      8  C   UNL d   1     -49.882  13.340  22.658  0.00  0.00     0.045 A 
ATOM      9  C   UNL d   1     -50.210  12.614  23.007  0.00  0.00    -0.022 A 
ATOM     10  C   UNL d   1     -50.693  12.516  22.991  0.00  0.00    -0.022 A 
ATOM     11  C   UNL d   1     -49.841  12.015  23.386  0.00  0.00    -0.008 A 
ATOM     12  C   UNL d   1     -48.820  11.975  23.554  0.00  0.00    -0.017 A 
ATOM     13  C   UNL d   1     -50.160  11.359  23.698  0.00  0.00    -0.001 A 
ATOM     14  C   UNL d   1     -50.080  12.075  23.319  0.00  0.00    -0.008 A 
ATOM     15  C   UNL d   1     -49.264  12.186  23.375  0.00  0.00    -0.017 A 
ENDBRANCH   3   6
BRANCH   1  16
ATOM     16  N   UNL d   1     -45.826  13.121  22.370  0.00  0.00    -0.248 N 
ATOM     17  C   UNL d   1     -45.223  12.592  22.564  0.00  0.00     0.289 C 
ATOM     18  O   UNL d   1     -45.373  12.008  23.147  0.00  0.00    -0.264 OA
ATOM     19  C   UNL d   1     -45.671  13.664  21.821  0.00  0.00     0.104 C 
BRANCH  17  20
ATOM     20  C   UNL d   1     -44.482  12.631  22.197  0.00  0.00     0.156 A 
ATOM     21  O   UNL d   1     -44.108  13.221  21.750  0.00  0.00    -0.300 OA
ATOM     22  C   UNL d   1     -43.341  12.915  21.528  0.00  0.00     0.123 A 
ATOM     23  C   UNL d   1     -43.258  12.185  21.821  0.00  0.00     0.029 A 
ATOM     24  C   UNL d   1     -43.941  11.992  22.232  0.00  0.00     0.032 A 
ENDBRANCH  17  20
ENDBRANCH   1  16
TORSDOF 3
ENDMDL
MODEL 3
REMARK VINA RESULT:      -7.0      8.625      9.312
REMARK  3 active torsions:
REMARK  status: ('A' for Active; 'I' for Inactive)
REMARK    1  A    between atoms: N_4  and  C_1 
REMARK    2  A    between atoms: C_5  and  C_3 
REMARK       I    between atoms: C_8  and  N_4 
REMARK    3  A    between atoms: C_9  and  C_8 
ROOT
ATOM      1  C   UNL d   1     -39.857  14.584  20.733  0.00  0.00     0.204 A 
ATOM      2  S   UNL d   1     -39.600  14.697  20.038  0.00  0.00    -0.031 SA
ATOM      3  C   UNL d   1     -40.279  14.621  19.465  0.00  0.00     0.119 A 
ATOM      4  N   UNL d   1     -40.711  14.424  20.714  0.00  0.00    -0.123 NA
ATOM      5  N   UNL d   1     -40.935  14.451  19.961  0.00  0.00    -0.143 NA
ENDROOT
BRANCH   3   6
ATOM      6  C   UNL d   1     -40.245  14.700  18.685  0.00  0.00     0.081 A 
ATOM      7  C   UNL d   1     -40.859  15.557  18.588  0.00  0.00     0.023 A 
ATOM      8  C   UNL d   1     -40.960  15.821  17.812  0.00  0.00     0.045 A 
ATOM      9  C   UNL d   1     -40.559  15.372  17.184  0.00  0.00    -0.022 A 
ATOM     10  C   UNL d   1     -40.598  15.502  16.710  0.00  0.00    -0.022 A 
ATOM     11  C   UNL d   1     -40.093  14.725  17.234  0.00  0.00    -0.008 A 
ATOM     12  C   UNL d   1     -39.850  14.251  18.121  0.00  0.00    -0.017 A 
ATOM     13  C   UNL d   1     -39.735  14.330  16.646  0.00  0.00    -0.001 A 
ATOM     14  C   UNL d   1     -40.182  14.878  17.050  0.00  0.00    -0.008 A 
ATOM     15  C   UNL d   1     -40.081  14.614  17.825  0.00  0.00    -0.017 A 
ENDBRANCH   3   6
BRANCH   1  16
ATOM     16  N   UNL d   1     -39.497  14.584  21.470  0.00  0.00    -0.248 N 
ATOM     17  C   UNL d   1     -39.000  13.984  21.739  0.00  0.00     0.289 C 
ATOM     18  O   UNL d   1     -38.848  13.331  21.235  0.00  0.00    -0.264 OA
ATOM     19  C   UNL d   1     -39.631  15.192  21.954  0.00  0.00     0.104 C 
BRANCH  17  20
ATOM     20  C   UNL d   1     -38.653  14.017  22.491  0.00  0.00     0.156 A 
ATOM     21  O   UNL d   1     -38.278  14.628  22.908  0.00  0.00    -0.300 OA
ATOM     22  C   UNL d   1     -38.040  14.302  23.663  0.00  0.00     0.123 A 
ATOM     23  C   UNL d   1     -38.258  13.542  23.698  0.00  0.00     0.029 A 
ATOM     24  C   UNL d   1     -38.632  13.348  22.994  0.00  0.00     0.032 A 
ENDBRANCH  17  20
ENDBRANCH   1  16
TORSDOF 3
ENDMDL
MODEL 4
REMARK VINA RESULT:      -6.6      8.542     10.567
REMARK  3 active torsions:
REMARK  status: ('A' for Active; 'I' for Inactive)
REMARK    1  A    between atoms: N_4  and  C_1 
REMARK    2  A    between atoms: C_5  and  C_3 
REMARK       I    between atoms: C_8  and  N_4 
REMARK    3  A    between atoms: C_9  and  C_8 
ROOT
ATOM      1  C   UNL d   1     -39.714  14.496  19.346  0.00  0.00     0.204 A 
ATOM      2  S   UNL d   1     -39.211  14.586  18.797  0.00  0.00    -0.031 SA
ATOM      3  C   UNL d   1     -39.493  14.147  18.074  0.00  0.00     0.119 A 
ATOM      4  N   UNL d   1     -40.373  14.002  19.069  0.00  0.00    -0.123 NA
ATOM      5  N   UNL d   1     -40.221  13.810  18.321  0.00  0.00    -0.143 NA
ENDROOT
BRANCH   3   6
ATOM      6  C   UNL d   1     -39.127  14.102  17.381  0.00  0.00     0.081 A 
ATOM      7  C   UNL d   1     -38.738  13.121  17.474  0.00  0.00     0.023 A 
ATOM      8  C   UNL d   1     -38.299  12.863  16.825  0.00  0.00     0.045 A 
ATOM      9  C   UNL d   1     -38.212  13.416  16.159  0.00  0.00    -0.022 A 
ATOM     10  C   UNL d   1     -37.957  13.294  15.755  0.00  0.00    -0.022 A 
ATOM     11  C   UNL d   1     -38.496  14.157  16.067  0.00  0.00    -0.008 A 
ATOM     12  C   UNL d   1     -39.068  14.652  16.774  0.00  0.00    -0.017 A 
ATOM     13  C   UNL d   1     -38.404  14.646  15.449  0.00  0.00    -0.001 A 
ATOM     14  C   UNL d   1     -38.355  13.992  15.932  0.00  0.00    -0.008 A 
ATOM     15  C   UNL d   1     -38.794  14.251  16.581  0.00  0.00    -0.017 A 
ENDBRANCH   3   6
BRANCH   1  16
ATOM     16  N   UNL d   1     -39.753  14.764  20.120  0.00  0.00    -0.248 N 
ATOM     17  C   UNL d   1     -39.096  14.848  20.611  0.00  0.00     0.289 C 
ATOM     18  O   UNL d   1     -38.339  14.649  20.308  0.00  0.00    -0.264 OA
ATOM     19  C   UNL d   1     -40.457  14.955  20.417  0.00  0.00     0.104 C 
BRANCH  17  20
ATOM     20  C   UNL d   1     -39.172  15.123  21.389  0.00  0.00     0.156 A 
ATOM     21  O   UNL d   1     -39.500  15.814  21.709  0.00  0.00    -0.300 OA
ATOM     22  C   UNL d   1     -39.404  15.764  22.557  0.00  0.00     0.123 A 
ATOM     23  C   UNL d   1     -39.041  15.085  22.738  0.00  0.00     0.029 A 
ATOM     24  C   UNL d   1     -38.890  14.679  22.041  0.00  0.00     0.032 A 
ENDBRANCH  17  20
ENDBRANCH   1  16
TORSDOF 3
ENDMDL
