MODEL 1
REMARK VINA RESULT:      56.6      0.000      0.000
REMARK  6 active torsions:
REMARK  status: ('A' for Active; 'I' for Inactive)
REMARK    1  A    between atoms: S_9  and  C_3 
REMARK    2  A    between atoms: C_11  and  C_4 
REMARK    3  A    between atoms: C_20  and  S_9 
REMARK    4  A    between atoms: C_12  and  C_20 
REMARK       I    between atoms: N_17  and  C_12 
REMARK    5  A    between atoms: C_25  and  N_17 
REMARK    6  A    between atoms: C_24  and  C_25 
ROOT
ATOM      1  N   UNL d   1      13.424  13.058  -3.717  0.00  0.00    -0.263 N 
ATOM      2  C   UNL d   1      13.011  12.638  -4.290  0.00  0.00     0.202 A 
ATOM      3  C   UNL d   1      13.489  13.839  -3.973  0.00  0.00     0.202 A 
ATOM      4  C   UNL d   1      13.614  12.535  -3.109  0.00  0.00     0.074 A 
ATOM      5  N   UNL d   1      12.818  13.147  -4.899  0.00  0.00    -0.121 NA
ATOM      6  N   UNL d   1      13.110  13.897  -4.711  0.00  0.00    -0.121 NA
ATOM      7  S   UNL d   1      12.944  11.856  -4.038  0.00  0.00    -0.046 SA
ATOM      8  C   UNL d   1      13.313  11.789  -3.312  0.00  0.00     0.056 A 
ENDROOT
BRANCH   3   9
ATOM      9  S   UNL d   1      13.879  14.400  -3.512  0.00  0.00    -0.043 SA
BRANCH   9  10
ATOM     10  C   UNL d   1      13.656  15.197  -3.541  0.00  0.00     0.101 C 
BRANCH  10  11
ATOM     11  C   UNL d   1      14.220  15.776  -3.694  0.00  0.00     0.286 C 
ATOM     12  N   UNL d   1      14.214  16.177  -4.423  0.00  0.00    -0.206 NA
ATOM     13  O   UNL d   1      14.789  15.957  -3.126  0.00  0.00    -0.265 OA
BRANCH  12  14
ATOM     14  C   UNL d   1      14.782  16.760  -4.580  0.00  0.00     0.102 C 
BRANCH  14  15
ATOM     15  C   UNL d   1      14.584  17.417  -5.051  0.00  0.00     0.021 A 
ATOM     16  C   UNL d   1      14.993  18.134  -4.987  0.00  0.00     0.028 A 
ATOM     17  C   UNL d   1      14.784  18.768  -5.459  0.00  0.00     0.119 A 
ATOM     18  O   UNL d   1      15.075  19.529  -5.523  0.00  0.00    -0.300 OA
ATOM     19  C   UNL d   1      14.167  18.692  -5.996  0.00  0.00     0.119 A 
ATOM     20  C   UNL d   1      14.660  19.926  -6.081  0.00  0.00     0.304 A 
ATOM     21  O   UNL d   1      14.087  19.408  -6.384  0.00  0.00    -0.300 OA
ATOM     22  C   UNL d   1      13.765  17.983  -6.057  0.00  0.00     0.026 A 
ATOM     23  C   UNL d   1      13.981  17.342  -5.576  0.00  0.00     0.004 A 
ENDBRANCH  14  15
ENDBRANCH  12  14
ENDBRANCH  10  11
ENDBRANCH   9  10
ENDBRANCH   3   9
BRANCH   4  24
ATOM     24  C   UNL d   1      14.025  12.680  -2.407  0.00  0.00     0.017 A 
ATOM     25  C   UNL d   1      14.782  12.991  -2.428  0.00  0.00     0.002 A 
ATOM     26  C   UNL d   1      15.191  13.136  -1.734  0.00  0.00     0.011 A 
ATOM     27  C   UNL d   1      14.832  12.964  -1.003  0.00  0.00     0.058 A 
ATOM     28  C   UNL d   1      14.067  12.650  -0.981  0.00  0.00     0.011 A 
ATOM     29 CL   UNL d   1      15.236  13.106  -0.296  0.00  0.00    -0.082 Cl
ATOM     30  C   UNL d   1      13.663  12.507  -1.685  0.00  0.00     0.002 A 
ENDBRANCH   4  24
TORSDOF 6
ENDMDL
