MODEL 1
REMARK VINA RESULT:       0.5      0.000      0.000
REMARK  4 active torsions:
REMARK  status: ('A' for Active; 'I' for Inactive)
REMARK    1  A    between atoms: C_5  and  N_1 
REMARK    2  A    between atoms: C_7  and  C_3 
REMARK    3  A    between atoms: C_8  and  C_4 
REMARK    4  A    between atoms: N_10  and  C_5 
ROOT
ATOM      1  N   UNL d   1     -41.946-121.945 -50.984  0.00  0.00    -0.203 N 
ATOM      2  N   UNL d   1     -42.098-122.002 -50.172  0.00  0.00    -0.163 NA
ATOM      3  C   UNL d   1     -42.168-122.777 -49.958  0.00  0.00     0.103 A 
ATOM      4  C   UNL d   1     -41.919-122.718 -51.298  0.00  0.00     0.087 A 
ATOM      5  C   UNL d   1     -42.055-123.238 -50.669  0.00  0.00     0.040 A 
ENDROOT
BRANCH   3   6
ATOM      6  C   UNL d   1     -42.320-123.050 -49.186  0.00  0.00     0.019 A 
ATOM      7  C   UNL d   1     -43.088-123.070 -48.889  0.00  0.00     0.002 A 
ATOM      8  C   UNL d   1     -43.220-123.348 -48.111  0.00  0.00     0.000 A 
ATOM      9  C   UNL d   1     -42.591-123.598 -47.652  0.00  0.00     0.000 A 
ATOM     10  C   UNL d   1     -41.828-123.571 -47.967  0.00  0.00     0.000 A 
ATOM     11  C   UNL d   1     -42.766-123.815 -47.021  0.00  0.00     0.000 C 
ATOM     12  C   UNL d   1     -41.694-123.303 -48.719  0.00  0.00     0.002 A 
ENDBRANCH   3   6
BRANCH   1  13
ATOM     13  C   UNL d   1     -41.838-121.235 -51.425  0.00  0.00     0.222 C 
ATOM     14  S   UNL d   1     -42.460-120.968 -51.933  0.00  0.00    -0.037 SA
BRANCH  13  15
ATOM     15  N   UNL d   1     -41.123-120.785 -51.369  0.00  0.00    -0.214 NA
ATOM     16  C   UNL d   1     -41.148-119.955 -51.432  0.00  0.00     0.122 C 
ENDBRANCH  13  15
ENDBRANCH   1  13
BRANCH   4  17
ATOM     17  C   UNL d   1     -41.784-122.954 -52.079  0.00  0.00     0.018 A 
ATOM     18  C   UNL d   1     -42.165-122.585 -52.704  0.00  0.00     0.002 A 
ATOM     19  C   UNL d   1     -42.030-122.821 -53.481  0.00  0.00     0.011 A 
ATOM     20  C   UNL d   1     -41.507-123.437 -53.633  0.00  0.00     0.058 A 
ATOM     21  C   UNL d   1     -41.128-123.807 -53.030  0.00  0.00     0.011 A 
ATOM     22 CL   UNL d   1     -41.384-123.663 -54.432  0.00  0.00    -0.082 Cl
ATOM     23  C   UNL d   1     -41.263-123.570 -52.249  0.00  0.00     0.002 A 
ENDBRANCH   4  17
TORSDOF 4
ENDMDL
MODEL 2
REMARK VINA RESULT:       2.4      1.657      4.324
REMARK  4 active torsions:
REMARK  status: ('A' for Active; 'I' for Inactive)
REMARK    1  A    between atoms: C_5  and  N_1 
REMARK    2  A    between atoms: C_7  and  C_3 
REMARK    3  A    between atoms: C_8  and  C_4 
REMARK    4  A    between atoms: N_10  and  C_5 
ROOT
ATOM      1  N   UNL d   1     -41.454-121.781 -51.671  0.00  0.00    -0.203 N 
ATOM      2  N   UNL d   1     -41.294-121.838 -52.482  0.00  0.00    -0.163 NA
ATOM      3  C   UNL d   1     -41.595-122.527 -52.774  0.00  0.00     0.103 A 
ATOM      4  C   UNL d   1     -41.874-122.464 -51.440  0.00  0.00     0.087 A 
ATOM      5  C   UNL d   1     -41.965-122.931 -52.118  0.00  0.00     0.040 A 
ENDROOT
BRANCH   3   6
ATOM      6  C   UNL d   1     -41.542-122.776 -53.568  0.00  0.00     0.019 A 
ATOM      7  C   UNL d   1     -41.817-122.298 -54.180  0.00  0.00     0.002 A 
ATOM      8  C   UNL d   1     -41.755-122.565 -54.969  0.00  0.00     0.000 A 
ATOM      9  C   UNL d   1     -41.424-123.296 -55.130  0.00  0.00     0.000 A 
ATOM     10  C   UNL d   1     -41.155-123.762 -54.504  0.00  0.00     0.000 A 
ATOM     11  C   UNL d   1     -41.402-123.458 -55.801  0.00  0.00     0.000 C 
ATOM     12  C   UNL d   1     -41.212-123.508 -53.737  0.00  0.00     0.002 A 
ENDBRANCH   3   6
BRANCH   1  13
ATOM     13  C   UNL d   1     -41.234-121.148 -51.160  0.00  0.00     0.222 C 
ATOM     14  S   UNL d   1     -41.123-121.305 -50.336  0.00  0.00    -0.037 SA
BRANCH  13  15
ATOM     15  N   UNL d   1     -41.123-120.362 -51.454  0.00  0.00    -0.214 NA
ATOM     16  C   UNL d   1     -41.142-119.716 -50.929  0.00  0.00     0.122 C 
ENDBRANCH  13  15
ENDBRANCH   1  13
BRANCH   4  17
ATOM     17  C   UNL d   1     -42.159-122.668 -50.691  0.00  0.00     0.018 A 
ATOM     18  C   UNL d   1     -42.917-122.461 -50.456  0.00  0.00     0.002 A 
ATOM     19  C   UNL d   1     -43.199-122.665 -49.710  0.00  0.00     0.011 A 
ATOM     20  C   UNL d   1     -42.715-123.082 -49.193  0.00  0.00     0.058 A 
ATOM     21  C   UNL d   1     -41.971-123.291 -49.411  0.00  0.00     0.011 A 
ATOM     22 CL   UNL d   1     -43.022-123.280 -48.437  0.00  0.00    -0.082 Cl
ATOM     23  C   UNL d   1     -41.686-123.087 -50.160  0.00  0.00     0.002 A 
ENDBRANCH   4  17
TORSDOF 4
ENDMDL
