MODEL 1
REMARK VINA RESULT:      -8.2      0.000      0.000
REMARK  6 active torsions:
REMARK  status: ('A' for Active; 'I' for Inactive)
REMARK    1  A    between atoms: C_4  and  C_1 
REMARK    2  A    between atoms: C_3  and  C_7 
REMARK    3  A    between atoms: O_18  and  C_3 
REMARK    4  A    between atoms: C_9  and  C_4 
REMARK    5  A    between atoms: O_13  and  C_9 
REMARK    6  A    between atoms: C_15  and  O_13 
ROOT
ATOM      1  C   UNL d   1      52.470  32.500  52.991  0.00  0.00     0.165 C 
ENDROOT
BRANCH   1   2
ATOM      2  C   UNL d   1      53.183  32.142  53.157  0.00  0.00     0.223 C 
ATOM      3  O   UNL d   1      53.887  32.571  53.119  0.00  0.00    -0.284 OA
BRANCH   2   4
ATOM      4  C   UNL d   1      53.192  31.320  53.370  0.00  0.00     0.080 A 
ATOM      5  C   UNL d   1      53.500  31.103  54.092  0.00  0.00     0.202 A 
ATOM      6  C   UNL d   1      53.514  30.292  54.315  0.00  0.00     0.084 A 
ATOM      7  O   UNL d   1      53.796  31.691  54.598  0.00  0.00    -0.286 OA
ATOM      8  C   UNL d   1      53.212  29.734  53.787  0.00  0.00     0.199 A 
ATOM      9  C   UNL d   1      52.901  29.963  53.055  0.00  0.00     0.042 A 
ATOM     10  O   UNL d   1      53.227  28.923  54.010  0.00  0.00    -0.286 OA
ATOM     11  C   UNL d   1      52.893  30.751  52.853  0.00  0.00     0.010 A 
ENDBRANCH   2   4
ENDBRANCH   1   2
BRANCH   1  12
ATOM     12  O   UNL d   1      52.412  33.317  52.945  0.00  0.00    -0.302 OA
BRANCH  12  13
ATOM     13  C   UNL d   1      51.686  33.672  52.768  0.00  0.00     0.100 A 
ATOM     14  C   UNL d   1      51.066  33.637  53.312  0.00  0.00     0.025 A 
ATOM     15  C   UNL d   1      50.356  33.983  53.142  0.00  0.00     0.007 A 
ATOM     16  C   UNL d   1      50.235  34.382  52.413  0.00  0.00     0.063 A 
ATOM     17  C   UNL d   1      50.855  34.417  51.869  0.00  0.00     0.007 A 
ATOM     18  C   UNL d   1      51.592  34.053  52.058  0.00  0.00     0.025 A 
BRANCH  16  19
ATOM     19  C   UNL d   1      49.496  34.736  52.246  0.00  0.00     0.296 C 
ATOM     20  O   UNL d   1      49.136  35.242  52.789  0.00  0.00    -0.259 OA
BRANCH  19  21
ATOM     21  O   UNL d   1      49.133  34.564  51.513  0.00  0.00    -0.296 OA
ATOM     22  C   UNL d   1      48.386  34.862  51.329  0.00  0.00     0.185 C 
ENDBRANCH  19  21
ENDBRANCH  16  19
ENDBRANCH  12  13
ENDBRANCH   1  12
TORSDOF 6
ENDMDL
MODEL 2
REMARK VINA RESULT:      -8.2      1.539      2.324
REMARK  6 active torsions:
REMARK  status: ('A' for Active; 'I' for Inactive)
REMARK    1  A    between atoms: C_4  and  C_1 
REMARK    2  A    between atoms: C_3  and  C_7 
REMARK    3  A    between atoms: O_18  and  C_3 
REMARK    4  A    between atoms: C_9  and  C_4 
REMARK    5  A    between atoms: O_13  and  C_9 
REMARK    6  A    between atoms: C_15  and  O_13 
ROOT
ATOM      1  C   UNL d   1      52.773  33.176  53.412  0.00  0.00     0.165 C 
ENDROOT
BRANCH   1   2
ATOM      2  C   UNL d   1      53.379  32.699  53.675  0.00  0.00     0.223 C 
ATOM      3  O   UNL d   1      53.418  31.907  53.448  0.00  0.00    -0.284 OA
BRANCH   2   4
ATOM      4  C   UNL d   1      53.971  33.029  54.186  0.00  0.00     0.080 A 
ATOM      5  C   UNL d   1      54.733  33.109  53.907  0.00  0.00     0.202 A 
ATOM      6  C   UNL d   1      55.328  33.436  54.405  0.00  0.00     0.084 A 
ATOM      7  O   UNL d   1      54.907  32.866  53.134  0.00  0.00    -0.286 OA
ATOM      8  C   UNL d   1      55.119  33.668  55.169  0.00  0.00     0.199 A 
ATOM      9  C   UNL d   1      54.343  33.583  55.444  0.00  0.00     0.042 A 
ATOM     10  O   UNL d   1      55.715  33.994  55.665  0.00  0.00    -0.286 OA
ATOM     11  C   UNL d   1      53.777  33.266  54.952  0.00  0.00     0.010 A 
ENDBRANCH   2   4
ENDBRANCH   1   2
BRANCH   1  12
ATOM     12  O   UNL d   1      52.144  32.859  52.991  0.00  0.00    -0.302 OA
BRANCH  12  13
ATOM     13  C   UNL d   1      51.484  33.327  52.817  0.00  0.00     0.100 A 
ATOM     14  C   UNL d   1      50.794  33.251  53.263  0.00  0.00     0.025 A 
ATOM     15  C   UNL d   1      50.148  33.706  53.095  0.00  0.00     0.007 A 
ATOM     16  C   UNL d   1      50.166  34.264  52.467  0.00  0.00     0.063 A 
ATOM     17  C   UNL d   1      50.856  34.341  52.021  0.00  0.00     0.007 A 
ATOM     18  C   UNL d   1      51.524  33.860  52.205  0.00  0.00     0.025 A 
BRANCH  16  19
ATOM     19  C   UNL d   1      49.493  34.731  52.301  0.00  0.00     0.296 C 
ATOM     20  O   UNL d   1      49.226  35.296  52.840  0.00  0.00    -0.259 OA
BRANCH  19  21
ATOM     21  O   UNL d   1      49.098  34.609  51.575  0.00  0.00    -0.296 OA
ATOM     22  C   UNL d   1      48.408  35.022  51.392  0.00  0.00     0.185 C 
ENDBRANCH  19  21
ENDBRANCH  16  19
ENDBRANCH  12  13
ENDBRANCH   1  12
TORSDOF 6
ENDMDL
MODEL 3
REMARK VINA RESULT:      -7.7      1.718      5.049
REMARK  6 active torsions:
REMARK  status: ('A' for Active; 'I' for Inactive)
REMARK    1  A    between atoms: C_4  and  C_1 
REMARK    2  A    between atoms: C_3  and  C_7 
REMARK    3  A    between atoms: O_18  and  C_3 
REMARK    4  A    between atoms: C_9  and  C_4 
REMARK    5  A    between atoms: O_13  and  C_9 
REMARK    6  A    between atoms: C_15  and  O_13 
ROOT
ATOM      1  C   UNL d   1      52.584  32.836  53.140  0.00  0.00     0.165 C 
ENDROOT
BRANCH   1   2
ATOM      2  C   UNL d   1      52.502  33.583  52.823  0.00  0.00     0.223 C 
ATOM      3  O   UNL d   1      52.324  33.683  52.023  0.00  0.00    -0.284 OA
BRANCH   2   4
ATOM      4  C   UNL d   1      52.602  34.258  53.328  0.00  0.00     0.080 A 
ATOM      5  C   UNL d   1      51.942  34.671  53.569  0.00  0.00     0.202 A 
ATOM      6  C   UNL d   1      52.029  35.342  54.070  0.00  0.00     0.084 A 
ATOM      7  O   UNL d   1      51.194  34.422  53.314  0.00  0.00    -0.286 OA
ATOM      8  C   UNL d   1      52.788  35.562  54.305  0.00  0.00     0.199 A 
ATOM      9  C   UNL d   1      53.453  35.137  54.056  0.00  0.00     0.042 A 
ATOM     10  O   UNL d   1      52.873  36.233  54.806  0.00  0.00    -0.286 OA
ATOM     11  C   UNL d   1      53.355  34.490  53.571  0.00  0.00     0.010 A 
ENDBRANCH   2   4
ENDBRANCH   1   2
BRANCH   1  12
ATOM     12  O   UNL d   1      52.790  32.201  52.663  0.00  0.00    -0.302 OA
BRANCH  12  13
ATOM     13  C   UNL d   1      52.886  31.448  52.995  0.00  0.00     0.100 A 
ATOM     14  C   UNL d   1      52.259  30.912  52.989  0.00  0.00     0.025 A 
ATOM     15  C   UNL d   1      52.349  30.177  53.312  0.00  0.00     0.007 A 
ATOM     16  C   UNL d   1      53.079  29.946  53.658  0.00  0.00     0.063 A 
ATOM     17  C   UNL d   1      53.706  30.482  53.663  0.00  0.00     0.007 A 
ATOM     18  C   UNL d   1      53.600  31.247  53.323  0.00  0.00     0.025 A 
BRANCH  16  19
ATOM     19  C   UNL d   1      53.163  29.183  53.989  0.00  0.00     0.296 C 
ATOM     20  O   UNL d   1      53.054  28.506  53.530  0.00  0.00    -0.259 OA
BRANCH  19  21
ATOM     21  O   UNL d   1      53.360  29.126  54.800  0.00  0.00    -0.296 OA
ATOM     22  C   UNL d   1      53.414  28.391  55.172  0.00  0.00     0.185 C 
ENDBRANCH  19  21
ENDBRANCH  16  19
ENDBRANCH  12  13
ENDBRANCH   1  12
TORSDOF 6
ENDMDL
MODEL 4
REMARK VINA RESULT:      -7.3      1.881      2.649
REMARK  6 active torsions:
REMARK  status: ('A' for Active; 'I' for Inactive)
REMARK    1  A    between atoms: C_4  and  C_1 
REMARK    2  A    between atoms: C_3  and  C_7 
REMARK    3  A    between atoms: O_18  and  C_3 
REMARK    4  A    between atoms: C_9  and  C_4 
REMARK    5  A    between atoms: O_13  and  C_9 
REMARK    6  A    between atoms: C_15  and  O_13 
ROOT
ATOM      1  C   UNL d   1      52.885  31.547  53.198  0.00  0.00     0.165 C 
ENDROOT
BRANCH   1   2
ATOM      2  C   UNL d   1      52.953  30.797  52.884  0.00  0.00     0.223 C 
ATOM      3  O   UNL d   1      52.888  30.675  52.071  0.00  0.00    -0.284 OA
BRANCH   2   4
ATOM      4  C   UNL d   1      53.092  30.144  53.407  0.00  0.00     0.080 A 
ATOM      5  C   UNL d   1      52.469  29.658  53.605  0.00  0.00     0.202 A 
ATOM      6  C   UNL d   1      52.594  29.006  54.123  0.00  0.00     0.084 A 
ATOM      7  O   UNL d   1      51.718  29.816  53.290  0.00  0.00    -0.286 OA
ATOM      8  C   UNL d   1      53.354  28.878  54.418  0.00  0.00     0.199 A 
ATOM      9  C   UNL d   1      53.981  29.377  54.212  0.00  0.00     0.042 A 
ATOM     10  O   UNL d   1      53.478  28.227  54.935  0.00  0.00    -0.286 OA
ATOM     11  C   UNL d   1      53.846  30.004  53.710  0.00  0.00     0.010 A 
ENDBRANCH   2   4
ENDBRANCH   1   2
BRANCH   1  12
ATOM     12  O   UNL d   1      52.941  32.209  52.715  0.00  0.00    -0.302 OA
BRANCH  12  13
ATOM     13  C   UNL d   1      52.877  32.967  53.042  0.00  0.00     0.100 A 
ATOM     14  C   UNL d   1      52.199  33.418  52.909  0.00  0.00     0.025 A 
ATOM     15  C   UNL d   1      52.134  34.158  53.227  0.00  0.00     0.007 A 
ATOM     16  C   UNL d   1      52.751  34.480  53.697  0.00  0.00     0.063 A 
ATOM     17  C   UNL d   1      53.429  34.029  53.830  0.00  0.00     0.007 A 
ATOM     18  C   UNL d   1      53.486  33.258  53.493  0.00  0.00     0.025 A 
BRANCH  16  19
ATOM     19  C   UNL d   1      52.674  35.246  54.021  0.00  0.00     0.296 C 
ATOM     20  O   UNL d   1      51.949  35.639  54.015  0.00  0.00    -0.259 OA
BRANCH  19  21
ATOM     21  O   UNL d   1      53.354  35.604  54.353  0.00  0.00    -0.296 OA
ATOM     22  C   UNL d   1      53.304  36.327  54.746  0.00  0.00     0.185 C 
ENDBRANCH  19  21
ENDBRANCH  16  19
ENDBRANCH  12  13
ENDBRANCH   1  12
TORSDOF 6
ENDMDL
MODEL 5
REMARK VINA RESULT:      -7.3      0.854      5.017
REMARK  6 active torsions:
REMARK  status: ('A' for Active; 'I' for Inactive)
REMARK    1  A    between atoms: C_4  and  C_1 
REMARK    2  A    between atoms: C_3  and  C_7 
REMARK    3  A    between atoms: O_18  and  C_3 
REMARK    4  A    between atoms: C_9  and  C_4 
REMARK    5  A    between atoms: O_13  and  C_9 
REMARK    6  A    between atoms: C_15  and  O_13 
ROOT
ATOM      1  C   UNL d   1      52.023  33.245  52.900  0.00  0.00     0.165 C 
ENDROOT
BRANCH   1   2
ATOM      2  C   UNL d   1      51.840  34.022  52.734  0.00  0.00     0.223 C 
ATOM      3  O   UNL d   1      52.403  34.617  52.836  0.00  0.00    -0.284 OA
BRANCH   2   4
ATOM      4  C   UNL d   1      51.061  34.210  52.454  0.00  0.00     0.080 A 
ATOM      5  C   UNL d   1      50.505  34.477  52.986  0.00  0.00     0.202 A 
ATOM      6  C   UNL d   1      49.729  34.667  52.721  0.00  0.00     0.084 A 
ATOM      7  O   UNL d   1      50.716  34.557  53.784  0.00  0.00    -0.286 OA
ATOM      8  C   UNL d   1      49.553  34.575  51.920  0.00  0.00     0.199 A 
ATOM      9  C   UNL d   1      50.124  34.303  51.386  0.00  0.00     0.042 A 
ATOM     10  O   UNL d   1      48.778  34.765  51.656  0.00  0.00    -0.286 OA
ATOM     11  C   UNL d   1      50.871  34.123  51.656  0.00  0.00     0.010 A 
ENDBRANCH   2   4
ENDBRANCH   1   2
BRANCH   1  12
ATOM     12  O   UNL d   1      52.802  32.986  52.879  0.00  0.00    -0.302 OA
BRANCH  12  13
ATOM     13  C   UNL d   1      52.988  32.213  53.111  0.00  0.00     0.100 A 
ATOM     14  C   UNL d   1      53.535  32.084  53.715  0.00  0.00     0.025 A 
ATOM     15  C   UNL d   1      53.718  31.331  53.944  0.00  0.00     0.007 A 
ATOM     16  C   UNL d   1      53.357  30.669  53.574  0.00  0.00     0.063 A 
ATOM     17  C   UNL d   1      52.809  30.798  52.970  0.00  0.00     0.007 A 
ATOM     18  C   UNL d   1      52.626  31.589  52.740  0.00  0.00     0.025 A 
BRANCH  16  19
ATOM     19  C   UNL d   1      53.553  29.894  53.818  0.00  0.00     0.296 C 
ATOM     20  O   UNL d   1      54.211  29.505  53.507  0.00  0.00    -0.259 OA
BRANCH  19  21
ATOM     21  O   UNL d   1      53.063  29.524  54.386  0.00  0.00    -0.296 OA
ATOM     22  C   UNL d   1      53.282  28.808  54.732  0.00  0.00     0.185 C 
ENDBRANCH  19  21
ENDBRANCH  16  19
ENDBRANCH  12  13
ENDBRANCH   1  12
TORSDOF 6
ENDMDL
MODEL 6
REMARK VINA RESULT:      -6.9      2.180      3.161
REMARK  6 active torsions:
REMARK  status: ('A' for Active; 'I' for Inactive)
REMARK    1  A    between atoms: C_4  and  C_1 
REMARK    2  A    between atoms: C_3  and  C_7 
REMARK    3  A    between atoms: O_18  and  C_3 
REMARK    4  A    between atoms: C_9  and  C_4 
REMARK    5  A    between atoms: O_13  and  C_9 
REMARK    6  A    between atoms: C_15  and  O_13 
ROOT
ATOM      1  C   UNL d   1      50.908  34.324  52.660  0.00  0.00     0.165 C 
ENDROOT
BRANCH   1   2
ATOM      2  C   UNL d   1      51.642  33.971  52.698  0.00  0.00     0.223 C 
ATOM      3  O   UNL d   1      51.866  33.406  52.140  0.00  0.00    -0.284 OA
BRANCH   2   4
ATOM      4  C   UNL d   1      52.174  34.193  53.321  0.00  0.00     0.080 A 
ATOM      5  C   UNL d   1      52.441  33.620  53.835  0.00  0.00     0.202 A 
ATOM      6  C   UNL d   1      52.969  33.828  54.456  0.00  0.00     0.084 A 
ATOM      7  O   UNL d   1      52.187  32.837  53.733  0.00  0.00    -0.286 OA
ATOM      8  C   UNL d   1      53.201  34.617  54.528  0.00  0.00     0.199 A 
ATOM      9  C   UNL d   1      52.925  35.193  54.002  0.00  0.00     0.042 A 
ATOM     10  O   UNL d   1      53.728  34.824  55.150  0.00  0.00    -0.286 OA
ATOM     11  C   UNL d   1      52.415  34.978  53.405  0.00  0.00     0.010 A 
ENDBRANCH   2   4
ENDBRANCH   1   2
BRANCH   1  12
ATOM     12  O   UNL d   1      50.355  34.080  52.104  0.00  0.00    -0.302 OA
BRANCH  12  13
ATOM     13  C   UNL d   1      49.638  34.486  52.028  0.00  0.00     0.100 A 
ATOM     14  C   UNL d   1      49.313  34.875  52.679  0.00  0.00     0.025 A 
ATOM     15  C   UNL d   1      48.613  35.272  52.608  0.00  0.00     0.007 A 
ATOM     16  C   UNL d   1      48.205  35.297  51.874  0.00  0.00     0.063 A 
ATOM     17  C   UNL d   1      48.530  34.907  51.223  0.00  0.00     0.007 A 
ATOM     18  C   UNL d   1      49.261  34.496  51.309  0.00  0.00     0.025 A 
BRANCH  16  19
ATOM     19  C   UNL d   1      47.481  35.710  51.810  0.00  0.00     0.296 C 
ATOM     20  O   UNL d   1      47.420  36.498  52.047  0.00  0.00    -0.259 OA
BRANCH  19  21
ATOM     21  O   UNL d   1      46.821  35.303  51.499  0.00  0.00    -0.296 OA
ATOM     22  C   UNL d   1      46.080  35.664  51.458  0.00  0.00     0.185 C 
ENDBRANCH  19  21
ENDBRANCH  16  19
ENDBRANCH  12  13
ENDBRANCH   1  12
TORSDOF 6
ENDMDL
MODEL 7
REMARK VINA RESULT:      -6.7      2.022      5.707
REMARK  6 active torsions:
REMARK  status: ('A' for Active; 'I' for Inactive)
REMARK    1  A    between atoms: C_4  and  C_1 
REMARK    2  A    between atoms: C_3  and  C_7 
REMARK    3  A    between atoms: O_18  and  C_3 
REMARK    4  A    between atoms: C_9  and  C_4 
REMARK    5  A    between atoms: O_13  and  C_9 
REMARK    6  A    between atoms: C_15  and  O_13 
ROOT
ATOM      1  C   UNL d   1      49.787  34.622  52.440  0.00  0.00     0.165 C 
ENDROOT
BRANCH   1   2
ATOM      2  C   UNL d   1      49.164  34.781  51.940  0.00  0.00     0.223 C 
ATOM      3  O   UNL d   1      49.147  34.469  51.176  0.00  0.00    -0.284 OA
BRANCH   2   4
ATOM      4  C   UNL d   1      48.530  35.274  52.217  0.00  0.00     0.080 A 
ATOM      5  C   UNL d   1      47.855  35.339  51.765  0.00  0.00     0.202 A 
ATOM      6  C   UNL d   1      47.221  35.825  52.029  0.00  0.00     0.084 A 
ATOM      7  O   UNL d   1      47.807  34.923  51.049  0.00  0.00    -0.286 OA
ATOM      8  C   UNL d   1      47.302  36.225  52.746  0.00  0.00     0.199 A 
ATOM      9  C   UNL d   1      47.991  36.152  53.199  0.00  0.00     0.042 A 
ATOM     10  O   UNL d   1      46.667  36.709  53.009  0.00  0.00    -0.286 OA
ATOM     11  C   UNL d   1      48.598  35.680  52.932  0.00  0.00     0.010 A 
ENDBRANCH   2   4
ENDBRANCH   1   2
BRANCH   1  12
ATOM     12  O   UNL d   1      50.432  34.185  52.179  0.00  0.00    -0.302 OA
BRANCH  12  13
ATOM     13  C   UNL d   1      51.088  34.080  52.672  0.00  0.00     0.100 A 
ATOM     14  C   UNL d   1      51.106  33.452  53.207  0.00  0.00     0.025 A 
ATOM     15  C   UNL d   1      51.745  33.346  53.690  0.00  0.00     0.007 A 
ATOM     16  C   UNL d   1      52.400  33.871  53.657  0.00  0.00     0.063 A 
ATOM     17  C   UNL d   1      52.383  34.499  53.122  0.00  0.00     0.007 A 
ATOM     18  C   UNL d   1      51.710  34.599  52.623  0.00  0.00     0.025 A 
BRANCH  16  19
ATOM     19  C   UNL d   1      53.057  33.753  54.161  0.00  0.00     0.296 C 
ATOM     20  O   UNL d   1      53.130  34.172  54.867  0.00  0.00    -0.259 OA
BRANCH  19  21
ATOM     21  O   UNL d   1      53.637  33.198  53.928  0.00  0.00    -0.296 OA
ATOM     22  C   UNL d   1      54.301  33.056  54.397  0.00  0.00     0.185 C 
ENDBRANCH  19  21
ENDBRANCH  16  19
ENDBRANCH  12  13
ENDBRANCH   1  12
TORSDOF 6
ENDMDL
