MODEL 1
REMARK VINA RESULT:      32.9      0.000      0.000
REMARK  4 active torsions:
REMARK  status: ('A' for Active; 'I' for Inactive)
REMARK    1  A    between atoms: N_3  and  C_1 
REMARK    2  A    between atoms: N_5  and  N_2 
REMARK    3  A    between atoms: S_4  and  N_5 
REMARK    4  A    between atoms: C_13  and  S_4 
ROOT
ATOM      1  C   UNL d   1      14.777  12.262  -1.408  0.00  0.00     0.771 A 
ATOM      2  N   UNL d   1      14.875  12.930  -0.946  0.00  0.00    -0.026 N 
ATOM      3  N   UNL d   1      15.437  11.779  -1.293  0.00  0.00     0.048 NA
ATOM      4  C   UNL d   1      15.583  12.871  -0.546  0.00  0.00     0.204 A 
ATOM      5  N   UNL d   1      15.937  12.157  -0.758  0.00  0.00    -0.112 NA
ATOM      6  C   UNL d   1      15.899  13.422  -0.020  0.00  0.00     0.044 C 
ENDROOT
BRANCH   2   7
ATOM      7  N   UNL d   1      14.353  13.564  -0.885  0.00  0.00    -0.056 NA
BRANCH   7   8
ATOM      8  S   UNL d   1      14.626  14.339  -0.884  0.00  0.00     0.301 S 
ATOM      9  O   UNL d   1      15.065  14.196  -1.556  0.00  0.00    -0.197 OA
ATOM     10  O   UNL d   1      14.179  14.478  -0.202  0.00  0.00    -0.197 OA
BRANCH   8  11
ATOM     11  C   UNL d   1      14.889  15.120  -0.866  0.00  0.00     0.107 A 
ATOM     12  C   UNL d   1      14.874  15.570  -1.556  0.00  0.00     0.015 A 
ATOM     13  C   UNL d   1      15.137  16.354  -1.541  0.00  0.00     0.030 A 
ATOM     14  C   UNL d   1      15.414  16.681  -0.832  0.00  0.00     0.140 A 
ATOM     15  C   UNL d   1      15.430  16.232  -0.142  0.00  0.00     0.030 A 
ATOM     16  F   UNL d   1      15.674  17.458  -0.821  0.00  0.00    -0.204 F 
ATOM     17  C   UNL d   1      15.167  15.447  -0.156  0.00  0.00     0.015 A 
ENDBRANCH   8  11
ENDBRANCH   7   8
ENDBRANCH   2   7
BRANCH   1  18
ATOM     18  N   UNL d   1      14.133  12.104  -1.899  0.00  0.00    -0.056 N 
ATOM     19  N   UNL d   1      14.129  12.141  -2.723  0.00  0.00    -0.150 NA
ATOM     20  C   UNL d   1      13.373  11.941  -2.984  0.00  0.00     0.103 A 
ATOM     21  C   UNL d   1      13.123  11.907  -3.765  0.00  0.00     0.022 C 
ATOM     22  C   UNL d   1      12.908  11.780  -2.322  0.00  0.00     0.041 A 
ATOM     23  C   UNL d   1      13.385  11.883  -1.653  0.00  0.00     0.102 A 
ATOM     24  C   UNL d   1      13.142  11.779  -0.873  0.00  0.00     0.021 C 
ENDBRANCH   1  18
TORSDOF 4
ENDMDL
