MODEL 1
REMARK VINA RESULT:      53.6      0.000      0.000
REMARK  4 active torsions:
REMARK  status: ('A' for Active; 'I' for Inactive)
REMARK    1  A    between atoms: N_2  and  S_1 
REMARK    2  A    between atoms: C_4  and  S_1 
REMARK    3  A    between atoms: C_3  and  C_9 
REMARK       I    between atoms: N_5  and  C_3 
REMARK    4  A    between atoms: C_6  and  N_5 
ROOT
ATOM      1  C   UNL d   1     -50.831  24.911  33.494  0.00  0.00     0.104 A 
ATOM      2  C   UNL d   1     -49.984  26.044  33.694  0.00  0.00     0.059 A 
ATOM      3  C   UNL d   1     -50.736  25.712  33.688  0.00  0.00     0.018 A 
ATOM      4  C   UNL d   1     -50.174  24.451  33.308  0.00  0.00     0.013 A 
ATOM      5  C   UNL d   1     -49.327  25.583  33.508  0.00  0.00     0.005 A 
ATOM      6  C   UNL d   1     -49.424  24.780  33.314  0.00  0.00     0.001 A 
ENDROOT
BRANCH   1   7
ATOM      7  S   UNL d   1     -51.580  24.583  33.488  0.00  0.00     0.271 S 
ATOM      8  O   UNL d   1     -51.725  25.354  33.308  0.00  0.00    -0.200 OA
ATOM      9  O   UNL d   1     -51.476  23.782  33.670  0.00  0.00    -0.200 OA
BRANCH   7  10
ATOM     10  N   UNL d   1     -52.364  24.345  33.460  0.00  0.00    -0.229 N 
ATOM     11  C   UNL d   1     -52.512  23.526  33.346  0.00  0.00     0.092 A 
ATOM     12  C   UNL d   1     -53.166  23.212  33.306  0.00  0.00     0.020 A 
ATOM     13  C   UNL d   1     -53.979  23.492  33.351  0.00  0.00     0.002 A 
ATOM     14  C   UNL d   1     -54.282  24.166  33.447  0.00  0.00     0.002 A 
ATOM     15  C   UNL d   1     -53.861  24.890  33.546  0.00  0.00     0.020 A 
ATOM     16  C   UNL d   1     -52.974  24.973  33.552  0.00  0.00     0.092 A 
ENDBRANCH   7  10
ENDBRANCH   1   7
BRANCH   2  17
ATOM     17  C   UNL d   1     -49.889  26.844  33.888  0.00  0.00     0.281 C 
ATOM     18  N   UNL d   1     -49.209  27.083  34.293  0.00  0.00    -0.187 NA
ATOM     19  O   UNL d   1     -50.469  27.382  33.676  0.00  0.00    -0.265 OA
BRANCH  18  20
ATOM     20  C   UNL d   1     -49.119  27.876  34.482  0.00  0.00     0.194 A 
ATOM     21  N   UNL d   1     -49.141  28.512  33.955  0.00  0.00    -0.106 NA
ATOM     22  O   UNL d   1     -49.026  29.203  34.385  0.00  0.00    -0.207 OA
ATOM     23  C   UNL d   1     -48.932  28.996  35.181  0.00  0.00     0.153 A 
ATOM     24  C   UNL d   1     -48.989  28.184  35.242  0.00  0.00     0.070 A 
ENDBRANCH  18  20
ENDBRANCH   2  17
TORSDOF 4
ENDMDL
