MODEL 1
REMARK VINA RESULT:      -4.7      0.000      0.000
REMARK  4 active torsions:
REMARK  status: ('A' for Active; 'I' for Inactive)
REMARK    1  A    between atoms: C_6  and  C_1 
REMARK       I    between atoms: N_8  and  C_6 
REMARK    2  A    between atoms: C_17  and  N_8 
REMARK    3  A    between atoms: C_9  and  C_17 
REMARK    4  A    between atoms: O_18  and  C_12 
ROOT
ATOM      1  C   UNL d   1      57.695  -0.237  30.758  0.00  0.00     0.121 A 
ATOM      2  C   UNL d   1      58.125   0.277  31.222  0.00  0.00     0.305 A 
ATOM      3  O   UNL d   1      57.915   0.401  32.015  0.00  0.00    -0.271 OA
ATOM      4  C   UNL d   1      57.046  -0.641  31.068  0.00  0.00     0.012 A 
ATOM      5  C   UNL d   1      57.265  -0.003  32.326  0.00  0.00     0.125 A 
ATOM      6  C   UNL d   1      56.836  -0.516  31.862  0.00  0.00     0.025 A 
ATOM      7  O   UNL d   1      58.780   0.682  30.905  0.00  0.00    -0.259 OA
ATOM      8  C   UNL d   1      57.057   0.119  33.107  0.00  0.00     0.117 A 
ATOM      9  C   UNL d   1      56.189  -0.919  32.169  0.00  0.00     0.002 A 
ATOM     10  C   UNL d   1      55.968  -0.804  32.961  0.00  0.00     0.002 A 
ATOM     11  C   UNL d   1      56.404  -0.283  33.433  0.00  0.00     0.026 A 
ENDROOT
BRANCH   1  12
ATOM     12  C   UNL d   1      57.918  -0.348  29.974  0.00  0.00     0.284 C 
ATOM     13  N   UNL d   1      58.288  -0.939  29.533  0.00  0.00    -0.204 NA
ATOM     14  O   UNL d   1      57.767   0.246  29.411  0.00  0.00    -0.265 OA
BRANCH  13  15
ATOM     15  C   UNL d   1      58.526  -1.634  29.911  0.00  0.00     0.127 C 
BRANCH  15  16
ATOM     16  C   UNL d   1      58.869  -2.252  29.479  0.00  0.00     0.119 A 
ATOM     17  O   UNL d   1      58.499  -2.952  29.257  0.00  0.00    -0.304 OA
ATOM     18  C   UNL d   1      59.046  -3.393  28.842  0.00  0.00     0.123 A 
ATOM     19  C   UNL d   1      59.754  -2.960  28.809  0.00  0.00     0.029 A 
ATOM     20  C   UNL d   1      59.645  -2.258  29.201  0.00  0.00     0.028 A 
ENDBRANCH  15  16
ENDBRANCH  13  15
ENDBRANCH   1  12
BRANCH   8  21
ATOM     21  O   UNL d   1      57.489   0.635  33.574  0.00  0.00    -0.326 OA
ATOM     22  C   UNL d   1      57.350   0.682  34.380  0.00  0.00     0.181 C 
ENDBRANCH   8  21
TORSDOF 4
ENDMDL
MODEL 2
REMARK VINA RESULT:      -3.9      1.976      2.466
REMARK  4 active torsions:
REMARK  status: ('A' for Active; 'I' for Inactive)
REMARK    1  A    between atoms: C_6  and  C_1 
REMARK       I    between atoms: N_8  and  C_6 
REMARK    2  A    between atoms: C_17  and  N_8 
REMARK    3  A    between atoms: C_9  and  C_17 
REMARK    4  A    between atoms: O_18  and  C_12 
ROOT
ATOM      1  C   UNL d   1      57.208   0.075  31.166  0.00  0.00     0.121 A 
ATOM      2  C   UNL d   1      57.111  -0.734  31.188  0.00  0.00     0.305 A 
ATOM      3  O   UNL d   1      56.698  -1.090  31.814  0.00  0.00    -0.271 OA
ATOM      4  C   UNL d   1      56.898   0.552  31.764  0.00  0.00     0.012 A 
ATOM      5  C   UNL d   1      56.387  -0.612  32.412  0.00  0.00     0.125 A 
ATOM      6  C   UNL d   1      56.484   0.196  32.389  0.00  0.00     0.025 A 
ATOM      7  O   UNL d   1      57.426  -1.212  30.584  0.00  0.00    -0.259 OA
ATOM      8  C   UNL d   1      55.980  -0.961  33.029  0.00  0.00     0.117 A 
ATOM      9  C   UNL d   1      56.176   0.673  32.983  0.00  0.00     0.002 A 
ATOM     10  C   UNL d   1      55.760   0.330  33.615  0.00  0.00     0.002 A 
ATOM     11  C   UNL d   1      55.662  -0.491  33.638  0.00  0.00     0.026 A 
ENDROOT
BRANCH   1  12
ATOM     12  C   UNL d   1      57.621   0.410  30.538  0.00  0.00     0.284 C 
ATOM     13  N   UNL d   1      58.403   0.615  30.376  0.00  0.00    -0.204 NA
ATOM     14  O   UNL d   1      57.216   0.629  29.845  0.00  0.00    -0.265 OA
BRANCH  13  15
ATOM     15  C   UNL d   1      58.983   0.477  30.947  0.00  0.00     0.127 C 
BRANCH  15  16
ATOM     16  C   UNL d   1      59.787   0.537  30.755  0.00  0.00     0.119 A 
ATOM     17  O   UNL d   1      60.109   0.490  30.001  0.00  0.00    -0.304 OA
ATOM     18  C   UNL d   1      60.917   0.579  30.078  0.00  0.00     0.123 A 
ATOM     19  C   UNL d   1      61.089   0.680  30.884  0.00  0.00     0.029 A 
ATOM     20  C   UNL d   1      60.393   0.654  31.300  0.00  0.00     0.028 A 
ENDBRANCH  15  16
ENDBRANCH  13  15
ENDBRANCH   1  12
BRANCH   8  21
ATOM     21  O   UNL d   1      55.882  -1.774  33.052  0.00  0.00    -0.326 OA
ATOM     22  C   UNL d   1      55.431  -2.123  33.641  0.00  0.00     0.181 C 
ENDBRANCH   8  21
TORSDOF 4
ENDMDL
MODEL 3
REMARK VINA RESULT:      -2.8      1.064      4.382
REMARK  4 active torsions:
REMARK  status: ('A' for Active; 'I' for Inactive)
REMARK    1  A    between atoms: C_6  and  C_1 
REMARK       I    between atoms: N_8  and  C_6 
REMARK    2  A    between atoms: C_17  and  N_8 
REMARK    3  A    between atoms: C_9  and  C_17 
REMARK    4  A    between atoms: O_18  and  C_12 
ROOT
ATOM      1  C   UNL d   1      58.511  -0.689  29.616  0.00  0.00     0.121 A 
ATOM      2  C   UNL d   1      59.323  -0.627  29.585  0.00  0.00     0.305 A 
ATOM      3  O   UNL d   1      59.784  -1.272  29.340  0.00  0.00    -0.271 OA
ATOM      4  C   UNL d   1      58.135  -1.393  29.405  0.00  0.00     0.012 A 
ATOM      5  C   UNL d   1      59.408  -1.977  29.129  0.00  0.00     0.125 A 
ATOM      6  C   UNL d   1      58.596  -2.039  29.160  0.00  0.00     0.025 A 
ATOM      7  O   UNL d   1      59.699   0.085  29.798  0.00  0.00    -0.259 OA
ATOM      8  C   UNL d   1      59.861  -2.613  28.888  0.00  0.00     0.117 A 
ATOM      9  C   UNL d   1      58.220  -2.738  28.951  0.00  0.00     0.002 A 
ATOM     10  C   UNL d   1      58.669  -3.392  28.704  0.00  0.00     0.002 A 
ATOM     11  C   UNL d   1      59.493  -3.329  28.672  0.00  0.00     0.026 A 
ENDROOT
BRANCH   1  12
ATOM     12  C   UNL d   1      58.071  -0.039  29.861  0.00  0.00     0.284 C 
ATOM     13  N   UNL d   1      57.575   0.145  30.494  0.00  0.00    -0.204 NA
ATOM     14  O   UNL d   1      58.070   0.658  29.406  0.00  0.00    -0.265 OA
BRANCH  13  15
ATOM     15  C   UNL d   1      57.436  -0.424  31.076  0.00  0.00     0.127 C 
BRANCH  15  16
ATOM     16  C   UNL d   1      56.938  -0.258  31.718  0.00  0.00     0.119 A 
ATOM     17  O   UNL d   1      56.679   0.487  31.950  0.00  0.00    -0.304 OA
ATOM     18  C   UNL d   1      56.203   0.383  32.604  0.00  0.00     0.123 A 
ATOM     19  C   UNL d   1      56.171  -0.429  32.773  0.00  0.00     0.029 A 
ATOM     20  C   UNL d   1      56.624  -0.823  32.228  0.00  0.00     0.028 A 
ENDBRANCH  15  16
ENDBRANCH  13  15
ENDBRANCH   1  12
BRANCH   8  21
ATOM     21  O   UNL d   1      60.677  -2.551  28.856  0.00  0.00    -0.326 OA
ATOM     22  C   UNL d   1      61.134  -3.188  28.618  0.00  0.00     0.181 C 
ENDBRANCH   8  21
TORSDOF 4
ENDMDL
MODEL 4
REMARK VINA RESULT:      -2.4      1.310      1.785
REMARK  4 active torsions:
REMARK  status: ('A' for Active; 'I' for Inactive)
REMARK    1  A    between atoms: C_6  and  C_1 
REMARK       I    between atoms: N_8  and  C_6 
REMARK    2  A    between atoms: C_17  and  N_8 
REMARK    3  A    between atoms: C_9  and  C_17 
REMARK    4  A    between atoms: O_18  and  C_12 
ROOT
ATOM      1  C   UNL d   1      57.824  -0.281  30.389  0.00  0.00     0.121 A 
ATOM      2  C   UNL d   1      57.434  -0.988  30.495  0.00  0.00     0.305 A 
ATOM      3  O   UNL d   1      57.050  -1.152  31.213  0.00  0.00    -0.271 OA
ATOM      4  C   UNL d   1      57.845   0.283  30.992  0.00  0.00     0.012 A 
ATOM      5  C   UNL d   1      57.070  -0.588  31.816  0.00  0.00     0.125 A 
ATOM      6  C   UNL d   1      57.461   0.119  31.709  0.00  0.00     0.025 A 
ATOM      7  O   UNL d   1      57.415  -1.554  29.885  0.00  0.00    -0.259 OA
ATOM      8  C   UNL d   1      56.692  -0.747  32.523  0.00  0.00     0.117 A 
ATOM      9  C   UNL d   1      57.482   0.682  32.308  0.00  0.00     0.002 A 
ATOM     10  C   UNL d   1      57.102   0.531  33.031  0.00  0.00     0.002 A 
ATOM     11  C   UNL d   1      56.705  -0.187  33.139  0.00  0.00     0.026 A 
ENDROOT
BRANCH   1  12
ATOM     12  C   UNL d   1      58.199  -0.136  29.671  0.00  0.00     0.284 C 
ATOM     13  N   UNL d   1      58.926  -0.319  29.327  0.00  0.00    -0.204 NA
ATOM     14  O   UNL d   1      57.810   0.303  29.081  0.00  0.00    -0.265 OA
BRANCH  13  15
ATOM     15  C   UNL d   1      59.475  -0.761  29.756  0.00  0.00     0.127 C 
BRANCH  15  16
ATOM     16  C   UNL d   1      60.136  -1.092  29.380  0.00  0.00     0.119 A 
ATOM     17  O   UNL d   1      60.513  -0.794  28.713  0.00  0.00    -0.304 OA
ATOM     18  C   UNL d   1      61.132  -1.298  28.541  0.00  0.00     0.123 A 
ATOM     19  C   UNL d   1      61.133  -1.907  29.106  0.00  0.00     0.029 A 
ATOM     20  C   UNL d   1      60.520  -1.780  29.622  0.00  0.00     0.028 A 
ENDBRANCH  15  16
ENDBRANCH  13  15
ENDBRANCH   1  12
BRANCH   8  21
ATOM     21  O   UNL d   1      56.299  -1.458  32.630  0.00  0.00    -0.326 OA
ATOM     22  C   UNL d   1      55.630  -1.496  33.102  0.00  0.00     0.181 C 
ENDBRANCH   8  21
TORSDOF 4
ENDMDL
MODEL 5
REMARK VINA RESULT:      -2.0      1.367      4.467
REMARK  4 active torsions:
REMARK  status: ('A' for Active; 'I' for Inactive)
REMARK    1  A    between atoms: C_6  and  C_1 
REMARK       I    between atoms: N_8  and  C_6 
REMARK    2  A    between atoms: C_17  and  N_8 
REMARK    3  A    between atoms: C_9  and  C_17 
REMARK    4  A    between atoms: O_18  and  C_12 
ROOT
ATOM      1  C   UNL d   1      57.324  -0.044  31.090  0.00  0.00     0.121 A 
ATOM      2  C   UNL d   1      57.320  -0.855  31.007  0.00  0.00     0.305 A 
ATOM      3  O   UNL d   1      57.868  -1.229  30.507  0.00  0.00    -0.271 OA
ATOM      4  C   UNL d   1      57.872   0.417  30.680  0.00  0.00     0.012 A 
ATOM      5  C   UNL d   1      58.416  -0.767  30.097  0.00  0.00     0.125 A 
ATOM      6  C   UNL d   1      58.419   0.044  30.180  0.00  0.00     0.025 A 
ATOM      7  O   UNL d   1      56.766  -1.317  31.422  0.00  0.00    -0.259 OA
ATOM      8  C   UNL d   1      58.956  -1.133  29.605  0.00  0.00     0.117 A 
ATOM      9  C   UNL d   1      58.964   0.505  29.773  0.00  0.00     0.002 A 
ATOM     10  C   UNL d   1      59.518   0.144  29.269  0.00  0.00     0.002 A 
ATOM     11  C   UNL d   1      59.514  -0.679  29.185  0.00  0.00     0.026 A 
ENDROOT
BRANCH   1  12
ATOM     12  C   UNL d   1      56.774   0.308  31.589  0.00  0.00     0.284 C 
ATOM     13  N   UNL d   1      56.752   0.563  32.373  0.00  0.00    -0.204 NA
ATOM     14  O   UNL d   1      56.012   0.489  31.306  0.00  0.00    -0.265 OA
BRANCH  13  15
ATOM     15  C   UNL d   1      57.424   0.473  32.845  0.00  0.00     0.127 C 
BRANCH  15  16
ATOM     16  C   UNL d   1      57.375   0.555  33.668  0.00  0.00     0.119 A 
ATOM     17  O   UNL d   1      56.684   0.600  34.110  0.00  0.00    -0.304 OA
ATOM     18  C   UNL d   1      56.902   0.676  34.893  0.00  0.00     0.123 A 
ATOM     19  C   UNL d   1      57.732   0.678  34.929  0.00  0.00     0.029 A 
ATOM     20  C   UNL d   1      58.023   0.604  34.175  0.00  0.00     0.028 A 
ENDBRANCH  15  16
ENDBRANCH  13  15
ENDBRANCH   1  12
BRANCH   8  21
ATOM     21  O   UNL d   1      58.952  -1.948  29.521  0.00  0.00    -0.326 OA
ATOM     22  C   UNL d   1      59.441  -2.312  28.974  0.00  0.00     0.181 C 
ENDBRANCH   8  21
TORSDOF 4
ENDMDL
