MODEL 1
REMARK VINA RESULT:      -4.2      0.000      0.000
REMARK  1 active torsions:
REMARK  status: ('A' for Active; 'I' for Inactive)
REMARK    1  A    between atoms: C_6  and  C_1 
ROOT
ATOM      1  C   UNL d   1      57.867   0.025  30.499  0.00  0.00     0.148 A 
ATOM      2  N   UNL d   1      58.650   0.258  30.626  0.00  0.00    -0.289 N 
ATOM      3  N   UNL d   1      57.757  -0.119  29.702  0.00  0.00    -0.225 NA
ATOM      4  C   UNL d   1      59.024   0.258  29.908  0.00  0.00     0.085 A 
ATOM      5  C   UNL d   1      58.473   0.025  29.335  0.00  0.00     0.118 A 
ATOM      6  C   UNL d   1      59.045   0.465  31.319  0.00  0.00     0.082 A 
ATOM      7  C   UNL d   1      59.820   0.466  29.831  0.00  0.00     0.019 A 
ATOM      8  C   UNL d   1      59.865   0.682  31.259  0.00  0.00     0.019 A 
ATOM      9  C   UNL d   1      60.238   0.682  30.541  0.00  0.00     0.003 A 
ENDROOT
BRANCH   1  10
ATOM     10  C   UNL d   1      57.351  -0.025  31.142  0.00  0.00     0.035 A 
ATOM     11  C   UNL d   1      57.015   0.663  31.509  0.00  0.00     0.004 A 
ATOM     12  C   UNL d   1      56.506   0.606  32.144  0.00  0.00     0.011 A 
ATOM     13  C   UNL d   1      56.322  -0.131  32.425  0.00  0.00     0.058 A 
ATOM     14  C   UNL d   1      56.633  -0.813  32.089  0.00  0.00     0.011 A 
ATOM     15 CL   UNL d   1      55.784  -0.174  33.095  0.00  0.00    -0.082 Cl
ATOM     16  C   UNL d   1      57.145  -0.762  31.450  0.00  0.00     0.004 A 
ENDBRANCH   1  10
TORSDOF 1
ENDMDL
MODEL 2
REMARK VINA RESULT:      -3.9      1.688      2.668
REMARK  1 active torsions:
REMARK  status: ('A' for Active; 'I' for Inactive)
REMARK    1  A    between atoms: C_6  and  C_1 
ROOT
ATOM      1  C   UNL d   1      56.240  -0.799  32.539  0.00  0.00     0.148 A 
ATOM      2  N   UNL d   1      56.768  -0.371  32.069  0.00  0.00    -0.289 N 
ATOM      3  N   UNL d   1      56.164  -1.554  32.236  0.00  0.00    -0.225 NA
ATOM      4  C   UNL d   1      57.019  -0.861  31.476  0.00  0.00     0.085 A 
ATOM      5  C   UNL d   1      56.646  -1.594  31.577  0.00  0.00     0.118 A 
ATOM      6  C   UNL d   1      57.037   0.406  32.129  0.00  0.00     0.082 A 
ATOM      7  C   UNL d   1      57.556  -0.611  30.899  0.00  0.00     0.019 A 
ATOM      8  C   UNL d   1      57.590   0.681  31.545  0.00  0.00     0.019 A 
ATOM      9  C   UNL d   1      57.840   0.191  30.952  0.00  0.00     0.003 A 
ENDROOT
BRANCH   1  10
ATOM     10  C   UNL d   1      55.893  -0.432  33.193  0.00  0.00     0.035 A 
ATOM     11  C   UNL d   1      56.279  -0.390  33.947  0.00  0.00     0.004 A 
ATOM     12  C   UNL d   1      55.931  -0.026  34.590  0.00  0.00     0.011 A 
ATOM     13  C   UNL d   1      55.197   0.302  34.494  0.00  0.00     0.058 A 
ATOM     14  C   UNL d   1      54.801   0.276  33.775  0.00  0.00     0.011 A 
ATOM     15 CL   UNL d   1      54.842   0.682  35.179  0.00  0.00    -0.082 Cl
ATOM     16  C   UNL d   1      55.146  -0.089  33.126  0.00  0.00     0.004 A 
ENDBRANCH   1  10
TORSDOF 1
ENDMDL
MODEL 3
REMARK VINA RESULT:      -3.8      1.872      3.445
REMARK  1 active torsions:
REMARK  status: ('A' for Active; 'I' for Inactive)
REMARK    1  A    between atoms: C_6  and  C_1 
ROOT
ATOM      1  C   UNL d   1      57.698   0.200  31.766  0.00  0.00     0.148 A 
ATOM      2  N   UNL d   1      57.080  -0.244  32.088  0.00  0.00    -0.289 N 
ATOM      3  N   UNL d   1      58.012   0.682  32.347  0.00  0.00    -0.225 NA
ATOM      4  C   UNL d   1      57.011  -0.038  32.867  0.00  0.00     0.085 A 
ATOM      5  C   UNL d   1      57.587   0.535  33.030  0.00  0.00     0.118 A 
ATOM      6  C   UNL d   1      56.585  -0.807  31.745  0.00  0.00     0.082 A 
ATOM      7  C   UNL d   1      56.442  -0.378  33.361  0.00  0.00     0.019 A 
ATOM      8  C   UNL d   1      55.993  -1.168  32.237  0.00  0.00     0.019 A 
ATOM      9  C   UNL d   1      55.925  -0.961  33.016  0.00  0.00     0.003 A 
ENDROOT
BRANCH   1  10
ATOM     10  C   UNL d   1      57.894   0.102  30.969  0.00  0.00     0.035 A 
ATOM     11  C   UNL d   1      58.348  -0.560  30.692  0.00  0.00     0.004 A 
ATOM     12  C   UNL d   1      58.538  -0.651  29.903  0.00  0.00     0.011 A 
ATOM     13  C   UNL d   1      58.282  -0.089  29.380  0.00  0.00     0.058 A 
ATOM     14  C   UNL d   1      57.841   0.561  29.621  0.00  0.00     0.011 A 
ATOM     15 CL   UNL d   1      58.490  -0.198  28.552  0.00  0.00    -0.082 Cl
ATOM     16  C   UNL d   1      57.647   0.657  30.412  0.00  0.00     0.004 A 
ENDBRANCH   1  10
TORSDOF 1
ENDMDL
MODEL 4
REMARK VINA RESULT:      -3.2      9.466     10.341
REMARK  1 active torsions:
REMARK  status: ('A' for Active; 'I' for Inactive)
REMARK    1  A    between atoms: C_6  and  C_1 
ROOT
ATOM      1  C   UNL d   1      59.580  -9.332  34.656  0.00  0.00     0.148 A 
ATOM      2  N   UNL d   1      59.710  -8.633  35.077  0.00  0.00    -0.289 N 
ATOM      3  N   UNL d   1      59.086  -9.818  35.090  0.00  0.00    -0.225 NA
ATOM      4  C   UNL d   1      59.297  -8.686  35.770  0.00  0.00     0.085 A 
ATOM      5  C   UNL d   1      58.910  -9.418  35.781  0.00  0.00     0.118 A 
ATOM      6  C   UNL d   1      60.160  -7.968  34.891  0.00  0.00     0.082 A 
ATOM      7  C   UNL d   1      59.303  -8.077  36.330  0.00  0.00     0.019 A 
ATOM      8  C   UNL d   1      60.178  -7.331  35.455  0.00  0.00     0.019 A 
ATOM      9  C   UNL d   1      59.765  -7.384  36.148  0.00  0.00     0.003 A 
ENDROOT
BRANCH   1  10
ATOM     10  C   UNL d   1      59.939  -9.432  33.918  0.00  0.00     0.035 A 
ATOM     11  C   UNL d   1      60.774  -9.554  33.832  0.00  0.00     0.004 A 
ATOM     12  C   UNL d   1      61.122  -9.652  33.100  0.00  0.00     0.011 A 
ATOM     13  C   UNL d   1      60.648  -9.630  32.444  0.00  0.00     0.058 A 
ATOM     14  C   UNL d   1      59.837  -9.514  32.498  0.00  0.00     0.011 A 
ATOM     15 CL   UNL d   1      61.028  -9.735  31.679  0.00  0.00    -0.082 Cl
ATOM     16  C   UNL d   1      59.482  -9.415  33.232  0.00  0.00     0.004 A 
ENDBRANCH   1  10
TORSDOF 1
ENDMDL
MODEL 5
REMARK VINA RESULT:      -2.9      2.571      3.688
REMARK  1 active torsions:
REMARK  status: ('A' for Active; 'I' for Inactive)
REMARK    1  A    between atoms: C_6  and  C_1 
ROOT
ATOM      1  C   UNL d   1      58.974  -0.822  28.936  0.00  0.00     0.148 A 
ATOM      2  N   UNL d   1      58.507  -0.571  29.570  0.00  0.00    -0.289 N 
ATOM      3  N   UNL d   1      59.139  -0.181  28.455  0.00  0.00    -0.225 NA
ATOM      4  C   UNL d   1      58.383   0.224  29.482  0.00  0.00     0.085 A 
ATOM      5  C   UNL d   1      58.773   0.467  28.793  0.00  0.00     0.118 A 
ATOM      6  C   UNL d   1      58.191  -0.989  30.206  0.00  0.00     0.082 A 
ATOM      7  C   UNL d   1      57.934   0.659  30.023  0.00  0.00     0.019 A 
ATOM      8  C   UNL d   1      57.726  -0.559  30.773  0.00  0.00     0.019 A 
ATOM      9  C   UNL d   1      57.602   0.235  30.685  0.00  0.00     0.003 A 
ENDROOT
BRANCH   1  10
ATOM     10  C   UNL d   1      59.189  -1.617  28.883  0.00  0.00     0.035 A 
ATOM     11  C   UNL d   1      58.685  -2.201  28.528  0.00  0.00     0.004 A 
ATOM     12  C   UNL d   1      58.904  -2.986  28.479  0.00  0.00     0.011 A 
ATOM     13  C   UNL d   1      59.624  -3.203  28.780  0.00  0.00     0.058 A 
ATOM     14  C   UNL d   1      60.131  -2.659  29.128  0.00  0.00     0.011 A 
ATOM     15 CL   UNL d   1      59.841  -4.034  28.721  0.00  0.00    -0.082 Cl
ATOM     16  C   UNL d   1      59.916  -1.869  29.180  0.00  0.00     0.004 A 
ENDBRANCH   1  10
TORSDOF 1
ENDMDL
