MODEL 1
REMARK VINA RESULT:      -7.7      0.000      0.000
REMARK  7 active torsions:
REMARK  status: ('A' for Active; 'I' for Inactive)
REMARK    1  A    between atoms: S_2  and  N_1 
REMARK    2  A    between atoms: C_3  and  N_1 
REMARK       I    between atoms: C_4  and  N_1 
REMARK    3  A    between atoms: C_10  and  S_2 
REMARK    4  A    between atoms: C_15  and  C_4 
REMARK    5  A    between atoms: C_6  and  O_8 
REMARK    6  A    between atoms: C_18  and  C_6 
REMARK    7  A    between atoms: O_8  and  C_7 
ROOT
ATOM      1  C   UNL d   1      51.635  33.827  53.310  0.00  0.00     0.078 A 
ATOM      2  C   UNL d   1      51.507  34.083  52.542  0.00  0.00     0.019 A 
ATOM      3  C   UNL d   1      50.179  34.418  52.813  0.00  0.00     0.103 A 
ATOM      4  C   UNL d   1      50.796  34.373  52.294  0.00  0.00     0.024 A 
ATOM      5  C   UNL d   1      51.017  33.869  53.836  0.00  0.00     0.020 A 
ATOM      6  C   UNL d   1      50.298  34.162  53.588  0.00  0.00     0.026 A 
ATOM      7  C   UNL d   1      52.142  34.035  52.016  0.00  0.00     0.002 A 
ATOM      8  C   UNL d   1      50.669  34.631  51.519  0.00  0.00     0.002 A 
ATOM      9  C   UNL d   1      52.014  34.291  51.248  0.00  0.00     0.000 A 
ATOM     10  C   UNL d   1      51.302  34.581  51.001  0.00  0.00     0.000 A 
ENDROOT
BRANCH   1  11
ATOM     11  N   UNL d   1      52.388  33.523  53.559  0.00  0.00    -0.198 N 
ATOM     12  C   UNL d   1      52.961  34.059  53.870  0.00  0.00     0.274 C 
ATOM     13  O   UNL d   1      52.787  34.855  53.925  0.00  0.00    -0.266 OA
BRANCH  11  14
ATOM     14  S   UNL d   1      52.577  32.716  53.508  0.00  0.00     0.274 S 
ATOM     15  O   UNL d   1      53.049  32.861  52.800  0.00  0.00    -0.200 OA
ATOM     16  O   UNL d   1      52.124  32.584  54.185  0.00  0.00    -0.200 OA
BRANCH  14  17
ATOM     17  C   UNL d   1      52.757  31.879  53.477  0.00  0.00     0.104 A 
ATOM     18  C   UNL d   1      52.688  31.438  54.120  0.00  0.00     0.013 A 
ATOM     19  C   UNL d   1      52.860  30.606  54.122  0.00  0.00     0.001 A 
ATOM     20  C   UNL d   1      53.104  30.257  53.427  0.00  0.00     0.000 A 
ATOM     21  C   UNL d   1      53.187  30.731  52.698  0.00  0.00     0.001 A 
ATOM     22  C   UNL d   1      53.264  29.433  53.468  0.00  0.00     0.000 C 
ATOM     23  C   UNL d   1      53.004  31.571  52.737  0.00  0.00     0.013 A 
ENDBRANCH  14  17
ENDBRANCH  11  14
BRANCH  12  24
ATOM     24  C   UNL d   1      53.682  33.759  54.107  0.00  0.00     0.060 A 
ATOM     25  C   UNL d   1      53.795  33.594  54.927  0.00  0.00     0.025 A 
ATOM     26  C   UNL d   1      54.497  33.296  55.194  0.00  0.00     0.099 A 
ATOM     27  N   UNL d   1      55.110  33.150  54.678  0.00  0.00    -0.242 NA
ATOM     28  C   UNL d   1      55.010  33.310  53.867  0.00  0.00     0.099 A 
ATOM     29  C   UNL d   1      54.323  33.603  53.590  0.00  0.00     0.025 A 
ENDBRANCH  12  24
ENDBRANCH   1  11
BRANCH   3  30
ATOM     30  O   UNL d   1      49.426  34.722  52.563  0.00  0.00    -0.273 OA
BRANCH  30  31
ATOM     31  C   UNL d   1      48.972  35.285  52.983  0.00  0.00     0.300 C 
ATOM     32  O   UNL d   1      49.184  35.577  53.696  0.00  0.00    -0.259 OA
BRANCH  31  33
ATOM     33  C   UNL d   1      48.273  35.546  52.640  0.00  0.00     0.067 A 
ATOM     34  C   UNL d   1      47.952  35.192  51.956  0.00  0.00     0.026 A 
ATOM     35  C   UNL d   1      47.223  35.492  51.629  0.00  0.00     0.099 A 
ATOM     36  N   UNL d   1      46.851  36.102  51.967  0.00  0.00    -0.242 NA
ATOM     37  C   UNL d   1      47.131  36.469  52.628  0.00  0.00     0.099 A 
ATOM     38  C   UNL d   1      47.845  36.178  52.952  0.00  0.00     0.026 A 
ENDBRANCH  31  33
ENDBRANCH  30  31
ENDBRANCH   3  30
TORSDOF 7
ENDMDL
MODEL 2
REMARK VINA RESULT:      -6.6      0.838      2.140
REMARK  7 active torsions:
REMARK  status: ('A' for Active; 'I' for Inactive)
REMARK    1  A    between atoms: S_2  and  N_1 
REMARK    2  A    between atoms: C_3  and  N_1 
REMARK       I    between atoms: C_4  and  N_1 
REMARK    3  A    between atoms: C_10  and  S_2 
REMARK    4  A    between atoms: C_15  and  C_4 
REMARK    5  A    between atoms: C_6  and  O_8 
REMARK    6  A    between atoms: C_18  and  C_6 
REMARK    7  A    between atoms: O_8  and  C_7 
ROOT
ATOM      1  C   UNL d   1      51.494  33.248  53.215  0.00  0.00     0.078 A 
ATOM      2  C   UNL d   1      51.462  33.706  52.536  0.00  0.00     0.019 A 
ATOM      3  C   UNL d   1      50.258  34.298  52.922  0.00  0.00     0.103 A 
ATOM      4  C   UNL d   1      50.859  34.221  52.389  0.00  0.00     0.024 A 
ATOM      5  C   UNL d   1      50.892  33.322  53.756  0.00  0.00     0.020 A 
ATOM      6  C   UNL d   1      50.281  33.842  53.609  0.00  0.00     0.026 A 
ATOM      7  C   UNL d   1      52.080  33.623  51.995  0.00  0.00     0.002 A 
ATOM      8  C   UNL d   1      50.829  34.682  51.702  0.00  0.00     0.002 A 
ATOM      9  C   UNL d   1      52.048  34.080  51.316  0.00  0.00     0.000 A 
ATOM     10  C   UNL d   1      51.444  34.596  51.168  0.00  0.00     0.000 A 
ENDROOT
BRANCH   1  11
ATOM     11  N   UNL d   1      52.134  32.709  53.361  0.00  0.00    -0.198 N 
ATOM     12  C   UNL d   1      52.055  31.906  53.113  0.00  0.00     0.274 C 
ATOM     13  O   UNL d   1      51.371  31.660  52.740  0.00  0.00    -0.266 OA
BRANCH  11  14
ATOM     14  S   UNL d   1      52.833  32.947  53.739  0.00  0.00     0.274 S 
ATOM     15  O   UNL d   1      53.257  32.934  52.987  0.00  0.00    -0.200 OA
ATOM     16  O   UNL d   1      52.424  32.957  54.455  0.00  0.00    -0.200 OA
BRANCH  14  17
ATOM     17  C   UNL d   1      53.543  33.193  54.152  0.00  0.00     0.104 A 
ATOM     18  C   UNL d   1      54.186  33.384  53.750  0.00  0.00     0.013 A 
ATOM     19  C   UNL d   1      54.904  33.631  54.130  0.00  0.00     0.001 A 
ATOM     20  C   UNL d   1      54.921  33.670  54.944  0.00  0.00     0.000 A 
ATOM     21  C   UNL d   1      54.214  33.461  55.412  0.00  0.00     0.001 A 
ATOM     22  C   UNL d   1      55.648  33.919  55.283  0.00  0.00     0.000 C 
ATOM     23  C   UNL d   1      53.505  33.215  54.990  0.00  0.00     0.013 A 
ENDBRANCH  14  17
ENDBRANCH  11  14
BRANCH  12  24
ATOM     24  C   UNL d   1      52.674  31.394  53.256  0.00  0.00     0.060 A 
ATOM     25  C   UNL d   1      52.641  30.910  53.947  0.00  0.00     0.025 A 
ATOM     26  C   UNL d   1      53.237  30.394  54.117  0.00  0.00     0.099 A 
ATOM     27  N   UNL d   1      53.884  30.329  53.626  0.00  0.00    -0.242 NA
ATOM     28  C   UNL d   1      53.928  30.801  52.941  0.00  0.00     0.099 A 
ATOM     29  C   UNL d   1      53.346  31.315  52.762  0.00  0.00     0.025 A 
ENDBRANCH  12  24
ENDBRANCH   1  11
BRANCH   3  30
ATOM     30  O   UNL d   1      49.618  34.837  52.777  0.00  0.00    -0.273 OA
BRANCH  30  31
ATOM     31  C   UNL d   1      49.296  35.365  53.341  0.00  0.00     0.300 C 
ATOM     32  O   UNL d   1      49.683  35.589  54.003  0.00  0.00    -0.259 OA
BRANCH  31  33
ATOM     33  C   UNL d   1      48.544  35.663  53.201  0.00  0.00     0.067 A 
ATOM     34  C   UNL d   1      48.202  35.672  52.440  0.00  0.00     0.026 A 
ATOM     35  C   UNL d   1      47.417  35.991  52.334  0.00  0.00     0.099 A 
ATOM     36  N   UNL d   1      47.013  36.278  52.950  0.00  0.00    -0.242 NA
ATOM     37  C   UNL d   1      47.311  36.286  53.699  0.00  0.00     0.099 A 
ATOM     38  C   UNL d   1      48.080  35.974  53.807  0.00  0.00     0.026 A 
ENDBRANCH  31  33
ENDBRANCH  30  31
ENDBRANCH   3  30
TORSDOF 7
ENDMDL
