MODEL 1
REMARK VINA RESULT:      -2.7      0.000      0.000
REMARK  3 active torsions:
REMARK  status: ('A' for Active; 'I' for Inactive)
REMARK    1  A    between atoms: C_5  and  C_1 
REMARK    2  A    between atoms: N_11  and  C_9 
REMARK    3  A    between atoms: C_17  and  N_11 
ROOT
ATOM      1  C   UNL d   1      28.691  17.418 -24.010  0.00  0.00     0.075 A 
ATOM      2  C   UNL d   1      29.505  17.409 -24.100  0.00  0.00     0.004 A 
ATOM      3  C   UNL d   1      29.941  16.754 -23.824  0.00  0.00     0.004 A 
ATOM      4  C   UNL d   1      28.297  16.773 -23.641  0.00  0.00     0.046 A 
ATOM      5  C   UNL d   1      28.716  16.137 -23.372  0.00  0.00     0.196 A 
ATOM      6  C   UNL d   1      29.534  16.127 -23.463  0.00  0.00     0.039 A 
ATOM      7  C   UNL d   1      30.761  16.744 -23.915  0.00  0.00     0.018 A 
ATOM      8  C   UNL d   1      31.150  17.389 -24.283  0.00  0.00     0.081 A 
ATOM      9  C   UNL d   1      29.886  18.031 -24.455  0.00  0.00     0.002 A 
ATOM     10  C   UNL d   1      30.706  18.021 -24.546  0.00  0.00     0.019 A 
ATOM     11  O   UNL d   1      28.279  15.492 -22.999  0.00  0.00    -0.287 OA
ATOM     12  C   UNL d   1      29.976  15.453 -23.178  0.00  0.00     0.003 A 
ATOM     13  C   UNL d   1      31.207  16.070 -23.630  0.00  0.00     0.002 A 
ATOM     14  C   UNL d   1      30.816  15.462 -23.281  0.00  0.00     0.000 A 
ENDROOT
BRANCH   8  15
ATOM     15  N   UNL d   1      31.969  17.380 -24.374  0.00  0.00    -0.246 NA
BRANCH  15  16
ATOM     16  C   UNL d   1      32.399  18.094 -24.379  0.00  0.00     0.081 A 
ATOM     17  C   UNL d   1      32.477  18.528 -25.093  0.00  0.00     0.019 A 
ATOM     18  C   UNL d   1      32.906  19.238 -25.096  0.00  0.00     0.002 A 
ATOM     19  C   UNL d   1      33.241  19.508 -24.429  0.00  0.00     0.000 A 
ATOM     20  C   UNL d   1      33.178  19.103 -23.722  0.00  0.00     0.002 A 
ATOM     21  C   UNL d   1      32.757  18.395 -23.699  0.00  0.00     0.019 A 
ENDBRANCH  15  16
ENDBRANCH   8  15
BRANCH   1  22
ATOM     22  C   UNL d   1      28.240  18.093 -24.293  0.00  0.00     0.419 C 
ATOM     23  F   UNL d   1      27.807  18.736 -24.574  0.00  0.00    -0.166 F 
ATOM     24  F   UNL d   1      28.227  18.404 -23.515  0.00  0.00    -0.166 F 
ATOM     25  F   UNL d   1      28.270  17.754 -25.066  0.00  0.00    -0.166 F 
ENDBRANCH   1  22
TORSDOF 3
ENDMDL
MODEL 2
REMARK VINA RESULT:      -2.6      3.647      5.548
REMARK  3 active torsions:
REMARK  status: ('A' for Active; 'I' for Inactive)
REMARK    1  A    between atoms: C_5  and  C_1 
REMARK    2  A    between atoms: N_11  and  C_9 
REMARK    3  A    between atoms: C_17  and  N_11 
ROOT
ATOM      1  C   UNL d   1      32.474  21.726 -21.209  0.00  0.00     0.075 A 
ATOM      2  C   UNL d   1      32.664  21.184 -21.793  0.00  0.00     0.004 A 
ATOM      3  C   UNL d   1      32.854  21.456 -22.558  0.00  0.00     0.004 A 
ATOM      4  C   UNL d   1      32.470  22.550 -21.379  0.00  0.00     0.046 A 
ATOM      5  C   UNL d   1      32.653  22.816 -22.119  0.00  0.00     0.196 A 
ATOM      6  C   UNL d   1      32.845  22.271 -22.707  0.00  0.00     0.039 A 
ATOM      7  C   UNL d   1      33.046  20.910 -23.146  0.00  0.00     0.018 A 
ATOM      8  C   UNL d   1      33.049  20.089 -22.973  0.00  0.00     0.081 A 
ATOM      9  C   UNL d   1      32.669  20.390 -21.629  0.00  0.00     0.002 A 
ATOM     10  C   UNL d   1      32.861  19.844 -22.217  0.00  0.00     0.019 A 
ATOM     11  O   UNL d   1      32.639  23.668 -22.259  0.00  0.00    -0.287 OA
ATOM     12  C   UNL d   1      33.038  22.555 -23.489  0.00  0.00     0.003 A 
ATOM     13  C   UNL d   1      33.241  21.190 -23.932  0.00  0.00     0.002 A 
ATOM     14  C   UNL d   1      33.232  21.980 -24.078  0.00  0.00     0.000 A 
ENDROOT
BRANCH   8  15
ATOM     15  N   UNL d   1      33.241  19.544 -23.560  0.00  0.00    -0.246 NA
BRANCH  15  16
ATOM     16  C   UNL d   1      32.895  18.785 -23.558  0.00  0.00     0.081 A 
ATOM     17  C   UNL d   1      32.181  18.652 -23.978  0.00  0.00     0.019 A 
ATOM     18  C   UNL d   1      31.838  17.896 -23.974  0.00  0.00     0.002 A 
ATOM     19  C   UNL d   1      32.182  17.301 -23.576  0.00  0.00     0.000 A 
ATOM     20  C   UNL d   1      32.877  17.407 -23.160  0.00  0.00     0.002 A 
ATOM     21  C   UNL d   1      33.233  18.151 -23.152  0.00  0.00     0.019 A 
ENDBRANCH  15  16
ENDBRANCH   8  15
BRANCH   1  22
ATOM     22  C   UNL d   1      32.278  21.449 -20.420  0.00  0.00     0.419 C 
ATOM     23  F   UNL d   1      32.099  21.183 -19.660  0.00  0.00    -0.166 F 
ATOM     24  F   UNL d   1      31.466  21.446 -20.629  0.00  0.00    -0.166 F 
ATOM     25  F   UNL d   1      33.102  21.463 -20.239  0.00  0.00    -0.166 F 
ENDBRANCH   1  22
TORSDOF 3
ENDMDL
MODEL 3
REMARK VINA RESULT:       0.2      2.335      3.505
REMARK  3 active torsions:
REMARK  status: ('A' for Active; 'I' for Inactive)
REMARK    1  A    between atoms: C_5  and  C_1 
REMARK    2  A    between atoms: N_11  and  C_9 
REMARK    3  A    between atoms: C_17  and  N_11 
ROOT
ATOM      1  C   UNL d   1      31.982  16.567 -23.415  0.00  0.00     0.075 A 
ATOM      2  C   UNL d   1      32.293  17.325 -23.428  0.00  0.00     0.004 A 
ATOM      3  C   UNL d   1      32.011  17.874 -23.989  0.00  0.00     0.004 A 
ATOM      4  C   UNL d   1      31.384  16.344 -23.962  0.00  0.00     0.046 A 
ATOM      5  C   UNL d   1      31.109  16.873 -24.507  0.00  0.00     0.196 A 
ATOM      6  C   UNL d   1      31.421  17.635 -24.520  0.00  0.00     0.039 A 
ATOM      7  C   UNL d   1      32.324  18.637 -24.002  0.00  0.00     0.018 A 
ATOM      8  C   UNL d   1      32.921  18.856 -23.455  0.00  0.00     0.081 A 
ATOM      9  C   UNL d   1      32.870  17.541 -22.900  0.00  0.00     0.002 A 
ATOM     10  C   UNL d   1      33.183  18.304 -22.914  0.00  0.00     0.019 A 
ATOM     11  O   UNL d   1      30.494  16.611 -25.053  0.00  0.00    -0.287 OA
ATOM     12  C   UNL d   1      31.129  18.194 -25.097  0.00  0.00     0.003 A 
ATOM     13  C   UNL d   1      32.034  19.200 -24.579  0.00  0.00     0.002 A 
ATOM     14  C   UNL d   1      31.462  18.972 -25.095  0.00  0.00     0.000 A 
ENDROOT
BRANCH   8  15
ATOM     15  N   UNL d   1      33.233  19.618 -23.468  0.00  0.00    -0.246 NA
BRANCH  15  16
ATOM     16  C   UNL d   1      33.204  20.097 -22.785  0.00  0.00     0.081 A 
ATOM     17  C   UNL d   1      33.149  19.738 -22.029  0.00  0.00     0.019 A 
ATOM     18  C   UNL d   1      33.120  20.216 -21.350  0.00  0.00     0.002 A 
ATOM     19  C   UNL d   1      33.143  21.007 -21.415  0.00  0.00     0.000 A 
ATOM     20  C   UNL d   1      33.196  21.378 -22.141  0.00  0.00     0.002 A 
ATOM     21  C   UNL d   1      33.226  20.921 -22.826  0.00  0.00     0.019 A 
ENDBRANCH  15  16
ENDBRANCH   8  15
BRANCH   1  22
ATOM     22  C   UNL d   1      32.271  16.000 -22.837  0.00  0.00     0.419 C 
ATOM     23  F   UNL d   1      32.554  15.453 -22.289  0.00  0.00    -0.166 F 
ATOM     24  F   UNL d   1      31.672  16.247 -22.304  0.00  0.00    -0.166 F 
ATOM     25  F   UNL d   1      32.861  15.773 -23.396  0.00  0.00    -0.166 F 
ENDBRANCH   1  22
TORSDOF 3
ENDMDL
