MODEL 1
REMARK VINA RESULT:      -3.3      0.000      0.000
REMARK  2 active torsions:
REMARK  status: ('A' for Active; 'I' for Inactive)
REMARK    1  A    between atoms: C_10  and  C_1 
REMARK    2  A    between atoms: N_6  and  C_10 
ROOT
ATOM      1  C   UNL d   1      31.624  17.009 -23.962  0.00  0.00     0.025 A 
ATOM      2  C   UNL d   1      30.892  16.627 -24.002  0.00  0.00     0.025 A 
ATOM      3  C   UNL d   1      30.239  17.006 -24.304  0.00  0.00     0.013 A 
ATOM      4  C   UNL d   1      30.834  15.855 -23.729  0.00  0.00     0.103 A 
ATOM      5  O   UNL d   1      31.489  15.457 -23.419  0.00  0.00    -0.273 OA
ATOM      6  C   UNL d   1      29.520  16.624 -24.340  0.00  0.00     0.058 A 
ATOM      7  C   UNL d   1      32.216  15.847 -23.383  0.00  0.00     0.300 A 
ATOM      8  C   UNL d   1      32.287  16.619 -23.653  0.00  0.00     0.070 A 
ATOM      9  C   UNL d   1      29.454  15.848 -24.069  0.00  0.00     0.013 A 
ATOM     10  C   UNL d   1      30.114  15.465 -23.763  0.00  0.00     0.026 A 
ATOM     11  O   UNL d   1      32.873  15.460 -23.077  0.00  0.00    -0.259 OA
ATOM     12 CL   UNL d   1      28.856  17.010 -24.649  0.00  0.00    -0.082 Cl
ATOM     13  C   UNL d   1      30.307  17.782 -24.576  0.00  0.00     0.001 C 
ATOM     14  C   UNL d   1      28.722  15.458 -24.105  0.00  0.00     0.001 C 
ENDROOT
BRANCH   1  15
ATOM     15  C   UNL d   1      31.690  17.786 -24.234  0.00  0.00     0.080 C 
BRANCH  15  16
ATOM     16  N   UNL d   1      32.193  18.318 -23.844  0.00  0.00    -0.304 N 
ATOM     17  C   UNL d   1      32.747  18.752 -24.276  0.00  0.00     0.064 A 
ATOM     18  C   UNL d   1      32.807  18.662 -25.094  0.00  0.00     0.019 C 
ATOM     19  C   UNL d   1      33.241  19.277 -23.884  0.00  0.00     0.018 A 
ATOM     20  C   UNL d   1      33.188  19.372 -23.070  0.00  0.00     0.003 A 
ATOM     21  C   UNL d   1      32.634  18.938 -22.639  0.00  0.00     0.019 A 
ATOM     22  C   UNL d   1      32.133  18.409 -23.021  0.00  0.00     0.080 A 
ENDBRANCH  15  16
ENDBRANCH   1  15
TORSDOF 2
ENDMDL
MODEL 2
REMARK VINA RESULT:      -1.1      1.323      3.515
REMARK  2 active torsions:
REMARK  status: ('A' for Active; 'I' for Inactive)
REMARK    1  A    between atoms: C_10  and  C_1 
REMARK    2  A    between atoms: N_6  and  C_10 
ROOT
ATOM      1  C   UNL d   1      30.774  16.841 -24.008  0.00  0.00     0.025 A 
ATOM      2  C   UNL d   1      31.388  17.392 -24.046  0.00  0.00     0.025 A 
ATOM      3  C   UNL d   1      31.346  18.030 -24.550  0.00  0.00     0.013 A 
ATOM      4  C   UNL d   1      32.046  17.287 -23.566  0.00  0.00     0.103 A 
ATOM      5  O   UNL d   1      32.103  16.643 -23.050  0.00  0.00    -0.273 OA
ATOM      6  C   UNL d   1      31.955  18.570 -24.583  0.00  0.00     0.058 A 
ATOM      7  C   UNL d   1      31.485  16.097 -23.017  0.00  0.00     0.300 A 
ATOM      8  C   UNL d   1      30.822  16.192 -23.492  0.00  0.00     0.070 A 
ATOM      9  C   UNL d   1      32.619  18.471 -24.104  0.00  0.00     0.013 A 
ATOM     10  C   UNL d   1      32.662  17.826 -23.595  0.00  0.00     0.026 A 
ATOM     11  O   UNL d   1      31.532  15.455 -22.508  0.00  0.00    -0.259 OA
ATOM     12 CL   UNL d   1      31.911  19.218 -25.096  0.00  0.00    -0.082 Cl
ATOM     13  C   UNL d   1      30.681  18.128 -25.029  0.00  0.00     0.001 C 
ATOM     14  C   UNL d   1      33.240  19.021 -24.138  0.00  0.00     0.001 C 
ENDROOT
BRANCH   1  15
ATOM     15  C   UNL d   1      30.110  16.940 -24.487  0.00  0.00     0.080 C 
BRANCH  15  16
ATOM     16  N   UNL d   1      29.378  16.630 -24.248  0.00  0.00    -0.304 N 
ATOM     17  C   UNL d   1      29.116  15.910 -24.554  0.00  0.00     0.064 A 
ATOM     18  C   UNL d   1      29.576  15.493 -25.097  0.00  0.00     0.019 C 
ATOM     19  C   UNL d   1      28.392  15.611 -24.313  0.00  0.00     0.018 A 
ATOM     20  C   UNL d   1      27.928  16.020 -23.774  0.00  0.00     0.003 A 
ATOM     21  C   UNL d   1      28.190  16.741 -23.468  0.00  0.00     0.019 A 
ATOM     22  C   UNL d   1      28.915  17.051 -23.702  0.00  0.00     0.080 A 
ENDBRANCH  15  16
ENDBRANCH   1  15
TORSDOF 2
ENDMDL
MODEL 3
REMARK VINA RESULT:      -0.9      2.786      4.923
REMARK  2 active torsions:
REMARK  status: ('A' for Active; 'I' for Inactive)
REMARK    1  A    between atoms: C_10  and  C_1 
REMARK    2  A    between atoms: N_6  and  C_10 
ROOT
ATOM      1  C   UNL d   1      33.015  19.874 -23.146  0.00  0.00     0.025 A 
ATOM      2  C   UNL d   1      33.068  20.516 -22.629  0.00  0.00     0.025 A 
ATOM      3  C   UNL d   1      33.013  20.410 -21.824  0.00  0.00     0.013 A 
ATOM      4  C   UNL d   1      33.179  21.268 -22.940  0.00  0.00     0.103 A 
ATOM      5  O   UNL d   1      33.237  21.391 -23.756  0.00  0.00    -0.273 OA
ATOM      6  C   UNL d   1      33.066  21.047 -21.319  0.00  0.00     0.058 A 
ATOM      7  C   UNL d   1      33.183  20.744 -24.266  0.00  0.00     0.300 A 
ATOM      8  C   UNL d   1      33.073  19.988 -23.966  0.00  0.00     0.070 A 
ATOM      9  C   UNL d   1      33.177  21.805 -21.624  0.00  0.00     0.013 A 
ATOM     10  C   UNL d   1      33.233  21.913 -22.438  0.00  0.00     0.026 A 
ATOM     11  O   UNL d   1      33.240  20.856 -25.077  0.00  0.00    -0.259 OA
ATOM     12 CL   UNL d   1      33.009  20.937 -20.500  0.00  0.00    -0.082 Cl
ATOM     13  C   UNL d   1      32.902  19.651 -21.520  0.00  0.00     0.001 C 
ATOM     14  C   UNL d   1      33.231  22.454 -21.110  0.00  0.00     0.001 C 
ENDROOT
BRANCH   1  15
ATOM     15  C   UNL d   1      32.904  19.116 -22.841  0.00  0.00     0.080 C 
BRANCH  15  16
ATOM     16  N   UNL d   1      32.460  18.559 -23.267  0.00  0.00    -0.304 N 
ATOM     17  C   UNL d   1      32.630  17.755 -23.196  0.00  0.00     0.064 A 
ATOM     18  C   UNL d   1      33.240  17.497 -22.704  0.00  0.00     0.019 C 
ATOM     19  C   UNL d   1      32.186  17.211 -23.620  0.00  0.00     0.018 A 
ATOM     20  C   UNL d   1      31.578  17.460 -24.112  0.00  0.00     0.003 A 
ATOM     21  C   UNL d   1      31.408  18.265 -24.182  0.00  0.00     0.019 A 
ATOM     22  C   UNL d   1      31.846  18.820 -23.762  0.00  0.00     0.080 A 
ENDBRANCH  15  16
ENDBRANCH   1  15
TORSDOF 2
ENDMDL
MODEL 4
REMARK VINA RESULT:      -0.5      3.212      4.770
REMARK  2 active torsions:
REMARK  status: ('A' for Active; 'I' for Inactive)
REMARK    1  A    between atoms: C_10  and  C_1 
REMARK    2  A    between atoms: N_6  and  C_10 
ROOT
ATOM      1  C   UNL d   1      33.228  20.970 -21.995  0.00  0.00     0.025 A 
ATOM      2  C   UNL d   1      33.203  20.219 -22.338  0.00  0.00     0.025 A 
ATOM      3  C   UNL d   1      33.191  20.131 -23.147  0.00  0.00     0.013 A 
ATOM      4  C   UNL d   1      33.191  19.560 -21.849  0.00  0.00     0.103 A 
ATOM      5  O   UNL d   1      33.204  19.634 -21.026  0.00  0.00    -0.273 OA
ATOM      6  C   UNL d   1      33.166  19.388 -23.480  0.00  0.00     0.058 A 
ATOM      7  C   UNL d   1      33.228  20.389 -20.691  0.00  0.00     0.300 A 
ATOM      8  C   UNL d   1      33.240  21.056 -21.169  0.00  0.00     0.070 A 
ATOM      9  C   UNL d   1      33.154  18.720 -22.995  0.00  0.00     0.013 A 
ATOM     10  C   UNL d   1      33.167  18.810 -22.178  0.00  0.00     0.026 A 
ATOM     11  O   UNL d   1      33.241  20.473 -19.874  0.00  0.00    -0.259 OA
ATOM     12 CL   UNL d   1      33.154  19.299 -24.303  0.00  0.00    -0.082 Cl
ATOM     13  C   UNL d   1      33.203  20.799 -23.631  0.00  0.00     0.001 C 
ATOM     14  C   UNL d   1      33.130  17.963 -23.335  0.00  0.00     0.001 C 
ENDROOT
BRANCH   1  15
ATOM     15  C   UNL d   1      33.240  21.638 -22.479  0.00  0.00     0.080 C 
BRANCH  15  16
ATOM     16  N   UNL d   1      32.841  22.327 -22.244  0.00  0.00    -0.304 N 
ATOM     17  C   UNL d   1      32.841  22.989 -22.736  0.00  0.00     0.064 A 
ATOM     18  C   UNL d   1      33.234  22.975 -23.461  0.00  0.00     0.019 C 
ATOM     19  C   UNL d   1      32.444  23.667 -22.497  0.00  0.00     0.018 A 
ATOM     20  C   UNL d   1      32.050  23.689 -21.777  0.00  0.00     0.003 A 
ATOM     21  C   UNL d   1      32.051  23.025 -21.286  0.00  0.00     0.019 A 
ATOM     22  C   UNL d   1      32.445  22.341 -21.514  0.00  0.00     0.080 A 
ENDBRANCH  15  16
ENDBRANCH   1  15
TORSDOF 2
ENDMDL
