MODEL 1
REMARK VINA RESULT:      -8.5      0.000      0.000
REMARK  4 active torsions:
REMARK  status: ('A' for Active; 'I' for Inactive)
REMARK    1  A    between atoms: C_11  and  N_2 
REMARK    2  A    between atoms: C_9  and  C_3 
REMARK    3  A    between atoms: C_12  and  C_11 
REMARK    4  A    between atoms: O_19  and  C_16 
ROOT
ATOM      1  N   UNL d   1      52.158  34.755  53.417  0.00  0.00    -0.206 NA
ATOM      2  N   UNL d   1      52.049  33.429  53.329  0.00  0.00    -0.273 N 
ATOM      3  C   UNL d   1      51.711  34.145  53.091  0.00  0.00     0.151 A 
ATOM      4  C   UNL d   1      52.700  33.598  53.799  0.00  0.00     0.185 A 
ATOM      5  C   UNL d   1      52.771  34.421  53.857  0.00  0.00     0.199 A 
ATOM      6  N   UNL d   1      53.255  33.109  54.195  0.00  0.00    -0.224 NA
ATOM      7  N   UNL d   1      53.377  34.749  54.295  0.00  0.00    -0.223 NA
ATOM      8  C   UNL d   1      53.862  33.453  54.635  0.00  0.00     0.101 A 
ATOM      9  C   UNL d   1      53.922  34.274  54.684  0.00  0.00     0.101 A 
ATOM     10  C   UNL d   1      54.407  32.969  55.024  0.00  0.00     0.021 A 
ATOM     11  C   UNL d   1      54.529  34.609  55.124  0.00  0.00     0.021 A 
ATOM     12  C   UNL d   1      55.074  34.138  55.513  0.00  0.00     0.002 A 
ATOM     13  C   UNL d   1      55.015  33.313  55.464  0.00  0.00     0.002 A 
ENDROOT
BRANCH   3  14
ATOM     14  C   UNL d   1      51.050  34.225  52.615  0.00  0.00     0.035 A 
ATOM     15  C   UNL d   1      51.122  34.231  51.810  0.00  0.00     0.005 A 
ATOM     16  C   UNL d   1      50.467  34.310  51.361  0.00  0.00     0.024 A 
ATOM     17  C   UNL d   1      49.721  34.386  51.712  0.00  0.00     0.094 A 
ATOM     18  C   UNL d   1      49.647  34.381  52.505  0.00  0.00     0.024 A 
ATOM     19  C   UNL d   1      50.303  34.301  52.967  0.00  0.00     0.005 A 
BRANCH  17  20
ATOM     20  O   UNL d   1      49.088  34.464  51.238  0.00  0.00    -0.328 OA
ATOM     21  C   UNL d   1      48.308  35.070  51.481  0.00  0.00     0.181 C 
ENDBRANCH  17  20
ENDBRANCH   3  14
BRANCH   2  22
ATOM     22  C   UNL d   1      51.777  32.673  53.128  0.00  0.00     0.083 C 
BRANCH  22  23
ATOM     23  C   UNL d   1      52.311  32.088  52.905  0.00  0.00     0.019 C 
ATOM     24  C   UNL d   1      52.073  31.299  52.869  0.00  0.00     0.002 C 
ENDBRANCH  22  23
ENDBRANCH   2  22
TORSDOF 4
ENDMDL
MODEL 2
REMARK VINA RESULT:      -7.4      1.420      2.430
REMARK  4 active torsions:
REMARK  status: ('A' for Active; 'I' for Inactive)
REMARK    1  A    between atoms: C_11  and  N_2 
REMARK    2  A    between atoms: C_9  and  C_3 
REMARK    3  A    between atoms: C_12  and  C_11 
REMARK    4  A    between atoms: O_19  and  C_16 
ROOT
ATOM      1  N   UNL d   1      50.904  32.781  52.902  0.00  0.00    -0.206 NA
ATOM      2  N   UNL d   1      51.764  33.779  53.104  0.00  0.00    -0.273 N 
ATOM      3  C   UNL d   1      50.973  33.601  52.946  0.00  0.00     0.151 A 
ATOM      4  C   UNL d   1      52.180  33.074  53.157  0.00  0.00     0.185 A 
ATOM      5  C   UNL d   1      51.649  32.450  53.032  0.00  0.00     0.199 A 
ATOM      6  N   UNL d   1      52.987  32.901  53.305  0.00  0.00    -0.224 NA
ATOM      7  N   UNL d   1      51.912  31.678  53.053  0.00  0.00    -0.223 NA
ATOM      8  C   UNL d   1      53.241  32.116  53.324  0.00  0.00     0.101 A 
ATOM      9  C   UNL d   1      52.701  31.505  53.198  0.00  0.00     0.101 A 
ATOM     10  C   UNL d   1      54.037  31.949  53.470  0.00  0.00     0.021 A 
ATOM     11  C   UNL d   1      52.962  30.726  53.218  0.00  0.00     0.021 A 
ATOM     12  C   UNL d   1      53.748  30.551  53.362  0.00  0.00     0.002 A 
ATOM     13  C   UNL d   1      54.291  31.164  53.489  0.00  0.00     0.002 A 
ENDROOT
BRANCH   3  14
ATOM     14  C   UNL d   1      50.371  34.147  52.851  0.00  0.00     0.035 A 
ATOM     15  C   UNL d   1      50.123  34.360  52.112  0.00  0.00     0.005 A 
ATOM     16  C   UNL d   1      49.534  34.893  52.037  0.00  0.00     0.024 A 
ATOM     17  C   UNL d   1      49.179  35.227  52.707  0.00  0.00     0.094 A 
ATOM     18  C   UNL d   1      49.421  35.019  53.436  0.00  0.00     0.024 A 
ATOM     19  C   UNL d   1      50.015  34.480  53.522  0.00  0.00     0.005 A 
BRANCH  17  20
ATOM     20  O   UNL d   1      48.595  35.756  52.600  0.00  0.00    -0.328 OA
ATOM     21  C   UNL d   1      48.084  36.155  53.384  0.00  0.00     0.181 C 
ENDBRANCH  17  20
ENDBRANCH   3  14
BRANCH   2  22
ATOM     22  C   UNL d   1      52.083  34.538  53.194  0.00  0.00     0.083 C 
BRANCH  22  23
ATOM     23  C   UNL d   1      52.626  34.690  53.792  0.00  0.00     0.019 C 
ATOM     24  C   UNL d   1      52.966  35.439  53.866  0.00  0.00     0.002 C 
ENDBRANCH  22  23
ENDBRANCH   2  22
TORSDOF 4
ENDMDL
MODEL 3
REMARK VINA RESULT:      -6.4      1.901      3.750
REMARK  4 active torsions:
REMARK  status: ('A' for Active; 'I' for Inactive)
REMARK    1  A    between atoms: C_11  and  N_2 
REMARK    2  A    between atoms: C_9  and  C_3 
REMARK    3  A    between atoms: C_12  and  C_11 
REMARK    4  A    between atoms: O_19  and  C_16 
ROOT
ATOM      1  N   UNL d   1      53.726  32.498  54.190  0.00  0.00    -0.206 NA
ATOM      2  N   UNL d   1      52.629  32.672  53.454  0.00  0.00    -0.273 N 
ATOM      3  C   UNL d   1      53.201  33.064  53.902  0.00  0.00     0.151 A 
ATOM      4  C   UNL d   1      52.800  31.869  53.466  0.00  0.00     0.185 A 
ATOM      5  C   UNL d   1      53.481  31.756  53.923  0.00  0.00     0.199 A 
ATOM      6  N   UNL d   1      52.425  31.204  53.118  0.00  0.00    -0.224 NA
ATOM      7  N   UNL d   1      53.782  31.005  54.031  0.00  0.00    -0.223 NA
ATOM      8  C   UNL d   1      52.738  30.450  53.234  0.00  0.00     0.101 A 
ATOM      9  C   UNL d   1      53.418  30.352  53.692  0.00  0.00     0.101 A 
ATOM     10  C   UNL d   1      52.367  29.797  52.891  0.00  0.00     0.021 A 
ATOM     11  C   UNL d   1      53.724  29.598  53.804  0.00  0.00     0.021 A 
ATOM     12  C   UNL d   1      53.363  28.946  53.467  0.00  0.00     0.002 A 
ATOM     13  C   UNL d   1      52.681  29.042  53.007  0.00  0.00     0.002 A 
ENDROOT
BRANCH   3  14
ATOM     14  C   UNL d   1      53.234  33.871  54.033  0.00  0.00     0.035 A 
ATOM     15  C   UNL d   1      53.283  34.385  53.411  0.00  0.00     0.005 A 
ATOM     16  C   UNL d   1      53.315  35.169  53.555  0.00  0.00     0.024 A 
ATOM     17  C   UNL d   1      53.298  35.456  54.333  0.00  0.00     0.094 A 
ATOM     18  C   UNL d   1      53.250  34.952  54.946  0.00  0.00     0.024 A 
ATOM     19  C   UNL d   1      53.218  34.158  54.810  0.00  0.00     0.005 A 
BRANCH  17  20
ATOM     20  O   UNL d   1      53.332  36.242  54.444  0.00  0.00    -0.328 OA
ATOM     21  C   UNL d   1      52.754  36.709  55.139  0.00  0.00     0.181 C 
ENDBRANCH  17  20
ENDBRANCH   3  14
BRANCH   2  22
ATOM     22  C   UNL d   1      51.992  33.026  53.060  0.00  0.00     0.083 C 
BRANCH  22  23
ATOM     23  C   UNL d   1      51.220  32.861  53.290  0.00  0.00     0.019 C 
ATOM     24  C   UNL d   1      50.584  33.186  52.877  0.00  0.00     0.002 C 
ENDBRANCH  22  23
ENDBRANCH   2  22
TORSDOF 4
ENDMDL
MODEL 4
REMARK VINA RESULT:      -5.8      2.380      4.716
REMARK  4 active torsions:
REMARK  status: ('A' for Active; 'I' for Inactive)
REMARK    1  A    between atoms: C_11  and  N_2 
REMARK    2  A    between atoms: C_9  and  C_3 
REMARK    3  A    between atoms: C_12  and  C_11 
REMARK    4  A    between atoms: O_19  and  C_16 
ROOT
ATOM      1  N   UNL d   1      51.707  31.394  53.390  0.00  0.00    -0.206 NA
ATOM      2  N   UNL d   1      52.922  31.941  53.391  0.00  0.00    -0.273 N 
ATOM      3  C   UNL d   1      52.507  31.236  53.502  0.00  0.00     0.151 A 
ATOM      4  C   UNL d   1      52.381  32.531  53.212  0.00  0.00     0.185 A 
ATOM      5  C   UNL d   1      51.624  32.195  53.210  0.00  0.00     0.199 A 
ATOM      6  N   UNL d   1      52.467  33.349  53.045  0.00  0.00    -0.224 NA
ATOM      7  N   UNL d   1      50.972  32.658  53.046  0.00  0.00    -0.223 NA
ATOM      8  C   UNL d   1      51.800  33.806  52.881  0.00  0.00     0.101 A 
ATOM      9  C   UNL d   1      51.051  33.459  52.882  0.00  0.00     0.101 A 
ATOM     10  C   UNL d   1      51.888  34.611  52.717  0.00  0.00     0.021 A 
ATOM     11  C   UNL d   1      50.392  33.920  52.719  0.00  0.00     0.021 A 
ATOM     12  C   UNL d   1      50.470  34.718  52.555  0.00  0.00     0.002 A 
ATOM     13  C   UNL d   1      51.221  35.068  52.553  0.00  0.00     0.002 A 
ENDROOT
BRANCH   3  14
ATOM     14  C   UNL d   1      52.839  30.512  53.690  0.00  0.00     0.035 A 
ATOM     15  C   UNL d   1      53.120  30.026  53.109  0.00  0.00     0.005 A 
ATOM     16  C   UNL d   1      53.440  29.323  53.308  0.00  0.00     0.024 A 
ATOM     17  C   UNL d   1      53.487  29.091  54.103  0.00  0.00     0.094 A 
ATOM     18  C   UNL d   1      53.211  29.568  54.678  0.00  0.00     0.024 A 
ATOM     19  C   UNL d   1      52.886  30.280  54.485  0.00  0.00     0.005 A 
BRANCH  17  20
ATOM     20  O   UNL d   1      53.811  28.386  54.271  0.00  0.00    -0.328 OA
ATOM     21  C   UNL d   1      53.714  27.955  55.188  0.00  0.00     0.181 C 
ENDBRANCH  17  20
ENDBRANCH   3  14
BRANCH   2  22
ATOM     22  C   UNL d   1      53.743  32.038  53.451  0.00  0.00     0.083 C 
BRANCH  22  23
ATOM     23  C   UNL d   1      54.055  32.670  53.874  0.00  0.00     0.019 C 
ATOM     24  C   UNL d   1      54.863  32.833  53.844  0.00  0.00     0.002 C 
ENDBRANCH  22  23
ENDBRANCH   2  22
TORSDOF 4
ENDMDL
