MODEL 1
REMARK VINA RESULT:      50.5      0.000      0.000
REMARK  6 active torsions:
REMARK  status: ('A' for Active; 'I' for Inactive)
REMARK    1  A    between atoms: C_12  and  N_1 
REMARK    2  A    between atoms: C_9  and  C_23 
REMARK       I    between atoms: N_10  and  C_9 
REMARK    3  A    between atoms: C_13  and  N_10 
REMARK    4  A    between atoms: C_22  and  C_12 
REMARK    5  A    between atoms: O_21  and  C_15 
REMARK    6  A    between atoms: C_23  and  C_22 
ROOT
ATOM      1  C   UNL d   1     -49.438  26.765  33.506  0.00  0.00     0.085 C 
ENDROOT
BRANCH   1   2
ATOM      2  N   UNL d   1     -50.095  26.259  33.467  0.00  0.00    -0.249 N 
ATOM      3  C   UNL d   1     -50.850  26.590  33.467  0.00  0.00     0.208 A 
ATOM      4  N   UNL d   1     -51.516  26.094  33.429  0.00  0.00    -0.218 NA
ATOM      5  S   UNL d   1     -50.927  27.418  33.506  0.00  0.00    -0.038 SA
ATOM      6  C   UNL d   1     -51.431  25.279  33.391  0.00  0.00     0.088 A 
ATOM      7  C   UNL d   1     -50.671  24.946  33.391  0.00  0.00     0.074 A 
ATOM      8  C   UNL d   1     -52.088  24.789  33.353  0.00  0.00     0.019 A 
ATOM      9  C   UNL d   1     -50.008  25.433  33.428  0.00  0.00     0.268 A 
ATOM     10  C   UNL d   1     -50.580  24.128  33.352  0.00  0.00     0.006 A 
ATOM     11  O   UNL d   1     -49.253  25.102  33.428  0.00  0.00    -0.267 OA
ATOM     12  C   UNL d   1     -51.244  23.639  33.314  0.00  0.00     0.000 A 
ATOM     13  C   UNL d   1     -51.999  23.970  33.315  0.00  0.00     0.002 A 
ENDBRANCH   1   2
BRANCH   1  14
ATOM     14  C   UNL d   1     -49.480  27.456  33.964  0.00  0.00     0.024 C 
BRANCH  14  15
ATOM     15  C   UNL d   1     -48.815  27.708  34.394  0.00  0.00     0.064 C 
BRANCH  15  16
ATOM     16  C   UNL d   1     -48.653  28.522  34.468  0.00  0.00     0.279 C 
ATOM     17  N   UNL d   1     -48.044  28.778  34.948  0.00  0.00    -0.208 NA
ATOM     18  O   UNL d   1     -49.118  29.079  34.048  0.00  0.00    -0.265 OA
BRANCH  17  19
ATOM     19  C   UNL d   1     -47.881  29.598  35.023  0.00  0.00     0.085 A 
ATOM     20  C   UNL d   1     -48.419  30.165  34.754  0.00  0.00     0.021 A 
ATOM     21  C   UNL d   1     -48.247  30.968  34.833  0.00  0.00     0.026 A 
ATOM     22  C   UNL d   1     -47.534  31.205  35.182  0.00  0.00     0.094 A 
ATOM     23  C   UNL d   1     -46.995  30.640  35.451  0.00  0.00     0.026 A 
ATOM     24  C   UNL d   1     -47.175  29.828  35.368  0.00  0.00     0.021 A 
BRANCH  22  25
ATOM     25  O   UNL d   1     -47.354  32.006  35.265  0.00  0.00    -0.328 OA
ATOM     26  C   UNL d   1     -46.946  32.394  34.665  0.00  0.00     0.181 C 
ENDBRANCH  22  25
ENDBRANCH  17  19
ENDBRANCH  15  16
ENDBRANCH  14  15
ENDBRANCH   1  14
TORSDOF 6
ENDMDL
