MODEL 1
REMARK VINA RESULT:      24.1      0.000      0.000
REMARK  2 active torsions:
REMARK  status: ('A' for Active; 'I' for Inactive)
REMARK    1  A    between atoms: C_11  and  C_2 
REMARK    2  A    between atoms: C_9  and  C_6 
ROOT
ATOM      1  C   UNL d   1      14.660  13.099  -1.248  0.00  0.00     0.045 A 
ATOM      2  C   UNL d   1      14.396  12.490  -1.724  0.00  0.00     0.127 A 
ATOM      3  C   UNL d   1      14.603  13.918  -1.322  0.00  0.00     0.010 A 
ATOM      4  O   UNL d   1      14.607  11.779  -1.379  0.00  0.00    -0.211 OA
ATOM      5  N   UNL d   1      15.010  11.944  -0.676  0.00  0.00    -0.126 NA
ATOM      6  C   UNL d   1      14.929  14.407  -0.742  0.00  0.00     0.065 A 
ATOM      7  C   UNL d   1      15.043  12.767  -0.594  0.00  0.00     0.110 A 
ATOM      8  C   UNL d   1      15.312  14.075  -0.088  0.00  0.00     0.008 A 
ATOM      9  C   UNL d   1      15.368  13.256  -0.015  0.00  0.00     0.022 A 
ENDROOT
BRANCH   2  10
ATOM     10  C   UNL d   1      13.982  12.569  -2.440  0.00  0.00     0.025 A 
ATOM     11  C   UNL d   1      13.558  11.924  -2.735  0.00  0.00     0.002 A 
ATOM     12  C   UNL d   1      13.143  11.994  -3.447  0.00  0.00     0.000 A 
ATOM     13  C   UNL d   1      13.154  12.712  -3.862  0.00  0.00     0.000 A 
ATOM     14  C   UNL d   1      13.581  13.355  -3.562  0.00  0.00     0.000 A 
ATOM     15  C   UNL d   1      13.993  13.283  -2.852  0.00  0.00     0.002 A 
ENDBRANCH   2  10
BRANCH   6  16
ATOM     16  C   UNL d   1      14.872  15.226  -0.816  0.00  0.00     0.211 C 
ATOM     17  O   UNL d   1      14.691  15.568  -1.547  0.00  0.00    -0.644 OA
ATOM     18  O   UNL d   1      14.998  15.704  -0.150  0.00  0.00    -0.644 OA
ENDBRANCH   6  16
TORSDOF 2
ENDMDL
MODEL 2
REMARK VINA RESULT:      25.7      1.207      3.169
REMARK  2 active torsions:
REMARK  status: ('A' for Active; 'I' for Inactive)
REMARK    1  A    between atoms: C_11  and  C_2 
REMARK    2  A    between atoms: C_9  and  C_6 
ROOT
ATOM      1  C   UNL d   1      14.283  12.901  -1.268  0.00  0.00     0.045 A 
ATOM      2  C   UNL d   1      14.601  13.114  -0.547  0.00  0.00     0.127 A 
ATOM      3  C   UNL d   1      14.241  13.299  -1.989  0.00  0.00     0.010 A 
ATOM      4  O   UNL d   1      14.485  12.499  -0.019  0.00  0.00    -0.211 OA
ATOM      5  N   UNL d   1      14.089  11.892  -0.416  0.00  0.00    -0.126 NA
ATOM      6  C   UNL d   1      13.880  12.938  -2.638  0.00  0.00     0.065 A 
ATOM      7  C   UNL d   1      13.963  12.142  -1.195  0.00  0.00     0.110 A 
ATOM      8  C   UNL d   1      13.559  12.180  -2.564  0.00  0.00     0.008 A 
ATOM      9  C   UNL d   1      13.601  11.782  -1.843  0.00  0.00     0.022 A 
ENDROOT
BRANCH   2  10
ATOM     10  C   UNL d   1      14.979  13.831  -0.368  0.00  0.00     0.025 A 
ATOM     11  C   UNL d   1      15.805  13.855  -0.333  0.00  0.00     0.002 A 
ATOM     12  C   UNL d   1      16.190  14.566  -0.156  0.00  0.00     0.000 A 
ATOM     13  C   UNL d   1      15.746  15.251  -0.014  0.00  0.00     0.000 A 
ATOM     14  C   UNL d   1      14.919  15.222  -0.051  0.00  0.00     0.000 A 
ATOM     15  C   UNL d   1      14.537  14.513  -0.227  0.00  0.00     0.002 A 
ENDBRANCH   2  10
BRANCH   6  16
ATOM     16  C   UNL d   1      13.838  13.336  -3.359  0.00  0.00     0.211 C 
ATOM     17  O   UNL d   1      14.126  14.109  -3.427  0.00  0.00    -0.644 OA
ATOM     18  O   UNL d   1      13.505  12.955  -4.015  0.00  0.00    -0.644 OA
ENDBRANCH   6  16
TORSDOF 2
ENDMDL
