MODEL 1
REMARK VINA RESULT:      60.6      0.000      0.000
REMARK  6 active torsions:
REMARK  status: ('A' for Active; 'I' for Inactive)
REMARK    1  A    between atoms: C_4  and  C_1 
REMARK    2  A    between atoms: C_13  and  N_3 
REMARK    3  A    between atoms: C_11  and  N_5 
REMARK    4  A    between atoms: C_16  and  C_13 
REMARK    5  A    between atoms: O_14  and  C_16 
REMARK    6  A    between atoms: C_15  and  O_14 
ROOT
ATOM      1  C   UNL d   1      59.582  49.618  51.278  0.00  0.00     0.149 A 
ATOM      2  N   UNL d   1      59.546  49.708  52.100  0.00  0.00    -0.227 NA
ATOM      3  N   UNL d   1      60.384  49.505  51.064  0.00  0.00    -0.287 N 
ATOM      4  C   UNL d   1      60.835  49.527  51.763  0.00  0.00     0.083 A 
ATOM      5  C   UNL d   1      60.324  49.651  52.403  0.00  0.00     0.099 A 
ATOM      6  C   UNL d   1      61.653  49.448  51.897  0.00  0.00     0.019 A 
ATOM      7  C   UNL d   1      60.617  49.698  53.169  0.00  0.00     0.021 A 
ATOM      8  C   UNL d   1      61.944  49.496  52.672  0.00  0.00     0.002 A 
ATOM      9  C   UNL d   1      61.427  49.621  53.307  0.00  0.00     0.002 A 
ENDROOT
BRANCH   1  10
ATOM     10  C   UNL d   1      58.945  49.636  50.756  0.00  0.00     0.057 A 
ATOM     11  C   UNL d   1      58.150  49.635  50.958  0.00  0.00     0.081 A 
ATOM     12  N   UNL d   1      57.708  49.657  50.257  0.00  0.00    -0.298 N 
ATOM     13  C   UNL d   1      58.234  49.671  49.623  0.00  0.00     0.261 A 
ATOM     14  C   UNL d   1      59.000  49.658  49.929  0.00  0.00     0.065 A 
ATOM     15  O   UNL d   1      58.031  49.694  48.828  0.00  0.00    -0.267 OA
BRANCH  12  16
ATOM     16  C   UNL d   1      56.884  49.663  50.206  0.00  0.00     0.071 C 
ATOM     17  C   UNL d   1      56.436  49.704  50.898  0.00  0.00     0.023 C 
ATOM     18  C   UNL d   1      56.086  49.662  50.027  0.00  0.00     0.023 C 
ATOM     19  C   UNL d   1      56.518  49.628  49.474  0.00  0.00     0.023 C 
ENDBRANCH  12  16
ENDBRANCH   1  10
BRANCH   3  20
ATOM     20  C   UNL d   1      60.671  49.394  50.304  0.00  0.00     0.108 C 
BRANCH  20  21
ATOM     21  C   UNL d   1      61.149  48.741  50.131  0.00  0.00     0.142 C 
BRANCH  21  22
ATOM     22  O   UNL d   1      60.892  47.982  50.301  0.00  0.00    -0.304 OA
BRANCH  22  23
ATOM     23  C   UNL d   1      61.320  47.336  50.011  0.00  0.00     0.100 A 
ATOM     24  C   UNL d   1      62.037  47.473  49.626  0.00  0.00     0.025 A 
ATOM     25  C   UNL d   1      62.465  46.826  49.336  0.00  0.00     0.002 A 
ATOM     26  C   UNL d   1      62.181  46.060  49.430  0.00  0.00     0.000 A 
ATOM     27  C   UNL d   1      61.458  45.938  49.819  0.00  0.00     0.002 A 
ATOM     28  C   UNL d   1      61.032  46.581  50.107  0.00  0.00     0.025 A 
ENDBRANCH  22  23
ENDBRANCH  21  22
ENDBRANCH  20  21
ENDBRANCH   3  20
TORSDOF 6
ENDMDL
