MODEL 1
REMARK VINA RESULT:      20.3      0.000      0.000
REMARK  4 active torsions:
REMARK  status: ('A' for Active; 'I' for Inactive)
REMARK    1  A    between atoms: C_8  and  C_1 
REMARK    2  A    between atoms: N_4  and  C_2 
REMARK       I    between atoms: C_6  and  N_4 
REMARK    3  A    between atoms: C_9  and  C_6 
REMARK    4  A    between atoms: O_16  and  C_8 
ROOT
ATOM      1  C   UNL d   1      46.176 -18.596  42.488  0.00  0.00     0.110 A 
ATOM      2  C   UNL d   1      46.314 -18.287  43.250  0.00  0.00     0.096 A 
ATOM      3  S   UNL d   1      46.193 -19.380  42.558  0.00  0.00    -0.080 SA
ATOM      4  C   UNL d   1      46.411 -18.885  43.761  0.00  0.00     0.024 A 
ATOM      5  C   UNL d   1      46.339 -19.596  43.344  0.00  0.00     0.031 A 
ATOM      6  C   UNL d   1      46.561 -18.911  44.579  0.00  0.00     0.002 A 
ATOM      7  C   UNL d   1      46.411 -20.311  43.718  0.00  0.00     0.006 A 
ATOM      8  C   UNL d   1      46.634 -19.621  44.955  0.00  0.00     0.000 A 
ATOM      9  C   UNL d   1      46.558 -20.329  44.517  0.00  0.00     0.001 A 
ENDROOT
BRANCH   2  10
ATOM     10  N   UNL d   1      46.344 -17.480  43.444  0.00  0.00    -0.207 NA
ATOM     11  C   UNL d   1      45.740 -17.152  43.917  0.00  0.00     0.285 C 
ATOM     12  O   UNL d   1      45.134 -17.644  44.174  0.00  0.00    -0.265 OA
BRANCH  11  13
ATOM     13  C   UNL d   1      45.745 -16.365  44.122  0.00  0.00     0.087 A 
ATOM     14  S   UNL d   1      45.377 -16.055  44.791  0.00  0.00    -0.082 SA
ATOM     15  C   UNL d   1      45.504 -15.252  44.806  0.00  0.00     0.036 A 
ATOM     16  C   UNL d   1      45.961 -15.062  44.130  0.00  0.00     0.008 A 
ATOM     17  C   UNL d   1      46.106 -15.742  43.717  0.00  0.00     0.012 A 
ENDBRANCH  11  13
ENDBRANCH   2  10
BRANCH   1  18
ATOM     18  C   UNL d   1      46.040 -18.190  41.758  0.00  0.00     0.303 C 
ATOM     19  O   UNL d   1      45.329 -17.787  41.673  0.00  0.00    -0.259 OA
BRANCH  18  20
ATOM     20  O   UNL d   1      46.596 -18.200  41.160  0.00  0.00    -0.295 OA
ATOM     21  C   UNL d   1      46.369 -18.203  40.378  0.00  0.00     0.185 C 
ENDBRANCH  18  20
ENDBRANCH   1  18
TORSDOF 4
ENDMDL
MODEL 2
REMARK VINA RESULT:      20.3      1.051      2.423
REMARK  4 active torsions:
REMARK  status: ('A' for Active; 'I' for Inactive)
REMARK    1  A    between atoms: C_8  and  C_1 
REMARK    2  A    between atoms: N_4  and  C_2 
REMARK       I    between atoms: C_6  and  N_4 
REMARK    3  A    between atoms: C_9  and  C_6 
REMARK    4  A    between atoms: O_16  and  C_8 
ROOT
ATOM      1  C   UNL d   1      46.471 -19.194  43.505  0.00  0.00     0.110 A 
ATOM      2  C   UNL d   1      46.481 -18.416  43.206  0.00  0.00     0.096 A 
ATOM      3  S   UNL d   1      46.518 -19.674  42.883  0.00  0.00    -0.080 SA
ATOM      4  C   UNL d   1      46.535 -18.440  42.415  0.00  0.00     0.024 A 
ATOM      5  C   UNL d   1      46.560 -19.234  42.182  0.00  0.00     0.031 A 
ATOM      6  C   UNL d   1      46.567 -17.847  41.833  0.00  0.00     0.002 A 
ATOM      7  C   UNL d   1      46.615 -19.439  41.401  0.00  0.00     0.006 A 
ATOM      8  C   UNL d   1      46.622 -18.049  41.054  0.00  0.00     0.000 A 
ATOM      9  C   UNL d   1      46.646 -18.856  40.837  0.00  0.00     0.001 A 
ENDROOT
BRANCH   2  10
ATOM     10  N   UNL d   1      46.442 -17.724  43.663  0.00  0.00    -0.207 NA
ATOM     11  C   UNL d   1      45.817 -17.186  43.536  0.00  0.00     0.285 C 
ATOM     12  O   UNL d   1      45.260 -17.365  42.957  0.00  0.00    -0.265 OA
BRANCH  11  13
ATOM     13  C   UNL d   1      45.754 -16.501  43.968  0.00  0.00     0.087 A 
ATOM     14  S   UNL d   1      45.918 -15.748  43.677  0.00  0.00    -0.082 SA
ATOM     15  C   UNL d   1      45.791 -15.208  44.272  0.00  0.00     0.036 A 
ATOM     16  C   UNL d   1      45.541 -15.639  44.946  0.00  0.00     0.008 A 
ATOM     17  C   UNL d   1      45.520 -16.425  44.757  0.00  0.00     0.012 A 
ENDBRANCH  11  13
ENDBRANCH   2  10
BRANCH   1  18
ATOM     18  C   UNL d   1      46.420 -19.463  44.306  0.00  0.00     0.303 C 
ATOM     19  O   UNL d   1      46.646 -18.941  44.898  0.00  0.00    -0.259 OA
BRANCH  18  20
ATOM     20  O   UNL d   1      46.155 -20.216  44.482  0.00  0.00    -0.295 OA
ATOM     21  C   UNL d   1      45.458 -20.329  44.887  0.00  0.00     0.185 C 
ENDBRANCH  18  20
ENDBRANCH   1  18
TORSDOF 4
ENDMDL
