MODEL 1
REMARK VINA RESULT:      14.9      0.000      0.000
REMARK  3 active torsions:
REMARK  status: ('A' for Active; 'I' for Inactive)
REMARK    1  A    between atoms: C_4  and  S_1 
REMARK    2  A    between atoms: N_7  and  S_1 
REMARK    3  A    between atoms: C_14  and  N_7 
ROOT
ATOM      1  S   UNL d   1      46.278 -17.850  44.320  0.00  0.00     0.285 S 
ATOM      2  O   UNL d   1      46.642 -17.266  43.890  0.00  0.00    -0.198 OA
ATOM      3  O   UNL d   1      45.894 -18.455  44.785  0.00  0.00    -0.198 OA
ENDROOT
BRANCH   1   4
ATOM      4  C   UNL d   1      46.363 -18.390  43.686  0.00  0.00     0.105 A 
ATOM      5  C   UNL d   1      46.541 -19.162  43.839  0.00  0.00     0.012 A 
ATOM      6  C   UNL d   1      46.626 -19.704  43.190  0.00  0.00     0.001 A 
ATOM      7  C   UNL d   1      46.646 -19.443  44.636  0.00  0.00     0.001 C 
ATOM      8  C   UNL d   1      46.535 -19.472  42.432  0.00  0.00     0.000 A 
ATOM      9  C   UNL d   1      46.342 -18.637  42.267  0.00  0.00     0.001 A 
ATOM     10  C   UNL d   1      46.633 -20.057  41.859  0.00  0.00     0.000 C 
ATOM     11  C   UNL d   1      46.265 -18.139  42.880  0.00  0.00     0.013 A 
ENDBRANCH   1   4
BRANCH   1  12
ATOM     12  N   UNL d   1      46.183 -17.341  44.955  0.00  0.00    -0.158 NA
BRANCH  12  13
ATOM     13  C   UNL d   1      45.814 -16.572  44.863  0.00  0.00     0.094 A 
ATOM     14  C   UNL d   1      46.259 -15.894  44.749  0.00  0.00     0.029 A 
ATOM     15  C   UNL d   1      45.912 -15.170  44.662  0.00  0.00     0.059 A 
ATOM     16  S   UNL d   1      46.245 -14.408  44.541  0.00  0.00    -0.018 SA
ATOM     17  C   UNL d   1      45.104 -15.092  44.685  0.00  0.00     0.110 A 
ATOM     18  C   UNL d   1      45.581 -13.913  44.499  0.00  0.00     0.332 A 
ATOM     19  O   UNL d   1      45.675 -13.071  44.377  0.00  0.00    -0.251 OA
ATOM     20  O   UNL d   1      44.914 -14.295  44.581  0.00  0.00    -0.268 OA
ATOM     21  C   UNL d   1      44.640 -15.732  44.794  0.00  0.00     0.027 A 
ATOM     22  C   UNL d   1      44.967 -16.497  44.888  0.00  0.00     0.022 A 
ENDBRANCH  12  13
ENDBRANCH   1  12
TORSDOF 3
ENDMDL
MODEL 2
REMARK VINA RESULT:      17.0      1.232      4.550
REMARK  3 active torsions:
REMARK  status: ('A' for Active; 'I' for Inactive)
REMARK    1  A    between atoms: C_4  and  S_1 
REMARK    2  A    between atoms: N_7  and  S_1 
REMARK    3  A    between atoms: C_14  and  N_7 
ROOT
ATOM      1  S   UNL d   1      45.655 -15.491  44.656  0.00  0.00     0.285 S 
ATOM      2  O   UNL d   1      44.904 -15.670  44.405  0.00  0.00    -0.198 OA
ATOM      3  O   UNL d   1      46.447 -15.318  44.924  0.00  0.00    -0.198 OA
ENDROOT
BRANCH   1   4
ATOM      4  C   UNL d   1      45.580 -14.708  44.369  0.00  0.00     0.105 A 
ATOM      5  C   UNL d   1      44.882 -14.314  44.461  0.00  0.00     0.012 A 
ATOM      6  C   UNL d   1      44.813 -13.520  44.168  0.00  0.00     0.001 A 
ATOM      7  C   UNL d   1      44.215 -14.678  44.846  0.00  0.00     0.001 C 
ATOM      8  C   UNL d   1      45.418 -13.151  43.803  0.00  0.00     0.000 A 
ATOM      9  C   UNL d   1      46.174 -13.577  43.703  0.00  0.00     0.001 A 
ATOM     10  C   UNL d   1      45.274 -12.381  43.546  0.00  0.00     0.000 C 
ATOM     11  C   UNL d   1      46.228 -14.319  43.981  0.00  0.00     0.013 A 
ENDBRANCH   1   4
BRANCH   1  12
ATOM     12  N   UNL d   1      45.754 -16.251  44.944  0.00  0.00    -0.158 NA
BRANCH  12  13
ATOM     13  C   UNL d   1      45.903 -16.915  44.421  0.00  0.00     0.094 A 
ATOM     14  C   UNL d   1      46.064 -17.663  44.713  0.00  0.00     0.029 A 
ATOM     15  C   UNL d   1      46.205 -18.287  44.220  0.00  0.00     0.059 A 
ATOM     16  S   UNL d   1      46.379 -19.093  44.385  0.00  0.00    -0.018 SA
ATOM     17  C   UNL d   1      46.191 -18.191  43.414  0.00  0.00     0.110 A 
ATOM     18  C   UNL d   1      46.460 -19.430  43.631  0.00  0.00     0.332 A 
ATOM     19  O   UNL d   1      46.642 -20.261  43.545  0.00  0.00    -0.251 OA
ATOM     20  O   UNL d   1      46.353 -18.920  43.061  0.00  0.00    -0.268 OA
ATOM     21  C   UNL d   1      46.037 -17.476  43.096  0.00  0.00     0.027 A 
ATOM     22  C   UNL d   1      45.887 -16.808  43.578  0.00  0.00     0.022 A 
ENDBRANCH  12  13
ENDBRANCH   1  12
TORSDOF 3
ENDMDL
