MODEL 1
REMARK VINA RESULT:      11.5      0.000      0.000
REMARK  4 active torsions:
REMARK  status: ('A' for Active; 'I' for Inactive)
REMARK    1  A    between atoms: C_2  and  C_1 
REMARK    2  A    between atoms: C_4  and  C_1 
REMARK    3  A    between atoms: C_5  and  C_2 
REMARK    4  A    between atoms: N_6  and  C_5 
ROOT
ATOM      1  C   UNL d   1      58.291  49.678  50.977  0.00  0.00     0.197 C 
ATOM      2  O   UNL d   1      58.166  49.642  51.798  0.00  0.00    -0.286 OA
ENDROOT
BRANCH   1   3
ATOM      3  C   UNL d   1      59.043  49.707  50.676  0.00  0.00     0.061 C 
BRANCH   3   4
ATOM      4  C   UNL d   1      59.638  49.257  51.005  0.00  0.00     0.084 C 
BRANCH   4   5
ATOM      5  N   UNL d   1      60.423  49.505  50.946  0.00  0.00    -0.300 N 
ATOM      6  C   UNL d   1      60.753  49.649  50.208  0.00  0.00     0.100 C 
ATOM      7  C   UNL d   1      60.874  49.606  51.627  0.00  0.00     0.100 C 
ENDBRANCH   4   5
ENDBRANCH   3   4
ENDBRANCH   1   3
BRANCH   1   8
ATOM      8  C   UNL d   1      57.632  49.685  50.448  0.00  0.00     0.039 A 
ATOM      9  C   UNL d   1      57.756  49.679  49.630  0.00  0.00     0.003 A 
ATOM     10  C   UNL d   1      57.126  49.686  49.118  0.00  0.00     0.000 A 
ATOM     11  C   UNL d   1      56.358  49.699  49.418  0.00  0.00     0.000 A 
ATOM     12  C   UNL d   1      56.214  49.705  50.233  0.00  0.00     0.000 A 
ATOM     13  C   UNL d   1      56.879  49.698  50.750  0.00  0.00     0.003 A 
ENDBRANCH   1   8
TORSDOF 4
ENDMDL
