MODEL 1
REMARK VINA RESULT:      80.7      0.000      0.000
REMARK  2 active torsions:
REMARK  status: ('A' for Active; 'I' for Inactive)
REMARK    1  A    between atoms: S_5  and  C_3 
REMARK    2  A    between atoms: C_12  and  S_5 
ROOT
ATOM      1  C   UNL d   1     -55.025-101.390 -38.060  0.00  0.00     0.155 A 
ATOM      2  C   UNL d   1     -54.939-100.700 -38.486  0.00  0.00     0.092 A 
ATOM      3  C   UNL d   1     -54.985-101.434 -39.694  0.00  0.00     0.124 A 
ATOM      4  N   UNL d   1     -55.046-101.367 -37.237  0.00  0.00    -0.210 NA
ATOM      5  N   UNL d   1     -55.092-102.101 -38.444  0.00  0.00    -0.272 N 
ATOM      6  C   UNL d   1     -55.073-102.133 -39.263  0.00  0.00     0.181 A 
ATOM      7  C   UNL d   1     -54.871 -99.980 -38.096  0.00  0.00     0.269 A 
ATOM      8  N   UNL d   1     -54.891 -99.959 -37.277  0.00  0.00    -0.258 N 
ATOM      9  C   UNL d   1     -54.918-100.718 -39.302  0.00  0.00     0.022 A 
ATOM     10  C   UNL d   1     -54.979-100.659 -36.851  0.00  0.00     0.152 A 
ATOM     11  N   UNL d   1     -55.142-102.862 -39.652  0.00  0.00    -0.128 N 
ATOM     12  C   UNL d   1     -54.824 -99.242 -36.876  0.00  0.00     0.084 A 
ATOM     13  O   UNL d   1     -54.782 -99.271 -38.528  0.00  0.00    -0.266 OA
ATOM     14  C   UNL d   1     -54.999-100.636 -36.027  0.00  0.00     0.038 A 
ATOM     15  C   UNL d   1     -54.845 -99.227 -36.067  0.00  0.00     0.019 A 
ATOM     16  C   UNL d   1     -54.933 -99.928 -35.640  0.00  0.00     0.005 A 
ATOM     17  C   UNL d   1     -55.181-102.811 -38.007  0.00  0.00     0.102 C 
ENDROOT
BRANCH   3  18
ATOM     18  S   UNL d   1     -54.965-101.461 -40.521  0.00  0.00     0.213 S 
ATOM     19  O   UNL d   1     -55.214-102.257 -40.514  0.00  0.00    -0.217 OA
ATOM     20  O   UNL d   1     -54.718-100.670 -40.540  0.00  0.00    -0.217 OA
BRANCH  18  21
ATOM     21  C   UNL d   1     -54.942-101.475 -41.356  0.00  0.00     0.088 A 
ATOM     22  C   UNL d   1     -55.074-102.184 -41.763  0.00  0.00     0.014 A 
ATOM     23  C   UNL d   1     -55.050-102.198 -42.598  0.00  0.00     0.030 A 
ATOM     24  C   UNL d   1     -54.894-101.503 -43.021  0.00  0.00     0.140 A 
ATOM     25  C   UNL d   1     -54.760-100.787 -42.602  0.00  0.00     0.030 A 
ATOM     26  F   UNL d   1     -54.869-101.509 -43.850  0.00  0.00    -0.204 F 
ATOM     27  C   UNL d   1     -54.784-100.774 -41.772  0.00  0.00     0.014 A 
ENDBRANCH  18  21
ENDBRANCH   3  18
TORSDOF 2
ENDMDL
