MODEL 1
REMARK VINA RESULT:      64.9      0.000      0.000
REMARK  7 active torsions:
REMARK  status: ('A' for Active; 'I' for Inactive)
REMARK    1  A    between atoms: C_3  and  N_1 
REMARK    2  A    between atoms: N_7  and  C_3 
REMARK    3  A    between atoms: C_9  and  C_4 
REMARK    4  A    between atoms: C_10  and  C_5 
REMARK    5  A    between atoms: C_15  and  N_7 
REMARK    6  A    between atoms: O_22  and  C_16 
REMARK    7  A    between atoms: O_23  and  C_17 
ROOT
ATOM      1  N   UNL d   1      13.786  14.080  -3.236  0.00  0.00    -0.203 N 
ATOM      2  N   UNL d   1      13.840  14.721  -3.737  0.00  0.00    -0.163 NA
ATOM      3  C   UNL d   1      14.424  15.241  -3.407  0.00  0.00     0.103 A 
ATOM      4  C   UNL d   1      14.297  14.169  -2.618  0.00  0.00     0.087 A 
ATOM      5  C   UNL d   1      14.693  14.879  -2.716  0.00  0.00     0.040 A 
ENDROOT
BRANCH   1   6
ATOM      6  C   UNL d   1      13.264  13.412  -3.348  0.00  0.00     0.222 C 
ATOM      7  S   UNL d   1      13.259  12.814  -2.779  0.00  0.00    -0.037 SA
BRANCH   6   8
ATOM      8  N   UNL d   1      12.785  13.388  -4.019  0.00  0.00    -0.217 NA
BRANCH   8   9
ATOM      9  C   UNL d   1      13.052  12.966  -4.675  0.00  0.00     0.084 A 
ATOM     10  C   UNL d   1      12.769  12.206  -4.811  0.00  0.00     0.019 A 
ATOM     11  C   UNL d   1      13.046  11.779  -5.484  0.00  0.00     0.002 A 
ATOM     12  C   UNL d   1      13.577  12.107  -5.984  0.00  0.00     0.000 A 
ATOM     13  C   UNL d   1      13.866  12.867  -5.857  0.00  0.00     0.002 A 
ATOM     14  C   UNL d   1      13.605  13.297  -5.204  0.00  0.00     0.019 A 
ENDBRANCH   8   9
ENDBRANCH   6   8
ENDBRANCH   1   6
BRANCH   4  15
ATOM     15  C   UNL d   1      14.460  13.683  -1.960  0.00  0.00     0.018 A 
ATOM     16  C   UNL d   1      14.912  13.002  -2.063  0.00  0.00     0.004 A 
ATOM     17  C   UNL d   1      15.072  12.523  -1.417  0.00  0.00     0.024 A 
ATOM     18  C   UNL d   1      14.780  12.722  -0.654  0.00  0.00     0.094 A 
ATOM     19  C   UNL d   1      14.319  13.422  -0.562  0.00  0.00     0.024 A 
ATOM     20  C   UNL d   1      14.170  13.887  -1.224  0.00  0.00     0.004 A 
BRANCH  18  21
ATOM     21  O   UNL d   1      14.948  12.238  -0.025  0.00  0.00    -0.328 OA
ATOM     22  C   UNL d   1      15.624  11.779  -0.016  0.00  0.00     0.181 C 
ENDBRANCH  18  21
ENDBRANCH   4  15
BRANCH   3  23
ATOM     23  C   UNL d   1      14.655  15.961  -3.739  0.00  0.00     0.019 A 
ATOM     24  C   UNL d   1      15.078  15.976  -4.444  0.00  0.00     0.004 A 
ATOM     25  C   UNL d   1      15.313  16.692  -4.782  0.00  0.00     0.024 A 
ATOM     26  C   UNL d   1      15.119  17.400  -4.404  0.00  0.00     0.094 A 
ATOM     27  C   UNL d   1      14.685  17.384  -3.680  0.00  0.00     0.024 A 
ATOM     28  C   UNL d   1      14.455  16.666  -3.349  0.00  0.00     0.004 A 
BRANCH  26  29
ATOM     29  O   UNL d   1      15.363  18.130  -4.757  0.00  0.00    -0.328 OA
ATOM     30  C   UNL d   1      14.848  18.859  -5.155  0.00  0.00     0.181 C 
ENDBRANCH  26  29
ENDBRANCH   3  23
TORSDOF 7
ENDMDL
MODEL 2
REMARK VINA RESULT:      67.7      1.948      3.814
REMARK  7 active torsions:
REMARK  status: ('A' for Active; 'I' for Inactive)
REMARK    1  A    between atoms: C_3  and  N_1 
REMARK    2  A    between atoms: N_7  and  C_3 
REMARK    3  A    between atoms: C_9  and  C_4 
REMARK    4  A    between atoms: C_10  and  C_5 
REMARK    5  A    between atoms: C_15  and  N_7 
REMARK    6  A    between atoms: O_22  and  C_16 
REMARK    7  A    between atoms: O_23  and  C_17 
ROOT
ATOM      1  N   UNL d   1      13.810  13.152  -1.918  0.00  0.00    -0.203 N 
ATOM      2  N   UNL d   1      14.052  13.767  -1.440  0.00  0.00    -0.163 NA
ATOM      3  C   UNL d   1      14.200  14.429  -1.950  0.00  0.00     0.103 A 
ATOM      4  C   UNL d   1      13.798  13.390  -2.690  0.00  0.00     0.087 A 
ATOM      5  C   UNL d   1      14.037  14.173  -2.717  0.00  0.00     0.040 A 
ENDROOT
BRANCH   1   6
ATOM      6  C   UNL d   1      13.599  12.370  -1.644  0.00  0.00     0.222 C 
ATOM      7  S   UNL d   1      13.106  11.905  -2.115  0.00  0.00    -0.037 SA
BRANCH   6   8
ATOM      8  N   UNL d   1      13.894  12.109  -0.920  0.00  0.00    -0.217 NA
BRANCH   8   9
ATOM      9  C   UNL d   1      14.708  12.142  -0.795  0.00  0.00     0.084 A 
ATOM     10  C   UNL d   1      15.001  12.536  -0.136  0.00  0.00     0.019 A 
ATOM     11  C   UNL d   1      15.836  12.567  -0.014  0.00  0.00     0.002 A 
ATOM     12  C   UNL d   1      16.336  12.218  -0.531  0.00  0.00     0.000 A 
ATOM     13  C   UNL d   1      16.053  11.821  -1.193  0.00  0.00     0.002 A 
ATOM     14  C   UNL d   1      15.241  11.782  -1.326  0.00  0.00     0.019 A 
ENDBRANCH   8   9
ENDBRANCH   6   8
ENDBRANCH   1   6
BRANCH   4  15
ATOM     15  C   UNL d   1      13.597  12.987  -3.390  0.00  0.00     0.018 A 
ATOM     16  C   UNL d   1      13.238  12.247  -3.342  0.00  0.00     0.004 A 
ATOM     17  C   UNL d   1      13.039  11.849  -4.030  0.00  0.00     0.024 A 
ATOM     18  C   UNL d   1      13.198  12.188  -4.782  0.00  0.00     0.094 A 
ATOM     19  C   UNL d   1      13.566  12.947  -4.819  0.00  0.00     0.024 A 
ATOM     20  C   UNL d   1      13.756  13.328  -4.116  0.00  0.00     0.004 A 
BRANCH  18  21
ATOM     21  O   UNL d   1      12.995  11.782  -5.454  0.00  0.00    -0.328 OA
ATOM     22  C   UNL d   1      13.244  12.035  -6.190  0.00  0.00     0.181 C 
ENDBRANCH  18  21
ENDBRANCH   4  15
BRANCH   3  23
ATOM     23  C   UNL d   1      14.457  15.172  -1.694  0.00  0.00     0.019 A 
ATOM     24  C   UNL d   1      14.727  15.274  -0.924  0.00  0.00     0.004 A 
ATOM     25  C   UNL d   1      14.986  16.013  -0.661  0.00  0.00     0.024 A 
ATOM     26  C   UNL d   1      14.972  16.655  -1.181  0.00  0.00     0.094 A 
ATOM     27  C   UNL d   1      14.695  16.548  -1.971  0.00  0.00     0.024 A 
ATOM     28  C   UNL d   1      14.439  15.808  -2.226  0.00  0.00     0.004 A 
BRANCH  26  29
ATOM     29  O   UNL d   1      15.239  17.409  -0.904  0.00  0.00    -0.328 OA
ATOM     30  C   UNL d   1      16.092  17.690  -0.518  0.00  0.00     0.181 C 
ENDBRANCH  26  29
ENDBRANCH   3  23
TORSDOF 7
ENDMDL
