MODEL 1
REMARK VINA RESULT:      44.3      0.000      0.000
REMARK  2 active torsions:
REMARK  status: ('A' for Active; 'I' for Inactive)
REMARK    1  A    between atoms: N_5  and  C_1 
REMARK    2  A    between atoms: C_8  and  C_4 
ROOT
ATOM      1  C   UNL d   1      58.506  49.580  50.458  0.00  0.00     0.166 A 
ATOM      2  N   UNL d   1      59.227  49.611  50.092  0.00  0.00    -0.225 NA
ATOM      3  N   UNL d   1      59.196  49.543  51.705  0.00  0.00    -0.241 NA
ATOM      4  C   UNL d   1      58.490  49.545  51.279  0.00  0.00     0.116 A 
ATOM      5  C   UNL d   1      59.935  49.611  50.486  0.00  0.00     0.101 A 
ATOM      6  C   UNL d   1      59.919  49.576  51.307  0.00  0.00     0.099 A 
ATOM      7  C   UNL d   1      60.657  49.642  50.121  0.00  0.00     0.021 A 
ATOM      8  C   UNL d   1      60.626  49.573  51.733  0.00  0.00     0.021 A 
ATOM      9  C   UNL d   1      61.320  49.606  51.336  0.00  0.00     0.002 A 
ATOM     10  C   UNL d   1      61.335  49.641  50.515  0.00  0.00     0.002 A 
ENDROOT
BRANCH   1  11
ATOM     11  N   UNL d   1      57.800  49.580  50.064  0.00  0.00    -0.284 N 
ATOM     12  C   UNL d   1      57.812  49.454  49.245  0.00  0.00     0.108 A 
ATOM     13  C   UNL d   1      57.083  49.454  48.829  0.00  0.00     0.142 A 
ATOM     14  O   UNL d   1      56.383  49.577  49.239  0.00  0.00    -0.300 OA
ATOM     15  C   UNL d   1      56.389  49.700  50.047  0.00  0.00     0.142 A 
ATOM     16  C   UNL d   1      57.092  49.706  50.481  0.00  0.00     0.108 A 
ENDBRANCH   1  11
BRANCH   4  17
ATOM     17  C   UNL d   1      57.769  49.512  51.676  0.00  0.00     0.021 A 
ATOM     18  C   UNL d   1      57.730  49.708  52.476  0.00  0.00     0.002 A 
ATOM     19  C   UNL d   1      57.008  49.675  52.876  0.00  0.00     0.000 A 
ATOM     20  C   UNL d   1      56.325  49.446  52.474  0.00  0.00     0.000 A 
ATOM     21  C   UNL d   1      56.364  49.250  51.672  0.00  0.00     0.000 A 
ATOM     22  C   UNL d   1      57.086  49.283  51.274  0.00  0.00     0.002 A 
ENDBRANCH   4  17
TORSDOF 2
ENDMDL
