MODEL 1
REMARK VINA RESULT:      19.9      0.000      0.000
REMARK  5 active torsions:
REMARK  status: ('A' for Active; 'I' for Inactive)
REMARK    1  A    between atoms: C_2  and  S_1 
REMARK    2  A    between atoms: N_3  and  S_1 
REMARK    3  A    between atoms: C_11  and  N_3 
REMARK    4  A    between atoms: O_13  and  C_5 
REMARK    5  A    between atoms: C_14  and  C_11 
ROOT
ATOM      1  S   UNL d   1     -56.231 -98.761 -44.381  0.00  0.00     0.285 S 
ATOM      2  O   UNL d   1     -56.166 -98.767 -45.203  0.00  0.00    -0.198 OA
ATOM      3  O   UNL d   1     -56.293 -98.755 -43.560  0.00  0.00    -0.198 OA
ENDROOT
BRANCH   1   4
ATOM      4  C   UNL d   1     -57.053 -98.761 -44.445  0.00  0.00     0.107 A 
ATOM      5  C   UNL d   1     -57.519 -98.762 -43.765  0.00  0.00     0.039 A 
ATOM      6  C   UNL d   1     -58.342 -98.761 -43.829  0.00  0.00     0.122 A 
ATOM      7  C   UNL d   1     -58.698 -98.760 -44.575  0.00  0.00     0.162 A 
ATOM      8  C   UNL d   1     -58.231 -98.759 -45.252  0.00  0.00     0.032 A 
ATOM      9  F   UNL d   1     -59.519 -98.759 -44.636  0.00  0.00    -0.202 F 
ATOM     10  C   UNL d   1     -57.410 -98.759 -45.191  0.00  0.00     0.015 A 
BRANCH   6  11
ATOM     11  O   UNL d   1     -58.808 -98.762 -43.149  0.00  0.00    -0.326 OA
ATOM     12  C   UNL d   1     -59.613 -98.942 -43.199  0.00  0.00     0.181 C 
ENDBRANCH   6  11
ENDBRANCH   1   4
BRANCH   1  13
ATOM     13  N   UNL d   1     -55.405 -98.761 -44.317  0.00  0.00    -0.157 NA
BRANCH  13  14
ATOM     14  C   UNL d   1     -55.025 -99.359 -43.892  0.00  0.00     0.112 C 
BRANCH  14  15
ATOM     15  C   UNL d   1     -54.925-100.104 -44.233  0.00  0.00     0.020 A 
ATOM     16  C   UNL d   1     -54.831-100.177 -45.050  0.00  0.00     0.002 A 
ATOM     17  C   UNL d   1     -54.731-100.930 -45.390  0.00  0.00     0.000 A 
ATOM     18  C   UNL d   1     -54.726-101.602 -44.911  0.00  0.00     0.000 A 
ATOM     19  C   UNL d   1     -54.821-101.529 -44.093  0.00  0.00     0.000 A 
ATOM     20  C   UNL d   1     -54.920-100.784 -43.753  0.00  0.00     0.002 A 
ENDBRANCH  14  15
ENDBRANCH  13  14
ENDBRANCH   1  13
TORSDOF 5
ENDMDL
