MODEL 1
REMARK VINA RESULT:       8.3      0.000      0.000
REMARK  9 active torsions:
REMARK  status: ('A' for Active; 'I' for Inactive)
REMARK    1  A    between atoms: C_2  and  N_1 
REMARK    2  A    between atoms: C_4  and  C_2 
REMARK    3  A    between atoms: C_6  and  C_2 
REMARK    4  A    between atoms: C_8  and  N_3 
REMARK       I    between atoms: C_5  and  N_7 
REMARK    5  A    between atoms: O_17  and  C_5 
REMARK    6  A    between atoms: N_7  and  C_6 
REMARK    7  A    between atoms: C_22  and  O_17 
REMARK    8  A    between atoms: O_26  and  C_21 
REMARK    9  A    between atoms: C_25  and  C_22 
ROOT
ATOM      1  C   UNL d   1     -41.659-122.229 -51.605  0.00  0.00     0.107 C 
ENDROOT
BRANCH   1   2
ATOM      2  N   UNL d   1     -41.755-122.144 -52.428  0.00  0.00    -0.298 N 
ATOM      3  C   UNL d   1     -42.329-121.643 -52.725  0.00  0.00     0.100 A 
ATOM      4  C   UNL d   1     -42.425-121.558 -53.548  0.00  0.00     0.100 A 
ATOM      5  N   UNL d   1     -41.938-121.982 -54.061  0.00  0.00    -0.301 N 
ATOM      6  C   UNL d   1     -41.358-122.488 -53.748  0.00  0.00     0.100 A 
ATOM      7  C   UNL d   1     -41.268-122.568 -52.942  0.00  0.00     0.100 A 
BRANCH   5   8
ATOM      8  C   UNL d   1     -42.023-121.906 -54.861  0.00  0.00     0.064 A 
ATOM      9  C   UNL d   1     -41.423-121.567 -55.314  0.00  0.00     0.020 A 
ATOM     10  C   UNL d   1     -41.514-121.491 -56.131  0.00  0.00     0.026 A 
ATOM     11  C   UNL d   1     -42.207-121.754 -56.494  0.00  0.00     0.094 A 
ATOM     12  C   UNL d   1     -42.808-122.093 -56.041  0.00  0.00     0.026 A 
ATOM     13  C   UNL d   1     -42.713-122.167 -55.227  0.00  0.00     0.020 A 
BRANCH  11  14
ATOM     14  O   UNL d   1     -42.298-121.676 -57.324  0.00  0.00    -0.328 OA
ATOM     15  C   UNL d   1     -42.400-120.925 -57.643  0.00  0.00     0.181 C 
ENDBRANCH  11  14
ENDBRANCH   5   8
ENDBRANCH   1   2
BRANCH   1  16
ATOM     16  C   UNL d   1     -41.453-121.557 -51.148  0.00  0.00     0.118 A 
ATOM     17  O   UNL d   1     -41.298-121.460 -50.340  0.00  0.00    -0.304 OA
ATOM     18  C   UNL d   1     -41.123-120.657 -50.219  0.00  0.00     0.123 A 
ATOM     19  C   UNL d   1     -41.169-120.269 -50.935  0.00  0.00     0.029 A 
ATOM     20  C   UNL d   1     -41.374-120.826 -51.514  0.00  0.00     0.028 A 
ENDBRANCH   1  16
BRANCH   1  21
ATOM     21  C   UNL d   1     -41.763-122.956 -51.234  0.00  0.00     0.124 C 
BRANCH  21  22
ATOM     22  N   UNL d   1     -41.380-123.106 -50.503  0.00  0.00    -0.183 NA
ATOM     23  C   UNL d   1     -41.765-123.514 -49.913  0.00  0.00     0.392 C 
ATOM     24  O   UNL d   1     -42.538-123.784 -50.034  0.00  0.00    -0.236 OA
BRANCH  23  25
ATOM     25  O   UNL d   1     -41.382-123.657 -49.198  0.00  0.00    -0.256 OA
BRANCH  25  26
ATOM     26  C   UNL d   1     -41.822-123.815 -48.518  0.00  0.00     0.128 C 
BRANCH  26  27
ATOM     27  C   UNL d   1     -41.847-123.265 -47.904  0.00  0.00     0.025 A 
ATOM     28  C   UNL d   1     -41.159-123.084 -47.485  0.00  0.00     0.002 A 
ATOM     29  C   UNL d   1     -41.184-122.533 -46.871  0.00  0.00     0.000 A 
ATOM     30  C   UNL d   1     -41.896-122.163 -46.676  0.00  0.00     0.000 A 
ATOM     31  C   UNL d   1     -42.579-122.345 -47.095  0.00  0.00     0.000 A 
ATOM     32  C   UNL d   1     -42.559-122.896 -47.710  0.00  0.00     0.002 A 
ENDBRANCH  26  27
ENDBRANCH  25  26
ENDBRANCH  23  25
ENDBRANCH  21  22
ENDBRANCH   1  21
TORSDOF 9
ENDMDL
