MODEL 1
REMARK VINA RESULT:      -3.4      0.000      0.000
REMARK  4 active torsions:
REMARK  status: ('A' for Active; 'I' for Inactive)
REMARK    1  A    between atoms: O_2  and  P_1 
REMARK    2  A    between atoms: C_6  and  P_1 
REMARK    3  A    between atoms: C_3  and  O_2 
REMARK    4  A    between atoms: C_10  and  C_4 
ROOT
ATOM      1  C   UNL d   1      56.684   0.141  32.824  0.00  0.00     0.103 A 
ATOM      2  C   UNL d   1      56.165   0.220  33.463  0.00  0.00     0.023 A 
ATOM      3  C   UNL d   1      56.425   0.446  34.191  0.00  0.00     0.002 A 
ATOM      4  C   UNL d   1      57.485   0.301  32.947  0.00  0.00     0.025 A 
ATOM      5  C   UNL d   1      57.229   0.605  34.312  0.00  0.00     0.000 A 
ATOM      6  C   UNL d   1      57.746   0.527  33.675  0.00  0.00     0.002 A 
ATOM      7  C   UNL d   1      58.557   0.682  33.775  0.00  0.00     0.000 C 
ENDROOT
BRANCH   1   8
ATOM      8  O   UNL d   1      56.412  -0.091  32.078  0.00  0.00    -0.269 OA
BRANCH   8   9
ATOM      9  P   UNL d   1      56.934  -0.130  31.450  0.00  0.00     0.370 P 
ATOM     10  O   UNL d   1      56.889   0.682  31.359  0.00  0.00    -0.257 OA
ATOM     11  N   UNL d   1      56.973  -0.968  31.556  0.00  0.00    -0.091 N 
BRANCH   9  12
ATOM     12  C   UNL d   1      57.464  -0.189  30.818  0.00  0.00     0.077 A 
ATOM     13  C   UNL d   1      57.794  -0.927  30.651  0.00  0.00     0.007 A 
ATOM     14  C   UNL d   1      58.327  -0.988  30.015  0.00  0.00     0.000 A 
ATOM     15  C   UNL d   1      58.523  -0.326  29.559  0.00  0.00     0.000 A 
ATOM     16  C   UNL d   1      58.186   0.394  29.740  0.00  0.00     0.000 A 
ATOM     17  C   UNL d   1      57.660   0.472  30.362  0.00  0.00     0.007 A 
ENDBRANCH   9  12
ENDBRANCH   8   9
ENDBRANCH   1   8
BRANCH   2  18
ATOM     18  C   UNL d   1      55.368   0.066  33.359  0.00  0.00     0.002 C 
ATOM     19  C   UNL d   1      54.837   0.680  33.252  0.00  0.00     0.000 C 
ATOM     20  C   UNL d   1      55.101  -0.713  33.363  0.00  0.00     0.000 C 
ENDBRANCH   2  18
TORSDOF 4
ENDMDL
MODEL 2
REMARK VINA RESULT:      -2.5      1.586      4.459
REMARK  4 active torsions:
REMARK  status: ('A' for Active; 'I' for Inactive)
REMARK    1  A    between atoms: O_2  and  P_1 
REMARK    2  A    between atoms: C_6  and  P_1 
REMARK    3  A    between atoms: C_3  and  O_2 
REMARK    4  A    between atoms: C_10  and  C_4 
ROOT
ATOM      1  C   UNL d   1      59.033  -0.399  29.586  0.00  0.00     0.103 A 
ATOM      2  C   UNL d   1      59.753  -0.495  29.189  0.00  0.00     0.023 A 
ATOM      3  C   UNL d   1      59.995  -1.216  28.924  0.00  0.00     0.002 A 
ATOM      4  C   UNL d   1      58.561  -1.066  29.707  0.00  0.00     0.025 A 
ATOM      5  C   UNL d   1      59.518  -1.883  29.047  0.00  0.00     0.000 A 
ATOM      6  C   UNL d   1      58.802  -1.787  29.442  0.00  0.00     0.002 A 
ATOM      7  C   UNL d   1      58.309  -2.443  29.576  0.00  0.00     0.000 C 
ENDROOT
BRANCH   1   8
ATOM      8  O   UNL d   1      58.789   0.344  29.856  0.00  0.00    -0.269 OA
BRANCH   8   9
ATOM      9  P   UNL d   1      58.318   0.397  30.522  0.00  0.00     0.370 P 
ATOM     10  O   UNL d   1      58.958   0.207  30.994  0.00  0.00    -0.257 OA
ATOM     11  N   UNL d   1      57.664   0.592  30.023  0.00  0.00    -0.091 N 
BRANCH   9  12
ATOM     12  C   UNL d   1      57.825   0.456  31.183  0.00  0.00     0.077 A 
ATOM     13  C   UNL d   1      58.169   0.622  31.915  0.00  0.00     0.007 A 
ATOM     14  C   UNL d   1      57.674   0.682  32.581  0.00  0.00     0.000 A 
ATOM     15  C   UNL d   1      56.855   0.577  32.515  0.00  0.00     0.000 A 
ATOM     16  C   UNL d   1      56.536   0.414  31.783  0.00  0.00     0.000 A 
ATOM     17  C   UNL d   1      57.007   0.352  31.117  0.00  0.00     0.007 A 
ENDBRANCH   9  12
ENDBRANCH   8   9
ENDBRANCH   1   8
BRANCH   2  18
ATOM     18  C   UNL d   1      60.234   0.155  29.060  0.00  0.00     0.002 C 
ATOM     19  C   UNL d   1      60.893   0.282  29.529  0.00  0.00     0.000 C 
ATOM     20  C   UNL d   1      60.051   0.682  28.455  0.00  0.00     0.000 C 
ENDBRANCH   2  18
TORSDOF 4
ENDMDL
MODEL 3
REMARK VINA RESULT:      -2.0      1.039      1.470
REMARK  4 active torsions:
REMARK  status: ('A' for Active; 'I' for Inactive)
REMARK    1  A    between atoms: O_2  and  P_1 
REMARK    2  A    between atoms: C_6  and  P_1 
REMARK    3  A    between atoms: C_3  and  O_2 
REMARK    4  A    between atoms: C_10  and  C_4 
ROOT
ATOM      1  C   UNL d   1      57.428   0.123  31.960  0.00  0.00     0.103 A 
ATOM      2  C   UNL d   1      56.954   0.174  32.637  0.00  0.00     0.023 A 
ATOM      3  C   UNL d   1      57.260   0.388  33.351  0.00  0.00     0.002 A 
ATOM      4  C   UNL d   1      58.231   0.298  32.031  0.00  0.00     0.025 A 
ATOM      5  C   UNL d   1      58.067   0.562  33.418  0.00  0.00     0.000 A 
ATOM      6  C   UNL d   1      58.539   0.511  32.745  0.00  0.00     0.002 A 
ATOM      7  C   UNL d   1      59.351   0.682  32.791  0.00  0.00     0.000 C 
ENDROOT
BRANCH   1   8
ATOM      8  O   UNL d   1      57.108  -0.096  31.230  0.00  0.00    -0.269 OA
BRANCH   8   9
ATOM      9  P   UNL d   1      57.601  -0.194  30.585  0.00  0.00     0.370 P 
ATOM     10  O   UNL d   1      57.806  -0.940  30.851  0.00  0.00    -0.257 OA
ATOM     11  N   UNL d   1      57.380   0.579  30.321  0.00  0.00    -0.091 N 
BRANCH   9  12
ATOM     12  C   UNL d   1      58.095  -0.274  29.926  0.00  0.00     0.077 A 
ATOM     13  C   UNL d   1      58.321   0.408  29.521  0.00  0.00     0.007 A 
ATOM     14  C   UNL d   1      58.818   0.329  28.858  0.00  0.00     0.000 A 
ATOM     15  C   UNL d   1      59.080  -0.416  28.609  0.00  0.00     0.000 A 
ATOM     16  C   UNL d   1      58.845  -1.077  29.024  0.00  0.00     0.000 A 
ATOM     17  C   UNL d   1      58.357  -1.018  29.677  0.00  0.00     0.007 A 
ENDBRANCH   9  12
ENDBRANCH   8   9
ENDBRANCH   1   8
BRANCH   2  18
ATOM     18  C   UNL d   1      56.155   0.005  32.585  0.00  0.00     0.002 C 
ATOM     19  C   UNL d   1      55.893  -0.770  32.604  0.00  0.00     0.000 C 
ATOM     20  C   UNL d   1      55.613   0.621  32.514  0.00  0.00     0.000 C 
ENDBRANCH   2  18
TORSDOF 4
ENDMDL
MODEL 4
REMARK VINA RESULT:      -1.3      1.749      4.097
REMARK  4 active torsions:
REMARK  status: ('A' for Active; 'I' for Inactive)
REMARK    1  A    between atoms: O_2  and  P_1 
REMARK    2  A    between atoms: C_6  and  P_1 
REMARK    3  A    between atoms: C_3  and  O_2 
REMARK    4  A    between atoms: C_10  and  C_4 
ROOT
ATOM      1  C   UNL d   1      56.250  -0.257  32.812  0.00  0.00     0.103 A 
ATOM      2  C   UNL d   1      56.781  -0.330  32.182  0.00  0.00     0.023 A 
ATOM      3  C   UNL d   1      56.943  -1.044  31.847  0.00  0.00     0.002 A 
ATOM      4  C   UNL d   1      55.884  -0.940  33.096  0.00  0.00     0.025 A 
ATOM      5  C   UNL d   1      56.573  -1.728  32.135  0.00  0.00     0.000 A 
ATOM      6  C   UNL d   1      56.045  -1.655  32.762  0.00  0.00     0.002 A 
ATOM      7  C   UNL d   1      55.663  -2.329  33.066  0.00  0.00     0.000 C 
ENDROOT
BRANCH   1   8
ATOM      8  O   UNL d   1      56.088   0.480  33.151  0.00  0.00    -0.269 OA
BRANCH   8   9
ATOM      9  P   UNL d   1      55.672   0.519  33.854  0.00  0.00     0.370 P 
ATOM     10  O   UNL d   1      54.967   0.546  33.439  0.00  0.00    -0.257 OA
ATOM     11  N   UNL d   1      56.407   0.490  34.271  0.00  0.00    -0.091 N 
BRANCH   9  12
ATOM     12  C   UNL d   1      55.269   0.557  34.575  0.00  0.00     0.077 A 
ATOM     13  C   UNL d   1      54.448   0.637  34.562  0.00  0.00     0.007 A 
ATOM     14  C   UNL d   1      54.041   0.676  35.287  0.00  0.00     0.000 A 
ATOM     15  C   UNL d   1      54.449   0.636  36.007  0.00  0.00     0.000 A 
ATOM     16  C   UNL d   1      55.260   0.557  35.997  0.00  0.00     0.000 A 
ATOM     17  C   UNL d   1      55.676   0.517  35.294  0.00  0.00     0.007 A 
ENDBRANCH   9  12
ENDBRANCH   8   9
ENDBRANCH   1   8
BRANCH   2  18
ATOM     18  C   UNL d   1      57.154   0.337  31.887  0.00  0.00     0.002 C 
ATOM     19  C   UNL d   1      56.915   0.666  31.176  0.00  0.00     0.000 C 
ATOM     20  C   UNL d   1      57.773   0.677  32.310  0.00  0.00     0.000 C 
ENDBRANCH   2  18
TORSDOF 4
ENDMDL
MODEL 5
REMARK VINA RESULT:      -0.9      1.561      4.260
REMARK  4 active torsions:
REMARK  status: ('A' for Active; 'I' for Inactive)
REMARK    1  A    between atoms: O_2  and  P_1 
REMARK    2  A    between atoms: C_6  and  P_1 
REMARK    3  A    between atoms: C_3  and  O_2 
REMARK    4  A    between atoms: C_10  and  C_4 
ROOT
ATOM      1  C   UNL d   1      58.797  -0.997  29.421  0.00  0.00     0.103 A 
ATOM      2  C   UNL d   1      59.248  -1.562  29.018  0.00  0.00     0.023 A 
ATOM      3  C   UNL d   1      59.991  -1.399  28.754  0.00  0.00     0.002 A 
ATOM      4  C   UNL d   1      59.128  -0.252  29.549  0.00  0.00     0.025 A 
ATOM      5  C   UNL d   1      60.320  -0.649  28.884  0.00  0.00     0.000 A 
ATOM      6  C   UNL d   1      59.871  -0.087  29.285  0.00  0.00     0.002 A 
ATOM      7  C   UNL d   1      60.183   0.671  29.427  0.00  0.00     0.000 C 
ENDROOT
BRANCH   1   8
ATOM      8  O   UNL d   1      58.034  -1.171  29.690  0.00  0.00    -0.269 OA
BRANCH   8   9
ATOM      9  P   UNL d   1      57.743  -0.791  30.353  0.00  0.00     0.370 P 
ATOM     10  O   UNL d   1      57.619  -0.112  29.913  0.00  0.00    -0.257 OA
ATOM     11  N   UNL d   1      57.877  -1.499  30.797  0.00  0.00    -0.091 N 
BRANCH   9  12
ATOM     12  C   UNL d   1      57.452  -0.424  31.035  0.00  0.00     0.077 A 
ATOM     13  C   UNL d   1      56.904  -0.833  31.496  0.00  0.00     0.007 A 
ATOM     14  C   UNL d   1      56.610  -0.465  32.182  0.00  0.00     0.000 A 
ATOM     15  C   UNL d   1      56.860   0.295  32.398  0.00  0.00     0.000 A 
ATOM     16  C   UNL d   1      57.402   0.681  31.928  0.00  0.00     0.000 A 
ATOM     17  C   UNL d   1      57.702   0.335  31.251  0.00  0.00     0.007 A 
ENDBRANCH   9  12
ENDBRANCH   8   9
ENDBRANCH   1   8
BRANCH   2  18
ATOM     18  C   UNL d   1      58.935  -2.307  28.882  0.00  0.00     0.002 C 
ATOM     19  C   UNL d   1      58.240  -2.394  28.459  0.00  0.00     0.000 C 
ATOM     20  C   UNL d   1      59.326  -2.970  29.175  0.00  0.00     0.000 C 
ENDBRANCH   2  18
TORSDOF 4
ENDMDL
