MODEL 1
REMARK VINA RESULT:      47.4      0.000      0.000
REMARK  4 active torsions:
REMARK  status: ('A' for Active; 'I' for Inactive)
REMARK    1  A    between atoms: C_6  and  C_1 
REMARK    2  A    between atoms: C_9  and  N_3 
REMARK    3  A    between atoms: C_17  and  C_9 
REMARK    4  A    between atoms: O_15  and  C_10 
ROOT
ATOM      1  C   UNL d   1     -54.751-100.756 -42.663  0.00  0.00     0.148 A 
ATOM      2  N   UNL d   1     -54.765-100.588 -41.826  0.00  0.00    -0.227 NA
ATOM      3  N   UNL d   1     -54.729-101.582 -42.743  0.00  0.00    -0.289 N 
ATOM      4  C   UNL d   1     -54.730-101.923 -42.008  0.00  0.00     0.083 A 
ATOM      5  C   UNL d   1     -54.752-101.295 -41.430  0.00  0.00     0.099 A 
ATOM      6  C   UNL d   1     -54.713-102.711 -41.758  0.00  0.00     0.019 A 
ATOM      7  C   UNL d   1     -54.756-101.518 -40.618  0.00  0.00     0.021 A 
ATOM      8  C   UNL d   1     -54.718-102.878 -40.971  0.00  0.00     0.002 A 
ATOM      9  C   UNL d   1     -54.740-102.272 -40.412  0.00  0.00     0.002 A 
ENDROOT
BRANCH   1  10
ATOM     10  C   UNL d   1     -54.758-100.176 -43.257  0.00  0.00     0.035 A 
ATOM     11  C   UNL d   1     -54.767 -99.383 -43.070  0.00  0.00     0.005 A 
ATOM     12  C   UNL d   1     -54.775 -98.787 -43.647  0.00  0.00     0.024 A 
ATOM     13  C   UNL d   1     -54.773 -98.983 -44.411  0.00  0.00     0.094 A 
ATOM     14  C   UNL d   1     -54.764 -99.801 -44.621  0.00  0.00     0.024 A 
ATOM     15  C   UNL d   1     -54.756-100.397 -44.044  0.00  0.00     0.005 A 
BRANCH  13  16
ATOM     16  O   UNL d   1     -54.777 -98.755 -45.209  0.00  0.00    -0.328 OA
ATOM     17  C   UNL d   1     -55.180 -99.215 -45.771  0.00  0.00     0.181 C 
ENDBRANCH  13  16
ENDBRANCH   1  10
BRANCH   3  18
ATOM     18  C   UNL d   1     -54.715-101.826 -43.497  0.00  0.00     0.082 C 
BRANCH  18  19
ATOM     19  C   UNL d   1     -54.906-102.591 -43.709  0.00  0.00     0.019 C 
ATOM     20  C   UNL d   1     -54.837-102.875 -44.478  0.00  0.00     0.002 C 
ENDBRANCH  18  19
ENDBRANCH   3  18
TORSDOF 4
ENDMDL
MODEL 2
REMARK VINA RESULT:      49.9      3.073      5.477
REMARK  4 active torsions:
REMARK  status: ('A' for Active; 'I' for Inactive)
REMARK    1  A    between atoms: C_6  and  C_1 
REMARK    2  A    between atoms: C_9  and  N_3 
REMARK    3  A    between atoms: C_17  and  C_9 
REMARK    4  A    between atoms: O_15  and  C_10 
ROOT
ATOM      1  C   UNL d   1     -54.952-102.090 -39.376  0.00  0.00     0.148 A 
ATOM      2  N   UNL d   1     -54.868-102.756 -39.903  0.00  0.00    -0.227 NA
ATOM      3  N   UNL d   1     -54.954-101.407 -39.847  0.00  0.00    -0.289 N 
ATOM      4  C   UNL d   1     -54.878-101.618 -40.625  0.00  0.00     0.083 A 
ATOM      5  C   UNL d   1     -54.823-102.469 -40.660  0.00  0.00     0.099 A 
ATOM      6  C   UNL d   1     -54.847-101.176 -41.323  0.00  0.00     0.019 A 
ATOM      7  C   UNL d   1     -54.739-102.820 -41.421  0.00  0.00     0.021 A 
ATOM      8  C   UNL d   1     -54.766-101.553 -42.029  0.00  0.00     0.002 A 
ATOM      9  C   UNL d   1     -54.713-102.375 -42.063  0.00  0.00     0.002 A 
ENDROOT
BRANCH   1  10
ATOM     10  C   UNL d   1     -55.016-102.153 -38.550  0.00  0.00     0.035 A 
ATOM     11  C   UNL d   1     -54.714-102.797 -38.153  0.00  0.00     0.005 A 
ATOM     12  C   UNL d   1     -54.767-102.880 -37.328  0.00  0.00     0.024 A 
ATOM     13  C   UNL d   1     -55.122-102.319 -36.902  0.00  0.00     0.094 A 
ATOM     14  C   UNL d   1     -55.440-101.646 -37.299  0.00  0.00     0.024 A 
ATOM     15  C   UNL d   1     -55.387-101.563 -38.123  0.00  0.00     0.005 A 
BRANCH  13  16
ATOM     16  O   UNL d   1     -55.367-102.028 -36.164  0.00  0.00    -0.328 OA
ATOM     17  C   UNL d   1     -54.872-102.105 -35.502  0.00  0.00     0.181 C 
ENDBRANCH  13  16
ENDBRANCH   1  10
BRANCH   3  18
ATOM     18  C   UNL d   1     -55.029-100.737 -39.430  0.00  0.00     0.082 C 
BRANCH  18  19
ATOM     19  C   UNL d   1     -54.712-100.029 -39.687  0.00  0.00     0.019 C 
ATOM     20  C   UNL d   1     -55.017 -99.602 -40.320  0.00  0.00     0.002 C 
ENDBRANCH  18  19
ENDBRANCH   3  18
TORSDOF 4
ENDMDL
