MODEL 1
REMARK VINA RESULT:      34.5      0.000      0.000
REMARK  4 active torsions:
REMARK  status: ('A' for Active; 'I' for Inactive)
REMARK       I    between atoms: C_2  and  N_1 
REMARK    1  A    between atoms: C_3  and  N_1 
REMARK    2  A    between atoms: C_5  and  C_2 
REMARK    3  A    between atoms: C_4  and  C_3 
REMARK    4  A    between atoms: N_6  and  C_3 
ROOT
ATOM      1  C   UNL d   1     -55.803 -99.987 -43.897  0.00  0.00     0.170 C 
ENDROOT
BRANCH   1   2
ATOM      2  N   UNL d   1     -56.604 -99.836 -43.730  0.00  0.00    -0.191 NA
ATOM      3  C   UNL d   1     -57.069 -99.376 -44.296  0.00  0.00     0.281 C 
ATOM      4  O   UNL d   1     -56.737 -99.088 -44.991  0.00  0.00    -0.265 OA
BRANCH   3   5
ATOM      5  C   UNL d   1     -57.869 -99.215 -44.147  0.00  0.00     0.069 A 
ATOM      6  C   UNL d   1     -58.344 -98.988 -44.775  0.00  0.00     0.062 A 
ATOM      7 CL   UNL d   1     -58.168 -98.898 -45.496  0.00  0.00    -0.082 Cl
ATOM      8  C   UNL d   1     -59.175 -98.816 -44.650  0.00  0.00     0.012 A 
ATOM      9  C   UNL d   1     -59.491 -98.879 -43.898  0.00  0.00     0.001 A 
ATOM     10  C   UNL d   1     -59.001 -99.112 -43.257  0.00  0.00     0.000 A 
ATOM     11  C   UNL d   1     -58.187 -99.280 -43.388  0.00  0.00     0.006 A 
ENDBRANCH   3   5
ENDBRANCH   1   2
BRANCH   1  12
ATOM     12  C   UNL d   1     -55.256 -99.358 -43.842  0.00  0.00     0.249 C 
ATOM     13 CL   UNL d   1     -54.729 -98.762 -43.755  0.00  0.00    -0.075 Cl
ATOM     14 CL   UNL d   1     -55.042 -98.877 -44.567  0.00  0.00    -0.075 Cl
ATOM     15 CL   UNL d   1     -54.968 -99.239 -43.135  0.00  0.00    -0.075 Cl
ENDBRANCH   1  12
BRANCH   1  16
ATOM     16  N   UNL d   1     -55.551-100.734 -44.112  0.00  0.00    -0.286 N 
ATOM     17  C   UNL d   1     -55.663-101.354 -43.616  0.00  0.00     0.108 A 
ATOM     18  C   UNL d   1     -55.409-102.107 -43.833  0.00  0.00     0.142 A 
ATOM     19  O   UNL d   1     -55.047-102.254 -44.530  0.00  0.00    -0.300 OA
ATOM     20  C   UNL d   1     -54.927-101.610 -45.052  0.00  0.00     0.142 A 
ATOM     21  C   UNL d   1     -55.181-100.856 -44.835  0.00  0.00     0.108 A 
ENDBRANCH   1  16
TORSDOF 4
ENDMDL
