MODEL 1
REMARK VINA RESULT:      -4.5      0.000      0.000
REMARK  4 active torsions:
REMARK  status: ('A' for Active; 'I' for Inactive)
REMARK    1  A    between atoms: C_6  and  C_2 
REMARK    2  A    between atoms: C_8  and  C_6 
REMARK    3  A    between atoms: C_7  and  C_9 
REMARK    4  A    between atoms: C_9  and  C_8 
ROOT
ATOM      1  C   UNL d   1     -41.653-122.355 -51.035  0.00  0.00     0.006 C 
ENDROOT
BRANCH   1   2
ATOM      2  C   UNL d   1     -41.806-122.662 -50.290  0.00  0.00     0.039 A 
ATOM      3  C   UNL d   1     -42.487-122.673 -49.827  0.00  0.00     0.103 A 
ATOM      4  N   UNL d   1     -42.310-123.062 -49.124  0.00  0.00    -0.165 NA
ATOM      5  C   UNL d   1     -43.199-122.337 -50.076  0.00  0.00     0.022 C 
ATOM      6  N   UNL d   1     -41.525-123.289 -49.153  0.00  0.00    -0.225 N 
ATOM      7  C   UNL d   1     -41.212-123.044 -49.871  0.00  0.00     0.102 A 
ATOM      8  C   UNL d   1     -41.126-123.695 -48.555  0.00  0.00     0.121 C 
ENDBRANCH   1   2
BRANCH   1   9
ATOM      9  C   UNL d   1     -41.416-122.854 -51.648  0.00  0.00     0.043 C 
BRANCH   9  10
ATOM     10  C   UNL d   1     -41.265-122.541 -52.404  0.00  0.00     0.202 C 
ATOM     11  O   UNL d   1     -41.135-121.735 -52.492  0.00  0.00    -0.286 OA
BRANCH  10  12
ATOM     12  C   UNL d   1     -41.246-123.045 -53.065  0.00  0.00     0.068 A 
ATOM     13  S   UNL d   1     -41.161-123.814 -53.343  0.00  0.00    -0.083 SA
ATOM     14  C   UNL d   1     -41.227-123.797 -54.165  0.00  0.00     0.035 A 
ATOM     15  C   UNL d   1     -41.353-123.015 -54.396  0.00  0.00     0.008 A 
ATOM     16  C   UNL d   1     -41.365-122.547 -53.712  0.00  0.00     0.010 A 
ENDBRANCH  10  12
ENDBRANCH   9  10
ENDBRANCH   1   9
TORSDOF 4
ENDMDL
MODEL 2
REMARK VINA RESULT:      -3.8      1.309      1.728
REMARK  4 active torsions:
REMARK  status: ('A' for Active; 'I' for Inactive)
REMARK    1  A    between atoms: C_6  and  C_2 
REMARK    2  A    between atoms: C_8  and  C_6 
REMARK    3  A    between atoms: C_7  and  C_9 
REMARK    4  A    between atoms: C_9  and  C_8 
ROOT
ATOM      1  C   UNL d   1     -41.166-122.671 -52.235  0.00  0.00     0.006 C 
ENDROOT
BRANCH   1   2
ATOM      2  C   UNL d   1     -41.407-122.703 -51.452  0.00  0.00     0.039 A 
ATOM      3  C   UNL d   1     -41.405-122.140 -50.850  0.00  0.00     0.103 A 
ATOM      4  N   UNL d   1     -41.716-122.490 -50.174  0.00  0.00    -0.165 NA
ATOM      5  C   UNL d   1     -41.127-121.370 -50.963  0.00  0.00     0.022 C 
ATOM      6  N   UNL d   1     -41.909-123.263 -50.356  0.00  0.00    -0.225 N 
ATOM      7  C   UNL d   1     -41.719-123.397 -51.144  0.00  0.00     0.102 A 
ATOM      8  C   UNL d   1     -42.238-123.808 -49.830  0.00  0.00     0.121 C 
ENDBRANCH   1   2
BRANCH   1   9
ATOM      9  C   UNL d   1     -41.716-122.519 -52.832  0.00  0.00     0.043 C 
BRANCH   9  10
ATOM     10  C   UNL d   1     -41.567-122.777 -53.609  0.00  0.00     0.202 C 
ATOM     11  O   UNL d   1     -41.123-123.455 -53.735  0.00  0.00    -0.286 OA
BRANCH  10  12
ATOM     12  C   UNL d   1     -41.870-122.345 -54.253  0.00  0.00     0.068 A 
ATOM     13  S   UNL d   1     -42.344-121.723 -54.503  0.00  0.00    -0.083 SA
ATOM     14  C   UNL d   1     -42.318-121.697 -55.327  0.00  0.00     0.035 A 
ATOM     15  C   UNL d   1     -41.825-122.307 -55.587  0.00  0.00     0.008 A 
ATOM     16  C   UNL d   1     -41.546-122.710 -54.919  0.00  0.00     0.010 A 
ENDBRANCH  10  12
ENDBRANCH   9  10
ENDBRANCH   1   9
TORSDOF 4
ENDMDL
MODEL 3
REMARK VINA RESULT:      -3.7      2.201      4.146
REMARK  4 active torsions:
REMARK  status: ('A' for Active; 'I' for Inactive)
REMARK    1  A    between atoms: C_6  and  C_2 
REMARK    2  A    between atoms: C_8  and  C_6 
REMARK    3  A    between atoms: C_7  and  C_9 
REMARK    4  A    between atoms: C_9  and  C_8 
ROOT
ATOM      1  C   UNL d   1     -42.107-122.529 -50.482  0.00  0.00     0.006 C 
ENDROOT
BRANCH   1   2
ATOM      2  C   UNL d   1     -41.745-122.598 -51.215  0.00  0.00     0.039 A 
ATOM      3  C   UNL d   1     -41.396-122.042 -51.713  0.00  0.00     0.103 A 
ATOM      4  N   UNL d   1     -41.123-122.436 -52.382  0.00  0.00    -0.165 NA
ATOM      5  C   UNL d   1     -41.356-121.239 -51.523  0.00  0.00     0.022 C 
ATOM      6  N   UNL d   1     -41.302-123.228 -52.298  0.00  0.00    -0.225 N 
ATOM      7  C   UNL d   1     -41.685-123.332 -51.579  0.00  0.00     0.102 A 
ATOM      8  C   UNL d   1     -41.123-123.817 -52.848  0.00  0.00     0.121 C 
ENDBRANCH   1   2
BRANCH   1   9
ATOM      9  C   UNL d   1     -41.855-122.998 -49.851  0.00  0.00     0.043 C 
BRANCH   9  10
ATOM     10  C   UNL d   1     -42.265-122.975 -49.127  0.00  0.00     0.202 C 
ATOM     11  O   UNL d   1     -43.033-122.686 -49.103  0.00  0.00    -0.286 OA
BRANCH  10  12
ATOM     12  C   UNL d   1     -41.895-123.245 -48.433  0.00  0.00     0.068 A 
ATOM     13  S   UNL d   1     -41.197-123.491 -48.074  0.00  0.00    -0.083 SA
ATOM     14  C   UNL d   1     -41.364-123.673 -47.287  0.00  0.00     0.035 A 
ATOM     15  C   UNL d   1     -42.168-123.539 -47.159  0.00  0.00     0.008 A 
ATOM     16  C   UNL d   1     -42.498-123.272 -47.871  0.00  0.00     0.010 A 
ENDBRANCH  10  12
ENDBRANCH   9  10
ENDBRANCH   1   9
TORSDOF 4
ENDMDL
MODEL 4
REMARK VINA RESULT:      -3.5      2.152      3.851
REMARK  4 active torsions:
REMARK  status: ('A' for Active; 'I' for Inactive)
REMARK    1  A    between atoms: C_6  and  C_2 
REMARK    2  A    between atoms: C_8  and  C_6 
REMARK    3  A    between atoms: C_7  and  C_9 
REMARK    4  A    between atoms: C_9  and  C_8 
ROOT
ATOM      1  C   UNL d   1     -41.481-122.087 -52.330  0.00  0.00     0.006 C 
ENDROOT
BRANCH   1   2
ATOM      2  C   UNL d   1     -41.569-122.363 -53.097  0.00  0.00     0.039 A 
ATOM      3  C   UNL d   1     -41.995-122.075 -53.742  0.00  0.00     0.103 A 
ATOM      4  N   UNL d   1     -41.876-122.588 -54.374  0.00  0.00    -0.165 NA
ATOM      5  C   UNL d   1     -42.447-121.384 -53.703  0.00  0.00     0.022 C 
ATOM      6  N   UNL d   1     -41.381-123.187 -54.123  0.00  0.00    -0.225 N 
ATOM      7  C   UNL d   1     -41.190-123.051 -53.336  0.00  0.00     0.102 A 
ATOM      8  C   UNL d   1     -41.123-123.817 -54.589  0.00  0.00     0.121 C 
ENDBRANCH   1   2
BRANCH   1   9
ATOM      9  C   UNL d   1     -41.701-122.561 -51.692  0.00  0.00     0.043 C 
BRANCH   9  10
ATOM     10  C   UNL d   1     -41.593-122.287 -50.914  0.00  0.00     0.202 C 
ATOM     11  O   UNL d   1     -41.251-121.551 -50.785  0.00  0.00    -0.286 OA
BRANCH  10  12
ATOM     12  C   UNL d   1     -41.832-122.758 -50.271  0.00  0.00     0.068 A 
ATOM     13  S   UNL d   1     -41.722-123.454 -49.849  0.00  0.00    -0.083 SA
ATOM     14  C   UNL d   1     -42.264-123.464 -49.227  0.00  0.00     0.035 A 
ATOM     15  C   UNL d   1     -42.710-122.771 -49.265  0.00  0.00     0.008 A 
ATOM     16  C   UNL d   1     -42.442-122.332 -49.915  0.00  0.00     0.010 A 
ENDBRANCH  10  12
ENDBRANCH   9  10
ENDBRANCH   1   9
TORSDOF 4
ENDMDL
MODEL 5
REMARK VINA RESULT:      -3.4      1.156      1.599
REMARK  4 active torsions:
REMARK  status: ('A' for Active; 'I' for Inactive)
REMARK    1  A    between atoms: C_6  and  C_2 
REMARK    2  A    between atoms: C_8  and  C_6 
REMARK    3  A    between atoms: C_7  and  C_9 
REMARK    4  A    between atoms: C_9  and  C_8 
ROOT
ATOM      1  C   UNL d   1     -42.344-122.675 -49.627  0.00  0.00     0.006 C 
ENDROOT
BRANCH   1   2
ATOM      2  C   UNL d   1     -42.425-123.070 -48.912  0.00  0.00     0.039 A 
ATOM      3  C   UNL d   1     -43.000-123.590 -48.632  0.00  0.00     0.103 A 
ATOM      4  N   UNL d   1     -42.789-123.812 -47.868  0.00  0.00    -0.165 NA
ATOM      5  C   UNL d   1     -43.654-123.815 -49.083  0.00  0.00     0.022 C 
ATOM      6  N   UNL d   1     -42.091-123.433 -47.679  0.00  0.00    -0.225 N 
ATOM      7  C   UNL d   1     -41.864-122.974 -48.321  0.00  0.00     0.102 A 
ATOM      8  C   UNL d   1     -41.690-123.506 -46.960  0.00  0.00     0.121 C 
ENDBRANCH   1   2
BRANCH   1   9
ATOM      9  C   UNL d   1     -41.787-122.931 -50.180  0.00  0.00     0.043 C 
BRANCH   9  10
ATOM     10  C   UNL d   1     -41.644-122.480 -50.864  0.00  0.00     0.202 C 
ATOM     11  O   UNL d   1     -41.706-121.662 -50.833  0.00  0.00    -0.286 OA
BRANCH  10  12
ATOM     12  C   UNL d   1     -41.440-122.860 -51.575  0.00  0.00     0.068 A 
ATOM     13  S   UNL d   1     -41.206-123.558 -51.941  0.00  0.00    -0.083 SA
ATOM     14  C   UNL d   1     -41.123-123.408 -52.748  0.00  0.00     0.035 A 
ATOM     15  C   UNL d   1     -41.306-122.614 -52.881  0.00  0.00     0.008 A 
ATOM     16  C   UNL d   1     -41.503-122.273 -52.152  0.00  0.00     0.010 A 
ENDBRANCH  10  12
ENDBRANCH   9  10
ENDBRANCH   1   9
TORSDOF 4
ENDMDL
