MODEL 1
REMARK VINA RESULT:      -1.2      0.000      0.000
REMARK  3 active torsions:
REMARK  status: ('A' for Active; 'I' for Inactive)
REMARK    1  A    between atoms: C_6  and  C_1 
REMARK    2  A    between atoms: C_8  and  C_3 
REMARK    3  A    between atoms: C_9  and  C_4 
ROOT
ATOM      1  C   UNL d   1      57.481  -0.675  31.260  0.00  0.00     0.306 A 
ATOM      2  N   UNL d   1      57.504  -0.279  31.977  0.00  0.00    -0.152 NA
ATOM      3  C   UNL d   1      58.044  -0.515  30.680  0.00  0.00     0.114 A 
ATOM      4  C   UNL d   1      58.636   0.043  30.813  0.00  0.00     0.094 A 
ATOM      5  C   UNL d   1      58.090   0.277  32.115  0.00  0.00     0.371 A 
ATOM      6  N   UNL d   1      58.654   0.438  31.535  0.00  0.00    -0.191 NA
ATOM      7  O   UNL d   1      58.118   0.680  32.838  0.00  0.00    -0.242 OA
ATOM      8  O   UNL d   1      57.458  -1.074  30.538  0.00  0.00    -0.266 OA
ENDROOT
BRANCH   4   9
ATOM      9  C   UNL d   1      59.197   0.202  30.235  0.00  0.00     0.018 A 
ATOM     10  C   UNL d   1      59.994   0.045  30.376  0.00  0.00     0.004 A 
ATOM     11  C   UNL d   1      60.561   0.206  29.792  0.00  0.00     0.030 A 
ATOM     12  C   UNL d   1      60.331   0.522  29.073  0.00  0.00     0.140 A 
ATOM     13  C   UNL d   1      59.524   0.682  28.929  0.00  0.00     0.030 A 
ATOM     14  F   UNL d   1      60.892   0.682  28.495  0.00  0.00    -0.204 F 
ATOM     15  C   UNL d   1      58.969   0.519  29.512  0.00  0.00     0.004 A 
ENDBRANCH   4   9
BRANCH   3  16
ATOM     16  C   UNL d   1      58.019  -0.915  29.961  0.00  0.00     0.202 C 
ATOM     17  O   UNL d   1      57.698  -0.552  29.288  0.00  0.00    -0.286 OA
ATOM     18  C   UNL d   1      58.316  -1.687  29.904  0.00  0.00     0.045 C 
ENDBRANCH   3  16
BRANCH   1  19
ATOM     19  C   UNL d   1      56.844  -0.975  31.690  0.00  0.00     0.470 C 
ATOM     20  F   UNL d   1      56.279  -1.264  32.076  0.00  0.00    -0.162 F 
ATOM     21  F   UNL d   1      56.709  -1.788  31.948  0.00  0.00    -0.162 F 
ATOM     22  F   UNL d   1      56.151  -0.574  31.996  0.00  0.00    -0.162 F 
ENDBRANCH   1  19
TORSDOF 3
ENDMDL
MODEL 2
REMARK VINA RESULT:      -0.6      2.622      3.813
REMARK  3 active torsions:
REMARK  status: ('A' for Active; 'I' for Inactive)
REMARK    1  A    between atoms: C_6  and  C_1 
REMARK    2  A    between atoms: C_8  and  C_3 
REMARK    3  A    between atoms: C_9  and  C_4 
ROOT
ATOM      1  C   UNL d   1      55.872   0.196  34.335  0.00  0.00     0.306 A 
ATOM      2  N   UNL d   1      55.081   0.394  34.248  0.00  0.00    -0.152 NA
ATOM      3  C   UNL d   1      56.344   0.078  33.669  0.00  0.00     0.114 A 
ATOM      4  C   UNL d   1      56.029   0.157  32.912  0.00  0.00     0.094 A 
ATOM      5  C   UNL d   1      54.762   0.474  33.497  0.00  0.00     0.371 A 
ATOM      6  N   UNL d   1      55.234   0.356  32.831  0.00  0.00    -0.191 NA
ATOM      7  O   UNL d   1      53.964   0.673  33.405  0.00  0.00    -0.242 OA
ATOM      8  O   UNL d   1      56.668  -0.003  34.421  0.00  0.00    -0.266 OA
ENDROOT
BRANCH   4   9
ATOM      9  C   UNL d   1      56.500   0.040  32.249  0.00  0.00     0.018 A 
ATOM     10  C   UNL d   1      56.864   0.682  31.880  0.00  0.00     0.004 A 
ATOM     11  C   UNL d   1      57.340   0.563  31.210  0.00  0.00     0.030 A 
ATOM     12  C   UNL d   1      57.449  -0.192  30.913  0.00  0.00     0.140 A 
ATOM     13  C   UNL d   1      57.080  -0.842  31.286  0.00  0.00     0.030 A 
ATOM     14  F   UNL d   1      57.919  -0.310  30.251  0.00  0.00    -0.204 F 
ATOM     15  C   UNL d   1      56.611  -0.716  31.948  0.00  0.00     0.004 A 
ENDBRANCH   4   9
BRANCH   3  16
ATOM     16  C   UNL d   1      57.138  -0.120  33.758  0.00  0.00     0.202 C 
ATOM     17  O   UNL d   1      57.393  -0.901  33.644  0.00  0.00    -0.286 OA
ATOM     18  C   UNL d   1      57.691   0.463  33.963  0.00  0.00     0.045 C 
ENDBRANCH   3  16
BRANCH   1  19
ATOM     19  C   UNL d   1      55.585   0.268  35.104  0.00  0.00     0.470 C 
ATOM     20  F   UNL d   1      55.310   0.320  35.792  0.00  0.00    -0.162 F 
ATOM     21  F   UNL d   1      54.860  -0.063  35.437  0.00  0.00    -0.162 F 
ATOM     22  F   UNL d   1      55.917   0.681  35.778  0.00  0.00    -0.162 F 
ENDBRANCH   1  19
TORSDOF 3
ENDMDL
MODEL 3
REMARK VINA RESULT:      -0.5      1.748      2.163
REMARK  3 active torsions:
REMARK  status: ('A' for Active; 'I' for Inactive)
REMARK    1  A    between atoms: C_6  and  C_1 
REMARK    2  A    between atoms: C_8  and  C_3 
REMARK    3  A    between atoms: C_9  and  C_4 
ROOT
ATOM      1  C   UNL d   1      56.947  -0.029  32.083  0.00  0.00     0.306 A 
ATOM      2  N   UNL d   1      56.467  -0.608  32.410  0.00  0.00    -0.152 NA
ATOM      3  C   UNL d   1      57.427  -0.206  31.436  0.00  0.00     0.114 A 
ATOM      4  C   UNL d   1      57.432  -0.963  31.112  0.00  0.00     0.094 A 
ATOM      5  C   UNL d   1      56.467  -1.363  32.092  0.00  0.00     0.371 A 
ATOM      6  N   UNL d   1      56.948  -1.540  31.445  0.00  0.00    -0.191 NA
ATOM      7  O   UNL d   1      55.985  -1.951  32.418  0.00  0.00    -0.242 OA
ATOM      8  O   UNL d   1      57.429   0.553  31.753  0.00  0.00    -0.266 OA
ENDROOT
BRANCH   4   9
ATOM      9  C   UNL d   1      57.910  -1.139  30.468  0.00  0.00     0.018 A 
ATOM     10  C   UNL d   1      58.667  -1.446  30.585  0.00  0.00     0.004 A 
ATOM     11  C   UNL d   1      59.150  -1.624  29.934  0.00  0.00     0.030 A 
ATOM     12  C   UNL d   1      58.877  -1.495  29.173  0.00  0.00     0.140 A 
ATOM     13  C   UNL d   1      58.111  -1.184  29.054  0.00  0.00     0.030 A 
ATOM     14  F   UNL d   1      59.355  -1.671  28.529  0.00  0.00    -0.204 F 
ATOM     15  C   UNL d   1      57.639  -1.011  29.703  0.00  0.00     0.004 A 
ENDBRANCH   4   9
BRANCH   3  16
ATOM     16  C   UNL d   1      57.908   0.377  31.110  0.00  0.00     0.202 C 
ATOM     17  O   UNL d   1      57.748   0.682  30.355  0.00  0.00    -0.286 OA
ATOM     18  C   UNL d   1      58.558   0.665  31.535  0.00  0.00     0.045 C 
ENDBRANCH   3  16
BRANCH   1  19
ATOM     19  C   UNL d   1      56.556   0.345  32.706  0.00  0.00     0.470 C 
ATOM     20  F   UNL d   1      56.222   0.680  33.278  0.00  0.00    -0.162 F 
ATOM     21  F   UNL d   1      56.863   0.538  33.489  0.00  0.00    -0.162 F 
ATOM     22  F   UNL d   1      55.753   0.641  32.751  0.00  0.00    -0.162 F 
ENDBRANCH   1  19
TORSDOF 3
ENDMDL
