MODEL 1
REMARK VINA RESULT:      -0.3      0.000      0.000
REMARK  7 active torsions:
REMARK  status: ('A' for Active; 'I' for Inactive)
REMARK    1  A    between atoms: N_6  and  C_1 
REMARK    2  A    between atoms: N_8  and  C_2 
REMARK    3  A    between atoms: N_10  and  C_7 
REMARK    4  A    between atoms: C_13  and  N_8 
REMARK    5  A    between atoms: C_14  and  N_10 
REMARK    6  A    between atoms: C_15  and  C_13 
REMARK    7  A    between atoms: C_16  and  C_14 
ROOT
ATOM      1  C   UNL d   1     -41.424-121.133 -51.897  0.00  0.00     0.201 A 
ATOM      2  C   UNL d   1     -41.604-121.859 -52.254  0.00  0.00     0.206 A 
ATOM      3  N   UNL d   1     -41.797-122.506 -51.779  0.00  0.00    -0.038 NA
ATOM      4  N   UNL d   1     -41.631-121.710 -50.607  0.00  0.00    -0.036 NA
ATOM      5  C   UNL d   1     -41.437-121.058 -51.076  0.00  0.00     0.227 A 
ATOM      6  C   UNL d   1     -41.810-122.432 -50.957  0.00  0.00     0.753 A 
ATOM      7  N   UNL d   1     -41.253-120.318 -50.727  0.00  0.00    -0.125 N 
ENDROOT
BRANCH   2   8
ATOM      8  N   UNL d   1     -41.590-121.936 -53.095  0.00  0.00    -0.223 NA
BRANCH   8   9
ATOM      9  C   UNL d   1     -42.095-122.467 -53.467  0.00  0.00     0.101 C 
BRANCH   9  10
ATOM     10  C   UNL d   1     -42.093-122.530 -54.290  0.00  0.00     0.019 A 
ATOM     11  C   UNL d   1     -41.611-123.088 -54.658  0.00  0.00     0.002 A 
ATOM     12  C   UNL d   1     -41.609-123.151 -55.485  0.00  0.00     0.000 A 
ATOM     13  C   UNL d   1     -42.090-122.655 -55.936  0.00  0.00     0.000 A 
ATOM     14  C   UNL d   1     -42.570-122.099 -55.567  0.00  0.00     0.000 A 
ATOM     15  C   UNL d   1     -42.572-122.036 -54.741  0.00  0.00     0.002 A 
ENDBRANCH   9  10
ENDBRANCH   8   9
ENDBRANCH   2   8
BRANCH   1  16
ATOM     16  N   UNL d   1     -41.226-120.469 -52.390  0.00  0.00    -0.107 N 
ATOM     17  O   UNL d   1     -41.137-120.586 -53.200  0.00  0.00    -0.531 OA
ATOM     18  O   UNL d   1     -41.123-119.715 -52.063  0.00  0.00    -0.531 OA
ENDBRANCH   1  16
BRANCH   6  19
ATOM     19  N   UNL d   1     -42.004-123.082 -50.488  0.00  0.00    -0.058 NA
BRANCH  19  20
ATOM     20  C   UNL d   1     -41.548-123.260 -49.819  0.00  0.00     0.118 C 
BRANCH  20  21
ATOM     21  C   UNL d   1     -41.920-123.444 -49.106  0.00  0.00     0.020 A 
ATOM     22  C   UNL d   1     -42.717-123.628 -49.095  0.00  0.00     0.002 A 
ATOM     23  C   UNL d   1     -43.088-123.812 -48.382  0.00  0.00     0.000 A 
ATOM     24  C   UNL d   1     -42.654-123.811 -47.681  0.00  0.00     0.000 A 
ATOM     25  C   UNL d   1     -41.851-123.625 -47.695  0.00  0.00     0.000 A 
ATOM     26  C   UNL d   1     -41.485-123.443 -48.405  0.00  0.00     0.002 A 
ENDBRANCH  20  21
ENDBRANCH  19  20
ENDBRANCH   6  19
TORSDOF 7
ENDMDL
