MODEL 1
REMARK VINA RESULT:       4.3      0.000      0.000
REMARK  1 active torsions:
REMARK  status: ('A' for Active; 'I' for Inactive)
REMARK    1  A    between atoms: C_6  and  C_2 
ROOT
ATOM      1  C   UNL d   1     -51.715  24.747  33.339  0.00  0.00     0.019 A 
ATOM      2  C   UNL d   1     -51.250  24.077  33.380  0.00  0.00     0.001 A 
ATOM      3  C   UNL d   1     -52.529  24.700  33.306  0.00  0.00     0.001 A 
ATOM      4  C   UNL d   1     -52.895  23.962  33.314  0.00  0.00     0.000 A 
ATOM      5  C   UNL d   1     -51.612  23.333  33.389  0.00  0.00     0.000 A 
ATOM      6  C   UNL d   1     -52.431  23.277  33.356  0.00  0.00     0.000 A 
ENDROOT
BRANCH   1   7
ATOM      7  C   UNL d   1     -51.349  25.494  33.331  0.00  0.00     0.102 A 
ATOM      8  N   UNL d   1     -51.736  26.221  33.345  0.00  0.00    -0.222 NA
ATOM      9  C   UNL d   1     -51.161  26.815  33.330  0.00  0.00     0.199 A 
ATOM     10  N   UNL d   1     -50.422  26.455  33.306  0.00  0.00    -0.221 NA
ATOM     11  C   UNL d   1     -50.534  25.636  33.306  0.00  0.00     0.120 A 
ENDBRANCH   1   7
TORSDOF 1
ENDMDL
