MODEL 1
REMARK VINA RESULT:      -8.4      0.000      0.000
REMARK  2 active torsions:
REMARK  status: ('A' for Active; 'I' for Inactive)
REMARK    1  A    between atoms: N_2  and  N_1 
REMARK    2  A    between atoms: N_8  and  C_10 
ROOT
ATOM      1  N   UNL d   1      52.269  33.631  53.428  0.00  0.00    -0.171 N 
ATOM      2  C   UNL d   1      52.685  32.929  53.471  0.00  0.00     0.283 A 
ATOM      3  C   UNL d   1      53.304  33.036  54.024  0.00  0.00     0.085 A 
ATOM      4  C   UNL d   1      52.611  34.180  53.940  0.00  0.00     0.282 A 
ATOM      5  C   UNL d   1      53.258  33.818  54.317  0.00  0.00     0.064 A 
ATOM      6  C   UNL d   1      53.895  32.533  54.294  0.00  0.00     0.131 A 
ATOM      7  O   UNL d   1      52.502  32.251  53.035  0.00  0.00    -0.265 OA
ATOM      8  O   UNL d   1      52.342  34.971  54.055  0.00  0.00    -0.265 OA
ATOM      9  C   UNL d   1      53.804  34.082  54.876  0.00  0.00     0.005 A 
ATOM     10  C   UNL d   1      54.438  32.794  54.849  0.00  0.00     0.024 A 
ATOM     11  C   UNL d   1      54.393  33.558  55.136  0.00  0.00     0.002 A 
ENDROOT
BRANCH   1  12
ATOM     12  N   UNL d   1      51.612  33.854  52.985  0.00  0.00    -0.189 N 
ATOM     13  C   UNL d   1      51.516  34.219  52.261  0.00  0.00     0.169 A 
ATOM     14  S   UNL d   1      50.709  34.290  52.121  0.00  0.00    -0.051 SA
ATOM     15  S   UNL d   1      52.141  34.480  51.738  0.00  0.00    -0.050 SA
ATOM     16  C   UNL d   1      50.304  33.970  52.761  0.00  0.00     0.100 A 
ATOM     17  C   UNL d   1      50.852  33.700  53.295  0.00  0.00     0.287 A 
ATOM     18  O   UNL d   1      50.678  33.341  54.011  0.00  0.00    -0.265 OA
ENDBRANCH   1  12
BRANCH   6  19
ATOM     19  N   UNL d   1      53.942  31.743  53.998  0.00  0.00    -0.114 N 
ATOM     20  O   UNL d   1      53.547  31.136  54.389  0.00  0.00    -0.532 OA
ATOM     21  O   UNL d   1      54.379  31.585  53.324  0.00  0.00    -0.532 OA
ENDBRANCH   6  19
TORSDOF 2
ENDMDL
MODEL 2
REMARK VINA RESULT:      -7.9      1.209      2.090
REMARK  2 active torsions:
REMARK  status: ('A' for Active; 'I' for Inactive)
REMARK    1  A    between atoms: N_2  and  N_1 
REMARK    2  A    between atoms: N_8  and  C_10 
ROOT
ATOM      1  N   UNL d   1      52.288  33.658  53.210  0.00  0.00    -0.171 N 
ATOM      2  C   UNL d   1      52.718  34.055  53.780  0.00  0.00     0.283 A 
ATOM      3  C   UNL d   1      53.350  33.559  54.011  0.00  0.00     0.085 A 
ATOM      4  C   UNL d   1      52.635  32.921  53.076  0.00  0.00     0.282 A 
ATOM      5  C   UNL d   1      53.298  32.850  53.571  0.00  0.00     0.064 A 
ATOM      6  C   UNL d   1      53.958  33.657  54.557  0.00  0.00     0.131 A 
ATOM      7  O   UNL d   1      52.535  34.812  54.059  0.00  0.00    -0.265 OA
ATOM      8  O   UNL d   1      52.355  32.345  52.526  0.00  0.00    -0.265 OA
ATOM      9  C   UNL d   1      53.855  32.252  53.684  0.00  0.00     0.005 A 
ATOM     10  C   UNL d   1      54.512  33.065  54.670  0.00  0.00     0.024 A 
ATOM     11  C   UNL d   1      54.461  32.372  54.240  0.00  0.00     0.002 A 
ENDROOT
BRANCH   1  12
ATOM     12  N   UNL d   1      51.615  33.865  52.785  0.00  0.00    -0.189 N 
ATOM     13  C   UNL d   1      50.815  33.749  52.899  0.00  0.00     0.169 A 
ATOM     14  S   UNL d   1      50.419  34.094  52.267  0.00  0.00    -0.051 SA
ATOM     15  S   UNL d   1      50.452  33.341  53.557  0.00  0.00    -0.050 SA
ATOM     16  C   UNL d   1      50.974  34.425  51.760  0.00  0.00     0.100 A 
ATOM     17  C   UNL d   1      51.711  34.289  52.070  0.00  0.00     0.287 A 
ATOM     18  O   UNL d   1      52.419  34.529  51.735  0.00  0.00    -0.265 OA
ENDBRANCH   1  12
BRANCH   6  19
ATOM     19  N   UNL d   1      54.010  34.374  55.002  0.00  0.00    -0.114 N 
ATOM     20  O   UNL d   1      54.497  34.983  54.740  0.00  0.00    -0.532 OA
ATOM     21  O   UNL d   1      53.577  34.459  55.692  0.00  0.00    -0.532 OA
ENDBRANCH   6  19
TORSDOF 2
ENDMDL
MODEL 3
REMARK VINA RESULT:      -7.5      1.856      3.120
REMARK  2 active torsions:
REMARK  status: ('A' for Active; 'I' for Inactive)
REMARK    1  A    between atoms: N_2  and  N_1 
REMARK    2  A    between atoms: N_8  and  C_10 
ROOT
ATOM      1  N   UNL d   1      53.110  32.408  53.524  0.00  0.00    -0.171 N 
ATOM      2  C   UNL d   1      53.352  32.901  54.129  0.00  0.00     0.283 A 
ATOM      3  C   UNL d   1      53.128  33.680  53.924  0.00  0.00     0.085 A 
ATOM      4  C   UNL d   1      52.738  32.858  52.941  0.00  0.00     0.282 A 
ATOM      5  C   UNL d   1      52.744  33.653  53.182  0.00  0.00     0.064 A 
ATOM      6  C   UNL d   1      53.221  34.401  54.309  0.00  0.00     0.131 A 
ATOM      7  O   UNL d   1      53.747  32.646  54.809  0.00  0.00    -0.265 OA
ATOM      8  O   UNL d   1      52.410  32.552  52.226  0.00  0.00    -0.265 OA
ATOM      9  C   UNL d   1      52.460  34.347  52.838  0.00  0.00     0.005 A 
ATOM     10  C   UNL d   1      52.940  35.091  53.970  0.00  0.00     0.024 A 
ATOM     11  C   UNL d   1      52.564  35.065  53.244  0.00  0.00     0.002 A 
ENDROOT
BRANCH   1  12
ATOM     12  N   UNL d   1      53.177  31.595  53.418  0.00  0.00    -0.189 N 
ATOM     13  C   UNL d   1      52.648  30.974  53.456  0.00  0.00     0.169 A 
ATOM     14  S   UNL d   1      53.060  30.282  53.292  0.00  0.00    -0.051 SA
ATOM     15  S   UNL d   1      51.813  31.030  53.634  0.00  0.00    -0.050 SA
ATOM     16  C   UNL d   1      53.847  30.474  53.152  0.00  0.00     0.100 A 
ATOM     17  C   UNL d   1      53.927  31.278  53.227  0.00  0.00     0.287 A 
ATOM     18  O   UNL d   1      54.625  31.697  53.131  0.00  0.00    -0.265 OA
ENDBRANCH   1  12
BRANCH   6  19
ATOM     19  N   UNL d   1      53.609  34.428  55.059  0.00  0.00    -0.114 N 
ATOM     20  O   UNL d   1      54.431  34.432  55.094  0.00  0.00    -0.532 OA
ATOM     21  O   UNL d   1      53.166  34.451  55.748  0.00  0.00    -0.532 OA
ENDBRANCH   6  19
TORSDOF 2
ENDMDL
MODEL 4
REMARK VINA RESULT:      -7.4      1.758      3.137
REMARK  2 active torsions:
REMARK  status: ('A' for Active; 'I' for Inactive)
REMARK    1  A    between atoms: N_2  and  N_1 
REMARK    2  A    between atoms: N_8  and  C_10 
ROOT
ATOM      1  N   UNL d   1      53.123  32.350  53.592  0.00  0.00    -0.171 N 
ATOM      2  C   UNL d   1      52.771  32.945  53.157  0.00  0.00     0.283 A 
ATOM      3  C   UNL d   1      52.820  33.649  53.607  0.00  0.00     0.085 A 
ATOM      4  C   UNL d   1      53.394  32.662  54.307  0.00  0.00     0.282 A 
ATOM      5  C   UNL d   1      53.209  33.472  54.325  0.00  0.00     0.064 A 
ATOM      6  C   UNL d   1      52.565  34.417  53.459  0.00  0.00     0.131 A 
ATOM      7  O   UNL d   1      52.435  32.840  52.409  0.00  0.00    -0.265 OA
ATOM      8  O   UNL d   1      53.790  32.223  54.909  0.00  0.00    -0.265 OA
ATOM      9  C   UNL d   1      53.337  34.065  54.883  0.00  0.00     0.005 A 
ATOM     10  C   UNL d   1      52.691  35.008  54.012  0.00  0.00     0.024 A 
ATOM     11  C   UNL d   1      53.072  34.834  54.715  0.00  0.00     0.002 A 
ENDROOT
BRANCH   1  12
ATOM     12  N   UNL d   1      53.240  31.550  53.437  0.00  0.00    -0.189 N 
ATOM     13  C   UNL d   1      52.754  30.894  53.454  0.00  0.00     0.169 A 
ATOM     14  S   UNL d   1      53.205  30.242  53.239  0.00  0.00    -0.051 SA
ATOM     15  S   UNL d   1      51.923  30.885  53.660  0.00  0.00    -0.050 SA
ATOM     16  C   UNL d   1      53.972  30.494  53.087  0.00  0.00     0.100 A 
ATOM     17  C   UNL d   1      54.002  31.296  53.206  0.00  0.00     0.287 A 
ATOM     18  O   UNL d   1      54.667  31.765  53.114  0.00  0.00    -0.265 OA
ENDBRANCH   1  12
BRANCH   6  19
ATOM     19  N   UNL d   1      52.172  34.596  52.733  0.00  0.00    -0.114 N 
ATOM     20  O   UNL d   1      51.353  34.533  52.685  0.00  0.00    -0.532 OA
ATOM     21  O   UNL d   1      52.607  34.832  52.080  0.00  0.00    -0.532 OA
ENDBRANCH   6  19
TORSDOF 2
ENDMDL
MODEL 5
REMARK VINA RESULT:      -6.7      1.750      3.108
REMARK  2 active torsions:
REMARK  status: ('A' for Active; 'I' for Inactive)
REMARK    1  A    between atoms: N_2  and  N_1 
REMARK    2  A    between atoms: N_8  and  C_10 
ROOT
ATOM      1  N   UNL d   1      53.530  33.627  54.011  0.00  0.00    -0.171 N 
ATOM      2  C   UNL d   1      53.095  32.997  53.724  0.00  0.00     0.283 A 
ATOM      3  C   UNL d   1      52.476  33.311  53.257  0.00  0.00     0.085 A 
ATOM      4  C   UNL d   1      53.200  34.331  53.736  0.00  0.00     0.282 A 
ATOM      5  C   UNL d   1      52.541  34.144  53.264  0.00  0.00     0.064 A 
ATOM      6  C   UNL d   1      51.870  32.953  52.832  0.00  0.00     0.131 A 
ATOM      7  O   UNL d   1      53.262  32.203  53.884  0.00  0.00    -0.265 OA
ATOM      8  O   UNL d   1      53.489  35.104  53.910  0.00  0.00    -0.265 OA
ATOM      9  C   UNL d   1      51.999  34.605  52.847  0.00  0.00     0.005 A 
ATOM     10  C   UNL d   1      51.330  33.408  52.417  0.00  0.00     0.024 A 
ATOM     11  C   UNL d   1      51.394  34.224  52.424  0.00  0.00     0.002 A 
ENDROOT
BRANCH   1  12
ATOM     12  N   UNL d   1      54.195  33.661  54.494  0.00  0.00    -0.189 N 
ATOM     13  C   UNL d   1      54.996  33.579  54.361  0.00  0.00     0.169 A 
ATOM     14  S   UNL d   1      55.382  33.674  55.080  0.00  0.00    -0.051 SA
ATOM     15  S   UNL d   1      55.371  33.424  53.607  0.00  0.00    -0.050 SA
ATOM     16  C   UNL d   1      54.818  33.814  55.662  0.00  0.00     0.100 A 
ATOM     17  C   UNL d   1      54.087  33.807  55.310  0.00  0.00     0.287 A 
ATOM     18  O   UNL d   1      53.374  33.925  55.696  0.00  0.00    -0.265 OA
ENDBRANCH   1  12
BRANCH   6  19
ATOM     19  N   UNL d   1      51.804  32.111  52.825  0.00  0.00    -0.114 N 
ATOM     20  O   UNL d   1      52.280  31.667  52.321  0.00  0.00    -0.532 OA
ATOM     21  O   UNL d   1      51.266  31.738  53.318  0.00  0.00    -0.532 OA
ENDBRANCH   6  19
TORSDOF 2
ENDMDL
