MODEL 1
REMARK VINA RESULT:      -7.5      0.000      0.000
REMARK  2 active torsions:
REMARK  status: ('A' for Active; 'I' for Inactive)
REMARK    1  A    between atoms: C_6  and  C_2 
REMARK    2  A    between atoms: C_7  and  C_6 
ROOT
ATOM      1  N   UNL d   1     -46.248  12.797  23.436  0.00  0.00    -0.193 NA
ATOM      2  C   UNL d   1     -47.511  12.473  23.157  0.00  0.00     0.153 A 
ATOM      3  N   UNL d   1     -47.408  13.268  22.973  0.00  0.00    -0.306 N 
ATOM      4  C   UNL d   1     -46.628  13.468  23.146  0.00  0.00     0.147 A 
ATOM      5  C   UNL d   1     -46.797  12.175  23.444  0.00  0.00     0.276 A 
ATOM      6  C   UNL d   1     -47.924  13.842  22.669  0.00  0.00     0.077 A 
ATOM      7  C   UNL d   1     -46.354  14.246  23.016  0.00  0.00     0.037 A 
ATOM      8  O   UNL d   1     -46.653  11.402  23.694  0.00  0.00    -0.268 OA
ATOM      9  C   UNL d   1     -47.657  14.608  22.541  0.00  0.00     0.019 A 
ATOM     10  C   UNL d   1     -46.868  14.811  22.715  0.00  0.00     0.005 A 
ATOM     11  C   UNL d   1     -48.260  12.685  22.883  0.00  0.00     0.033 C 
ENDROOT
BRANCH   2  12
ATOM     12  C   UNL d   1     -47.589  11.670  23.350  0.00  0.00     0.128 C 
BRANCH  12  13
ATOM     13  C   UNL d   1     -48.282  11.270  23.151  0.00  0.00     0.188 C 
ATOM     14  O   UNL d   1     -48.893  11.195  23.695  0.00  0.00    -0.647 OA
ATOM     15  O   UNL d   1     -48.361  10.942  22.394  0.00  0.00    -0.647 OA
ENDBRANCH  12  13
ENDBRANCH   2  12
TORSDOF 2
ENDMDL
MODEL 2
REMARK VINA RESULT:      -7.4      1.363      2.455
REMARK  2 active torsions:
REMARK  status: ('A' for Active; 'I' for Inactive)
REMARK    1  A    between atoms: C_6  and  C_2 
REMARK    2  A    between atoms: C_7  and  C_6 
ROOT
ATOM      1  N   UNL d   1     -48.319  11.519  23.053  0.00  0.00    -0.193 NA
ATOM      2  C   UNL d   1     -47.539  12.568  22.789  0.00  0.00     0.153 A 
ATOM      3  N   UNL d   1     -48.244  12.667  22.376  0.00  0.00    -0.306 N 
ATOM      4  C   UNL d   1     -48.726  12.019  22.539  0.00  0.00     0.147 A 
ATOM      5  C   UNL d   1     -47.579  11.859  23.210  0.00  0.00     0.276 A 
ATOM      6  C   UNL d   1     -48.515  13.265  21.869  0.00  0.00     0.077 A 
ATOM      7  C   UNL d   1     -49.485  11.961  22.197  0.00  0.00     0.037 A 
ATOM      8  O   UNL d   1     -46.992  11.545  23.697  0.00  0.00    -0.268 OA
ATOM      9  C   UNL d   1     -49.261  13.211  21.531  0.00  0.00     0.019 A 
ATOM     10  C   UNL d   1     -49.748  12.556  21.696  0.00  0.00     0.005 A 
ATOM     11  C   UNL d   1     -47.414  13.287  22.403  0.00  0.00     0.033 C 
ENDROOT
BRANCH   2  12
ATOM     12  C   UNL d   1     -46.838  12.445  23.214  0.00  0.00     0.128 C 
BRANCH  12  13
ATOM     13  C   UNL d   1     -46.227  12.995  23.158  0.00  0.00     0.188 C 
ATOM     14  O   UNL d   1     -45.654  12.927  22.572  0.00  0.00    -0.647 OA
ATOM     15  O   UNL d   1     -46.192  13.623  23.698  0.00  0.00    -0.647 OA
ENDBRANCH  12  13
ENDBRANCH   2  12
TORSDOF 2
ENDMDL
MODEL 3
REMARK VINA RESULT:      -7.3      1.094      1.544
REMARK  2 active torsions:
REMARK  status: ('A' for Active; 'I' for Inactive)
REMARK    1  A    between atoms: C_6  and  C_2 
REMARK    2  A    between atoms: C_7  and  C_6 
ROOT
ATOM      1  N   UNL d   1     -47.443  11.708  23.609  0.00  0.00    -0.193 NA
ATOM      2  C   UNL d   1     -48.542  12.359  23.228  0.00  0.00     0.153 A 
ATOM      3  N   UNL d   1     -47.903  12.868  23.134  0.00  0.00    -0.306 N 
ATOM      4  C   UNL d   1     -47.223  12.465  23.369  0.00  0.00     0.147 A 
ATOM      5  C   UNL d   1     -48.265  11.640  23.522  0.00  0.00     0.276 A 
ATOM      6  C   UNL d   1     -47.845  13.650  22.863  0.00  0.00     0.077 A 
ATOM      7  C   UNL d   1     -46.478  12.840  23.337  0.00  0.00     0.037 A 
ATOM      8  O   UNL d   1     -48.720  10.974  23.697  0.00  0.00    -0.268 OA
ATOM      9  C   UNL d   1     -47.114  14.022  22.831  0.00  0.00     0.019 A 
ATOM     10  C   UNL d   1     -46.427  13.615  23.069  0.00  0.00     0.005 A 
ATOM     11  C   UNL d   1     -48.905  13.041  22.936  0.00  0.00     0.033 C 
ENDROOT
BRANCH   2  12
ATOM     12  C   UNL d   1     -49.171  11.828  23.332  0.00  0.00     0.128 C 
BRANCH  12  13
ATOM     13  C   UNL d   1     -49.935  12.057  23.122  0.00  0.00     0.188 C 
ATOM     14  O   UNL d   1     -50.204  11.965  22.351  0.00  0.00    -0.647 OA
ATOM     15  O   UNL d   1     -50.435  12.385  23.697  0.00  0.00    -0.647 OA
ENDBRANCH  12  13
ENDBRANCH   2  12
TORSDOF 2
ENDMDL
MODEL 4
REMARK VINA RESULT:      -7.3      1.667      2.862
REMARK  2 active torsions:
REMARK  status: ('A' for Active; 'I' for Inactive)
REMARK    1  A    between atoms: C_6  and  C_2 
REMARK    2  A    between atoms: C_7  and  C_6 
ROOT
ATOM      1  N   UNL d   1     -48.751  13.756  22.886  0.00  0.00    -0.193 NA
ATOM      2  C   UNL d   1     -47.564  13.182  23.083  0.00  0.00     0.153 A 
ATOM      3  N   UNL d   1     -48.145  12.631  23.271  0.00  0.00    -0.306 N 
ATOM      4  C   UNL d   1     -48.878  12.986  23.150  0.00  0.00     0.147 A 
ATOM      5  C   UNL d   1     -47.932  13.881  22.843  0.00  0.00     0.276 A 
ATOM      6  C   UNL d   1     -48.106  11.847  23.539  0.00  0.00     0.077 A 
ATOM      7  C   UNL d   1     -49.582  12.561  23.295  0.00  0.00     0.037 A 
ATOM      8  O   UNL d   1     -47.556  14.576  22.605  0.00  0.00    -0.268 OA
ATOM      9  C   UNL d   1     -48.796  11.427  23.683  0.00  0.00     0.019 A 
ATOM     10  C   UNL d   1     -49.537  11.785  23.560  0.00  0.00     0.005 A 
ATOM     11  C   UNL d   1     -47.115  12.527  23.307  0.00  0.00     0.033 C 
ENDROOT
BRANCH   2  12
ATOM     12  C   UNL d   1     -46.997  13.755  22.887  0.00  0.00     0.128 C 
BRANCH  12  13
ATOM     13  C   UNL d   1     -46.196  13.580  22.973  0.00  0.00     0.188 C 
ATOM     14  O   UNL d   1     -45.822  13.676  23.698  0.00  0.00    -0.647 OA
ATOM     15  O   UNL d   1     -45.766  13.303  22.320  0.00  0.00    -0.647 OA
ENDBRANCH  12  13
ENDBRANCH   2  12
TORSDOF 2
ENDMDL
