MODEL 1
REMARK VINA RESULT:      -6.9      0.000      0.000
REMARK  5 active torsions:
REMARK  status: ('A' for Active; 'I' for Inactive)
REMARK    1  A    between atoms: N_3  and  C_1 
REMARK    2  A    between atoms: C_12  and  N_2 
REMARK       I    between atoms: C_6  and  N_3 
REMARK    3  A    between atoms: C_8  and  C_6 
REMARK    4  A    between atoms: C_16  and  C_12 
REMARK    5  A    between atoms: O_22  and  C_16 
ROOT
ATOM      1  C   UNL d   1     -47.170  11.898  23.336  0.00  0.00     0.183 A 
ATOM      2  N   UNL d   1     -46.525  12.324  23.060  0.00  0.00    -0.280 N 
ATOM      3  S   UNL d   1     -46.898  11.165  23.599  0.00  0.00    -0.048 SA
ATOM      4  C   UNL d   1     -46.078  11.139  23.484  0.00  0.00     0.051 A 
ATOM      5  C   UNL d   1     -45.846  11.859  23.149  0.00  0.00     0.072 A 
ATOM      6  C   UNL d   1     -45.515  10.556  23.640  0.00  0.00     0.038 A 
ATOM      7  C   UNL d   1     -45.052  11.995  22.971  0.00  0.00     0.020 A 
ATOM      8  C   UNL d   1     -44.722  10.692  23.462  0.00  0.00     0.141 A 
ATOM      9  C   UNL d   1     -44.490  11.412  23.128  0.00  0.00     0.031 A 
ATOM     10  F   UNL d   1     -44.167  10.111  23.619  0.00  0.00    -0.204 F 
ENDROOT
BRANCH   1  11
ATOM     11  N   UNL d   1     -47.953  12.164  23.346  0.00  0.00    -0.183 NA
ATOM     12  C   UNL d   1     -48.561  11.645  23.140  0.00  0.00     0.287 C 
ATOM     13  O   UNL d   1     -48.384  10.868  22.927  0.00  0.00    -0.265 OA
BRANCH  12  14
ATOM     14  C   UNL d   1     -49.334  11.900  23.147  0.00  0.00     0.088 A 
ATOM     15  S   UNL d   1     -49.694  12.400  22.590  0.00  0.00    -0.071 SA
ATOM     16  C   UNL d   1     -50.469  12.510  22.810  0.00  0.00     0.087 A 
ATOM     17 CL   UNL d   1     -51.036  12.961  22.427  0.00  0.00    -0.075 Cl
ATOM     18  C   UNL d   1     -50.593  12.085  23.494  0.00  0.00     0.019 A 
ATOM     19  C   UNL d   1     -49.896  11.713  23.698  0.00  0.00     0.013 A 
ENDBRANCH  12  14
ENDBRANCH   1  11
BRANCH   2  20
ATOM     20  C   UNL d   1     -46.185  12.996  22.729  0.00  0.00     0.151 C 
BRANCH  20  21
ATOM     21  C   UNL d   1     -46.465  13.735  22.936  0.00  0.00     0.314 C 
ATOM     22  O   UNL d   1     -46.326  14.022  23.689  0.00  0.00    -0.257 OA
BRANCH  21  23
ATOM     23  O   UNL d   1     -46.878  14.183  22.398  0.00  0.00    -0.295 OA
ATOM     24  C   UNL d   1     -46.875  14.995  22.454  0.00  0.00     0.185 C 
ENDBRANCH  21  23
ENDBRANCH  20  21
ENDBRANCH   2  20
TORSDOF 5
ENDMDL
MODEL 2
REMARK VINA RESULT:      -6.8      2.784      4.894
REMARK  5 active torsions:
REMARK  status: ('A' for Active; 'I' for Inactive)
REMARK    1  A    between atoms: N_3  and  C_1 
REMARK    2  A    between atoms: C_12  and  N_2 
REMARK       I    between atoms: C_6  and  N_3 
REMARK    3  A    between atoms: C_8  and  C_6 
REMARK    4  A    between atoms: C_16  and  C_12 
REMARK    5  A    between atoms: O_22  and  C_16 
ROOT
ATOM      1  C   UNL d   1     -48.280  13.620  22.823  0.00  0.00     0.183 A 
ATOM      2  N   UNL d   1     -49.001  13.253  22.969  0.00  0.00    -0.280 N 
ATOM      3  S   UNL d   1     -48.406  14.435  22.812  0.00  0.00    -0.048 SA
ATOM      4  C   UNL d   1     -49.212  14.572  22.952  0.00  0.00     0.051 A 
ATOM      5  C   UNL d   1     -49.581  13.839  23.050  0.00  0.00     0.072 A 
ATOM      6  C   UNL d   1     -49.654  15.267  23.004  0.00  0.00     0.038 A 
ATOM      7  C   UNL d   1     -50.391  13.800  23.198  0.00  0.00     0.020 A 
ATOM      8  C   UNL d   1     -50.464  15.229  23.153  0.00  0.00     0.141 A 
ATOM      9  C   UNL d   1     -50.833  14.495  23.250  0.00  0.00     0.031 A 
ATOM     10  F   UNL d   1     -50.899  15.919  23.203  0.00  0.00    -0.204 F 
ENDROOT
BRANCH   1  11
ATOM     11  N   UNL d   1     -47.558  13.233  22.708  0.00  0.00    -0.183 NA
ATOM     12  C   UNL d   1     -46.868  13.677  22.624  0.00  0.00     0.287 C 
ATOM     13  O   UNL d   1     -46.903  14.500  22.655  0.00  0.00    -0.265 OA
BRANCH  12  14
ATOM     14  C   UNL d   1     -46.154  13.303  22.510  0.00  0.00     0.088 A 
ATOM     15  S   UNL d   1     -45.602  13.465  21.912  0.00  0.00    -0.071 SA
ATOM     16  C   UNL d   1     -44.969  12.962  22.006  0.00  0.00     0.087 A 
ATOM     17 CL   UNL d   1     -44.293  12.921  21.544  0.00  0.00    -0.075 Cl
ATOM     18  C   UNL d   1     -45.124  12.491  22.653  0.00  0.00     0.019 A 
ATOM     19  C   UNL d   1     -45.850  12.702  22.959  0.00  0.00     0.013 A 
ENDBRANCH  12  14
ENDBRANCH   1  11
BRANCH   2  20
ATOM     20  C   UNL d   1     -49.466  12.585  23.081  0.00  0.00     0.151 C 
BRANCH  20  21
ATOM     21  C   UNL d   1     -49.130  11.842  23.022  0.00  0.00     0.314 C 
ATOM     22  O   UNL d   1     -49.091  11.475  22.292  0.00  0.00    -0.257 OA
BRANCH  21  23
ATOM     23  O   UNL d   1     -48.837  11.471  23.682  0.00  0.00    -0.295 OA
ATOM     24  C   UNL d   1     -48.758  10.661  23.695  0.00  0.00     0.185 C 
ENDBRANCH  21  23
ENDBRANCH  20  21
ENDBRANCH   2  20
TORSDOF 5
ENDMDL
MODEL 3
REMARK VINA RESULT:      -5.3      2.527      4.464
REMARK  5 active torsions:
REMARK  status: ('A' for Active; 'I' for Inactive)
REMARK    1  A    between atoms: N_3  and  C_1 
REMARK    2  A    between atoms: C_12  and  N_2 
REMARK       I    between atoms: C_6  and  N_3 
REMARK    3  A    between atoms: C_8  and  C_6 
REMARK    4  A    between atoms: C_16  and  C_12 
REMARK    5  A    between atoms: O_22  and  C_16 
ROOT
ATOM      1  C   UNL d   1     -46.855  12.636  23.075  0.00  0.00     0.183 A 
ATOM      2  N   UNL d   1     -47.675  12.677  23.050  0.00  0.00    -0.280 N 
ATOM      3  S   UNL d   1     -46.557  13.384  22.896  0.00  0.00    -0.048 SA
ATOM      4  C   UNL d   1     -47.199  13.891  22.759  0.00  0.00     0.051 A 
ATOM      5  C   UNL d   1     -47.893  13.452  22.855  0.00  0.00     0.072 A 
ATOM      6  C   UNL d   1     -47.239  14.690  22.561  0.00  0.00     0.038 A 
ATOM      7  C   UNL d   1     -48.627  13.813  22.753  0.00  0.00     0.020 A 
ATOM      8  C   UNL d   1     -47.974  15.052  22.458  0.00  0.00     0.141 A 
ATOM      9  C   UNL d   1     -48.668  14.613  22.554  0.00  0.00     0.031 A 
ATOM     10  F   UNL d   1     -48.010  15.845  22.262  0.00  0.00    -0.204 F 
ENDROOT
BRANCH   1  11
ATOM     11  N   UNL d   1     -46.413  11.960  23.250  0.00  0.00    -0.183 NA
ATOM     12  C   UNL d   1     -45.613  11.934  23.050  0.00  0.00     0.287 C 
ATOM     13  O   UNL d   1     -45.262  12.581  22.677  0.00  0.00    -0.265 OA
BRANCH  12  14
ATOM     14  C   UNL d   1     -45.171  11.271  23.219  0.00  0.00     0.088 A 
ATOM     15  S   UNL d   1     -44.397  11.117  22.963  0.00  0.00    -0.071 SA
ATOM     16  C   UNL d   1     -44.170  10.394  23.260  0.00  0.00     0.087 A 
ATOM     17 CL   UNL d   1     -43.452  10.014  23.152  0.00  0.00    -0.075 Cl
ATOM     18  C   UNL d   1     -44.794  10.100  23.695  0.00  0.00     0.019 A 
ATOM     19  C   UNL d   1     -45.405  10.641  23.668  0.00  0.00     0.013 A 
ENDBRANCH  12  14
ENDBRANCH   1  11
BRANCH   2  20
ATOM     20  C   UNL d   1     -48.422  12.341  23.120  0.00  0.00     0.151 C 
BRANCH  20  21
ATOM     21  C   UNL d   1     -48.504  11.528  23.101  0.00  0.00     0.314 C 
ATOM     22  O   UNL d   1     -48.165  11.104  22.489  0.00  0.00    -0.257 OA
BRANCH  21  23
ATOM     23  O   UNL d   1     -48.917  11.142  23.683  0.00  0.00    -0.295 OA
ATOM     24  C   UNL d   1     -49.730  11.175  23.698  0.00  0.00     0.185 C 
ENDBRANCH  21  23
ENDBRANCH  20  21
ENDBRANCH   2  20
TORSDOF 5
ENDMDL
