MODEL 1
REMARK VINA RESULT:      -6.3      0.000      0.000
REMARK  6 active torsions:
REMARK  status: ('A' for Active; 'I' for Inactive)
REMARK    1  A    between atoms: C_6  and  N_1 
REMARK    2  A    between atoms: C_5  and  C_3 
REMARK    3  A    between atoms: C_9  and  C_4 
REMARK    4  A    between atoms: N_12  and  C_6 
REMARK    5  A    between atoms: O_21  and  C_8 
REMARK    6  A    between atoms: O_22  and  C_16 
ROOT
ATOM      1  N   UNL d   1     -48.484  12.561  22.580  0.00  0.00    -0.203 N 
ATOM      2  N   UNL d   1     -47.935  11.965  22.661  0.00  0.00    -0.163 NA
ATOM      3  C   UNL d   1     -48.159  13.262  22.894  0.00  0.00     0.089 A 
ATOM      4  C   UNL d   1     -47.275  12.254  23.012  0.00  0.00     0.103 A 
ATOM      5  C   UNL d   1     -47.398  13.064  23.165  0.00  0.00     0.040 A 
ENDROOT
BRANCH   3   6
ATOM      6  C   UNL d   1     -48.501  14.012  22.940  0.00  0.00     0.042 A 
ATOM      7  C   UNL d   1     -48.096  14.658  22.628  0.00  0.00     0.096 A 
ATOM      8  C   UNL d   1     -48.426  15.417  22.666  0.00  0.00     0.026 A 
ATOM      9  C   UNL d   1     -49.157  15.510  23.017  0.00  0.00     0.026 A 
ATOM     10  C   UNL d   1     -49.564  14.863  23.329  0.00  0.00     0.094 A 
ATOM     11  C   UNL d   1     -49.218  14.111  23.282  0.00  0.00     0.028 A 
BRANCH   7  12
ATOM     12  O   UNL d   1     -47.337  14.567  22.264  0.00  0.00    -0.328 OA
ATOM     13  C   UNL d   1     -46.876  15.227  22.108  0.00  0.00     0.181 C 
ENDBRANCH   7  12
BRANCH  10  14
ATOM     14  O   UNL d   1     -50.334  14.964  23.698  0.00  0.00    -0.328 OA
ATOM     15  C   UNL d   1     -50.882  15.479  23.378  0.00  0.00     0.181 C 
ENDBRANCH  10  14
ENDBRANCH   3   6
BRANCH   1  16
ATOM     16  C   UNL d   1     -49.245  12.481  22.240  0.00  0.00     0.222 C 
ATOM     17  S   UNL d   1     -49.875  12.209  22.716  0.00  0.00    -0.037 SA
BRANCH  16  18
ATOM     18  N   UNL d   1     -49.368  12.671  21.432  0.00  0.00    -0.214 NA
ATOM     19  C   UNL d   1     -50.050  12.403  21.029  0.00  0.00     0.122 C 
ENDBRANCH  16  18
ENDBRANCH   1  16
BRANCH   4  20
ATOM     20  C   UNL d   1     -46.611  11.806  23.179  0.00  0.00     0.019 A 
ATOM     21  C   UNL d   1     -45.873  12.093  23.025  0.00  0.00     0.002 A 
ATOM     22  C   UNL d   1     -45.202  11.646  23.191  0.00  0.00     0.000 A 
ATOM     23  C   UNL d   1     -45.303  10.884  23.524  0.00  0.00     0.000 A 
ATOM     24  C   UNL d   1     -46.061  10.597  23.678  0.00  0.00     0.000 A 
ATOM     25  C   UNL d   1     -44.644  10.418  23.698  0.00  0.00     0.000 C 
ATOM     26  C   UNL d   1     -46.712  11.053  23.507  0.00  0.00     0.002 A 
ENDBRANCH   4  20
TORSDOF 6
ENDMDL
MODEL 2
REMARK VINA RESULT:      -5.4      1.668      2.680
REMARK  6 active torsions:
REMARK  status: ('A' for Active; 'I' for Inactive)
REMARK    1  A    between atoms: C_6  and  N_1 
REMARK    2  A    between atoms: C_5  and  C_3 
REMARK    3  A    between atoms: C_9  and  C_4 
REMARK    4  A    between atoms: N_12  and  C_6 
REMARK    5  A    between atoms: O_21  and  C_8 
REMARK    6  A    between atoms: O_22  and  C_16 
ROOT
ATOM      1  N   UNL d   1     -47.722  13.760  22.591  0.00  0.00    -0.203 N 
ATOM      2  N   UNL d   1     -46.908  13.771  22.579  0.00  0.00    -0.163 NA
ATOM      3  C   UNL d   1     -47.980  13.011  22.333  0.00  0.00     0.089 A 
ATOM      4  C   UNL d   1     -46.635  13.061  22.323  0.00  0.00     0.103 A 
ATOM      5  C   UNL d   1     -47.292  12.574  22.165  0.00  0.00     0.040 A 
ENDROOT
BRANCH   3   6
ATOM      6  C   UNL d   1     -48.753  12.733  22.250  0.00  0.00     0.042 A 
ATOM      7  C   UNL d   1     -49.028  12.150  22.765  0.00  0.00     0.096 A 
ATOM      8  C   UNL d   1     -49.801  11.861  22.694  0.00  0.00     0.026 A 
ATOM      9  C   UNL d   1     -50.282  12.164  22.109  0.00  0.00     0.026 A 
ATOM     10  C   UNL d   1     -50.008  12.747  21.594  0.00  0.00     0.094 A 
ATOM     11  C   UNL d   1     -49.230  13.025  21.678  0.00  0.00     0.028 A 
BRANCH   7  12
ATOM     12  O   UNL d   1     -48.533  11.833  23.374  0.00  0.00    -0.328 OA
ATOM     13  C   UNL d   1     -48.701  11.098  23.697  0.00  0.00     0.181 C 
ENDBRANCH   7  12
BRANCH  10  14
ATOM     14  O   UNL d   1     -50.517  13.065  20.977  0.00  0.00    -0.328 OA
ATOM     15  C   UNL d   1     -51.064  13.645  21.151  0.00  0.00     0.181 C 
ENDBRANCH  10  14
ENDBRANCH   3   6
BRANCH   1  16
ATOM     16  C   UNL d   1     -48.215  14.396  22.825  0.00  0.00     0.222 C 
ATOM     17  S   UNL d   1     -48.546  14.391  23.592  0.00  0.00    -0.037 SA
BRANCH  16  18
ATOM     18  N   UNL d   1     -48.371  15.026  22.294  0.00  0.00    -0.214 NA
ATOM     19  C   UNL d   1     -48.669  15.757  22.573  0.00  0.00     0.122 C 
ENDBRANCH  16  18
ENDBRANCH   1  16
BRANCH   4  20
ATOM     20  C   UNL d   1     -45.843  12.878  22.243  0.00  0.00     0.019 A 
ATOM     21  C   UNL d   1     -45.519  12.264  22.654  0.00  0.00     0.002 A 
ATOM     22  C   UNL d   1     -44.722  12.075  22.577  0.00  0.00     0.000 A 
ATOM     23  C   UNL d   1     -44.251  12.538  22.060  0.00  0.00     0.000 A 
ATOM     24  C   UNL d   1     -44.589  13.165  21.643  0.00  0.00     0.000 A 
ATOM     25  C   UNL d   1     -43.449  12.367  21.966  0.00  0.00     0.000 C 
ATOM     26  C   UNL d   1     -45.379  13.336  21.732  0.00  0.00     0.002 A 
ENDBRANCH   4  20
TORSDOF 6
ENDMDL
MODEL 3
REMARK VINA RESULT:      -4.7      1.551      2.446
REMARK  6 active torsions:
REMARK  status: ('A' for Active; 'I' for Inactive)
REMARK    1  A    between atoms: C_6  and  N_1 
REMARK    2  A    between atoms: C_5  and  C_3 
REMARK    3  A    between atoms: C_9  and  C_4 
REMARK    4  A    between atoms: N_12  and  C_6 
REMARK    5  A    between atoms: O_21  and  C_8 
REMARK    6  A    between atoms: O_22  and  C_16 
ROOT
ATOM      1  N   UNL d   1     -47.816  13.880  22.682  0.00  0.00    -0.203 N 
ATOM      2  N   UNL d   1     -47.003  13.852  22.687  0.00  0.00    -0.163 NA
ATOM      3  C   UNL d   1     -48.105  13.133  22.448  0.00  0.00     0.089 A 
ATOM      4  C   UNL d   1     -46.758  13.121  22.467  0.00  0.00     0.103 A 
ATOM      5  C   UNL d   1     -47.435  12.658  22.314  0.00  0.00     0.040 A 
ENDROOT
BRANCH   3   6
ATOM      6  C   UNL d   1     -48.888  12.888  22.360  0.00  0.00     0.042 A 
ATOM      7  C   UNL d   1     -49.186  12.760  21.603  0.00  0.00     0.096 A 
ATOM      8  C   UNL d   1     -49.970  12.515  21.499  0.00  0.00     0.026 A 
ATOM      9  C   UNL d   1     -50.438  12.402  22.158  0.00  0.00     0.026 A 
ATOM     10  C   UNL d   1     -50.140  12.530  22.916  0.00  0.00     0.094 A 
ATOM     11  C   UNL d   1     -49.352  12.776  23.002  0.00  0.00     0.028 A 
BRANCH   7  12
ATOM     12  O   UNL d   1     -48.706  12.876  20.916  0.00  0.00    -0.328 OA
ATOM     13  C   UNL d   1     -49.005  12.700  20.173  0.00  0.00     0.181 C 
ENDBRANCH   7  12
BRANCH  10  14
ATOM     14  O   UNL d   1     -50.635  12.411  23.610  0.00  0.00    -0.328 OA
ATOM     15  C   UNL d   1     -51.064  11.721  23.698  0.00  0.00     0.181 C 
ENDBRANCH  10  14
ENDBRANCH   3   6
BRANCH   1  16
ATOM     16  C   UNL d   1     -48.283  14.547  22.879  0.00  0.00     0.222 C 
ATOM     17  S   UNL d   1     -48.580  14.618  23.657  0.00  0.00    -0.037 SA
BRANCH  16  18
ATOM     18  N   UNL d   1     -48.447  15.133  22.302  0.00  0.00    -0.214 NA
ATOM     19  C   UNL d   1     -48.700  15.898  22.528  0.00  0.00     0.122 C 
ENDBRANCH  16  18
ENDBRANCH   1  16
BRANCH   4  20
ATOM     20  C   UNL d   1     -45.974  12.898  22.411  0.00  0.00     0.019 A 
ATOM     21  C   UNL d   1     -45.478  13.266  21.893  0.00  0.00     0.002 A 
ATOM     22  C   UNL d   1     -44.687  13.046  21.833  0.00  0.00     0.000 A 
ATOM     23  C   UNL d   1     -44.408  12.427  22.325  0.00  0.00     0.000 A 
ATOM     24  C   UNL d   1     -44.921  12.055  22.853  0.00  0.00     0.000 A 
ATOM     25  C   UNL d   1     -43.619  12.189  22.282  0.00  0.00     0.000 C 
ATOM     26  C   UNL d   1     -45.699  12.287  22.897  0.00  0.00     0.002 A 
ENDBRANCH   4  20
TORSDOF 6
ENDMDL
MODEL 4
REMARK VINA RESULT:      -4.0      1.493      1.887
REMARK  6 active torsions:
REMARK  status: ('A' for Active; 'I' for Inactive)
REMARK    1  A    between atoms: C_6  and  N_1 
REMARK    2  A    between atoms: C_5  and  C_3 
REMARK    3  A    between atoms: C_9  and  C_4 
REMARK    4  A    between atoms: N_12  and  C_6 
REMARK    5  A    between atoms: O_21  and  C_8 
REMARK    6  A    between atoms: O_22  and  C_16 
ROOT
ATOM      1  N   UNL d   1     -47.645  12.513  22.601  0.00  0.00    -0.203 N 
ATOM      2  N   UNL d   1     -46.869  12.267  22.602  0.00  0.00    -0.163 NA
ATOM      3  C   UNL d   1     -47.691  13.239  22.194  0.00  0.00     0.089 A 
ATOM      4  C   UNL d   1     -46.417  12.805  22.214  0.00  0.00     0.103 A 
ATOM      5  C   UNL d   1     -46.916  13.420  21.952  0.00  0.00     0.040 A 
ENDROOT
BRANCH   3   6
ATOM      6  C   UNL d   1     -48.357  13.706  22.047  0.00  0.00     0.042 A 
ATOM      7  C   UNL d   1     -48.382  14.475  22.342  0.00  0.00     0.096 A 
ATOM      8  C   UNL d   1     -49.042  14.955  22.203  0.00  0.00     0.026 A 
ATOM      9  C   UNL d   1     -49.664  14.651  21.770  0.00  0.00     0.026 A 
ATOM     10  C   UNL d   1     -49.639  13.882  21.474  0.00  0.00     0.094 A 
ATOM     11  C   UNL d   1     -48.970  13.415  21.623  0.00  0.00     0.028 A 
BRANCH   7  12
ATOM     12  O   UNL d   1     -47.740  14.794  22.792  0.00  0.00    -0.328 OA
ATOM     13  C   UNL d   1     -47.649  15.606  22.856  0.00  0.00     0.181 C 
ENDBRANCH   7  12
BRANCH  10  14
ATOM     14  O   UNL d   1     -50.296  13.564  21.018  0.00  0.00    -0.328 OA
ATOM     15  C   UNL d   1     -51.064  13.647  21.285  0.00  0.00     0.181 C 
ENDBRANCH  10  14
ENDBRANCH   3   6
BRANCH   1  16
ATOM     16  C   UNL d   1     -48.287  12.103  22.950  0.00  0.00     0.222 C 
ATOM     17  S   UNL d   1     -48.567  12.350  23.698  0.00  0.00    -0.037 SA
BRANCH  16  18
ATOM     18  N   UNL d   1     -48.642  11.456  22.551  0.00  0.00    -0.214 NA
ATOM     19  C   UNL d   1     -49.028  10.850  22.980  0.00  0.00     0.122 C 
ENDBRANCH  16  18
ENDBRANCH   1  16
BRANCH   4  20
ATOM     20  C   UNL d   1     -45.610  12.734  22.110  0.00  0.00     0.019 A 
ATOM     21  C   UNL d   1     -45.236  13.125  21.511  0.00  0.00     0.002 A 
ATOM     22  C   UNL d   1     -44.424  13.057  21.402  0.00  0.00     0.000 A 
ATOM     23  C   UNL d   1     -43.990  12.570  21.929  0.00  0.00     0.000 A 
ATOM     24  C   UNL d   1     -44.379  12.172  22.539  0.00  0.00     0.000 A 
ATOM     25  C   UNL d   1     -43.175  12.487  21.838  0.00  0.00     0.000 C 
ATOM     26  C   UNL d   1     -45.183  12.252  22.630  0.00  0.00     0.002 A 
ENDBRANCH   4  20
TORSDOF 6
ENDMDL
MODEL 5
REMARK VINA RESULT:      -4.0      1.709      4.656
REMARK  6 active torsions:
REMARK  status: ('A' for Active; 'I' for Inactive)
REMARK    1  A    between atoms: C_6  and  N_1 
REMARK    2  A    between atoms: C_5  and  C_3 
REMARK    3  A    between atoms: C_9  and  C_4 
REMARK    4  A    between atoms: N_12  and  C_6 
REMARK    5  A    between atoms: O_21  and  C_8 
REMARK    6  A    between atoms: O_22  and  C_16 
ROOT
ATOM      1  N   UNL d   1     -47.090  13.237  22.423  0.00  0.00    -0.203 N 
ATOM      2  N   UNL d   1     -47.603  13.867  22.368  0.00  0.00    -0.163 NA
ATOM      3  C   UNL d   1     -47.403  12.688  22.967  0.00  0.00     0.089 A 
ATOM      4  C   UNL d   1     -48.230  13.745  22.852  0.00  0.00     0.103 A 
ATOM      5  C   UNL d   1     -48.121  13.012  23.235  0.00  0.00     0.040 A 
ENDROOT
BRANCH   3   6
ATOM      6  C   UNL d   1     -47.087  11.965  23.209  0.00  0.00     0.042 A 
ATOM      7  C   UNL d   1     -47.592  11.326  23.331  0.00  0.00     0.096 A 
ATOM      8  C   UNL d   1     -47.290  10.594  23.574  0.00  0.00     0.026 A 
ATOM      9  C   UNL d   1     -46.486  10.520  23.688  0.00  0.00     0.026 A 
ATOM     10  C   UNL d   1     -45.979  11.159  23.566  0.00  0.00     0.094 A 
ATOM     11  C   UNL d   1     -46.299  11.885  23.323  0.00  0.00     0.028 A 
BRANCH   7  12
ATOM     12  O   UNL d   1     -48.428  11.398  23.214  0.00  0.00    -0.328 OA
ATOM     13  C   UNL d   1     -48.925  10.781  23.423  0.00  0.00     0.181 C 
ENDBRANCH   7  12
BRANCH  10  14
ATOM     14  O   UNL d   1     -45.131  11.079  23.688  0.00  0.00    -0.328 OA
ATOM     15  C   UNL d   1     -44.764  10.358  23.575  0.00  0.00     0.181 C 
ENDBRANCH  10  14
ENDBRANCH   3   6
BRANCH   1  16
ATOM     16  C   UNL d   1     -46.369  13.157  22.004  0.00  0.00     0.222 C 
ATOM     17  S   UNL d   1     -46.375  12.784  21.255  0.00  0.00    -0.037 SA
BRANCH  16  18
ATOM     18  N   UNL d   1     -45.654  13.446  22.333  0.00  0.00    -0.214 NA
ATOM     19  C   UNL d   1     -45.015  13.667  21.840  0.00  0.00     0.122 C 
ENDBRANCH  16  18
ENDBRANCH   1  16
BRANCH   4  20
ATOM     20  C   UNL d   1     -48.853  14.267  22.935  0.00  0.00     0.019 A 
ATOM     21  C   UNL d   1     -49.556  14.131  22.563  0.00  0.00     0.002 A 
ATOM     22  C   UNL d   1     -50.186  14.654  22.643  0.00  0.00     0.000 A 
ATOM     23  C   UNL d   1     -50.082  15.334  23.121  0.00  0.00     0.000 A 
ATOM     24  C   UNL d   1     -49.360  15.468  23.499  0.00  0.00     0.000 A 
ATOM     25  C   UNL d   1     -50.700  15.872  23.215  0.00  0.00     0.000 C 
ATOM     26  C   UNL d   1     -48.749  14.939  23.407  0.00  0.00     0.002 A 
ENDBRANCH   4  20
TORSDOF 6
ENDMDL
