MODEL 1
REMARK VINA RESULT:      -1.4      0.000      0.000
REMARK  5 active torsions:
REMARK  status: ('A' for Active; 'I' for Inactive)
REMARK    1  A    between atoms: C_7  and  N_1 
REMARK    2  A    between atoms: C_23  and  C_5 
REMARK    3  A    between atoms: C_22  and  C_6 
REMARK    4  A    between atoms: C_8  and  C_7 
REMARK       I    between atoms: N_11  and  C_8 
REMARK    5  A    between atoms: C_17  and  N_11 
ROOT
ATOM      1  C   UNL d   1      33.240  20.321 -22.401  0.00  0.00     0.148 C 
ENDROOT
BRANCH   1   2
ATOM      2  N   UNL d   1      32.969  21.048 -22.118  0.00  0.00    -0.235 N 
ATOM      3  C   UNL d   1      32.961  21.709 -22.620  0.00  0.00     0.273 A 
ATOM      4  C   UNL d   1      32.693  22.429 -22.340  0.00  0.00     0.086 A 
ATOM      5  O   UNL d   1      33.226  21.637 -23.401  0.00  0.00    -0.266 OA
ATOM      6  S   UNL d   1      32.429  22.510 -21.567  0.00  0.00    -0.077 SA
ATOM      7  C   UNL d   1      32.434  21.858 -21.066  0.00  0.00     0.086 A 
ATOM      8  C   UNL d   1      32.702  21.124 -21.335  0.00  0.00     0.273 A 
ATOM      9  O   UNL d   1      32.709  20.468 -20.836  0.00  0.00    -0.266 OA
BRANCH   4  10
ATOM     10  C   UNL d   1      32.686  23.092 -22.845  0.00  0.00     0.011 C 
ATOM     11  C   UNL d   1      32.033  23.598 -22.852  0.00  0.00     0.001 C 
ENDBRANCH   4  10
BRANCH   7  12
ATOM     12  C   UNL d   1      32.170  21.932 -20.288  0.00  0.00     0.011 C 
ATOM     13  C   UNL d   1      31.917  22.667 -20.007  0.00  0.00     0.001 C 
ENDBRANCH   7  12
ENDBRANCH   1   2
BRANCH   1  14
ATOM     14  C   UNL d   1      32.729  19.827 -22.818  0.00  0.00     0.297 C 
ATOM     15  N   UNL d   1      33.034  19.212 -23.260  0.00  0.00    -0.207 NA
ATOM     16  O   UNL d   1      31.914  19.961 -22.782  0.00  0.00    -0.264 OA
BRANCH  15  17
ATOM     17  C   UNL d   1      32.523  18.717 -23.678  0.00  0.00     0.087 A 
ATOM     18  C   UNL d   1      32.202  18.054 -23.309  0.00  0.00     0.045 A 
ATOM     19  C   UNL d   1      31.694  17.556 -23.714  0.00  0.00     0.121 A 
ATOM     20  O   UNL d   1      31.294  16.864 -23.495  0.00  0.00    -0.299 OA
ATOM     21  C   UNL d   1      31.499  17.720 -24.500  0.00  0.00     0.119 A 
ATOM     22  C   UNL d   1      30.854  16.605 -24.151  0.00  0.00     0.304 A 
ATOM     23  O   UNL d   1      30.988  17.137 -24.761  0.00  0.00    -0.300 OA
ATOM     24  C   UNL d   1      31.826  18.390 -24.865  0.00  0.00     0.028 A 
ATOM     25  C   UNL d   1      32.335  18.885 -24.456  0.00  0.00     0.021 A 
ENDBRANCH  15  17
ENDBRANCH   1  14
TORSDOF 5
ENDMDL
MODEL 2
REMARK VINA RESULT:      -0.3      0.589      1.652
REMARK  5 active torsions:
REMARK  status: ('A' for Active; 'I' for Inactive)
REMARK    1  A    between atoms: C_7  and  N_1 
REMARK    2  A    between atoms: C_23  and  C_5 
REMARK    3  A    between atoms: C_22  and  C_6 
REMARK    4  A    between atoms: C_8  and  C_7 
REMARK       I    between atoms: N_11  and  C_8 
REMARK    5  A    between atoms: C_17  and  N_11 
ROOT
ATOM      1  C   UNL d   1      33.236  20.406 -21.610  0.00  0.00     0.148 C 
ENDROOT
BRANCH   1   2
ATOM      2  N   UNL d   1      33.025  21.197 -21.500  0.00  0.00    -0.235 N 
ATOM      3  C   UNL d   1      32.809  21.466 -20.745  0.00  0.00     0.273 A 
ATOM      4  C   UNL d   1      32.600  22.249 -20.637  0.00  0.00     0.086 A 
ATOM      5  O   UNL d   1      32.806  20.941 -20.105  0.00  0.00    -0.266 OA
ATOM      6  S   UNL d   1      32.600  22.777 -21.265  0.00  0.00    -0.077 SA
ATOM      7  C   UNL d   1      32.813  22.516 -22.015  0.00  0.00     0.086 A 
ATOM      8  C   UNL d   1      33.027  21.728 -22.140  0.00  0.00     0.273 A 
ATOM      9  O   UNL d   1      33.241  21.462 -22.890  0.00  0.00    -0.266 OA
BRANCH   4  10
ATOM     10  C   UNL d   1      32.384  22.517 -19.878  0.00  0.00     0.011 C 
ATOM     11  C   UNL d   1      32.487  23.311 -19.676  0.00  0.00     0.001 C 
ENDBRANCH   4  10
BRANCH   7  12
ATOM     12  C   UNL d   1      32.815  23.041 -22.650  0.00  0.00     0.011 C 
ATOM     13  C   UNL d   1      32.114  23.412 -22.881  0.00  0.00     0.001 C 
ENDBRANCH   7  12
ENDBRANCH   1   2
BRANCH   1  14
ATOM     14  C   UNL d   1      32.847  19.953 -22.177  0.00  0.00     0.297 C 
ATOM     15  N   UNL d   1      33.229  19.315 -22.515  0.00  0.00    -0.207 NA
ATOM     16  O   UNL d   1      32.076  20.151 -22.397  0.00  0.00    -0.264 OA
BRANCH  15  17
ATOM     17  C   UNL d   1      32.839  18.861 -23.083  0.00  0.00     0.087 A 
ATOM     18  C   UNL d   1      32.540  18.120 -22.881  0.00  0.00     0.045 A 
ATOM     19  C   UNL d   1      32.152  17.661 -23.437  0.00  0.00     0.121 A 
ATOM     20  O   UNL d   1      31.800  16.911 -23.399  0.00  0.00    -0.299 OA
ATOM     21  C   UNL d   1      32.058  17.943 -24.209  0.00  0.00     0.119 A 
ATOM     22  C   UNL d   1      31.491  16.736 -24.150  0.00  0.00     0.304 A 
ATOM     23  O   UNL d   1      31.655  17.375 -24.638  0.00  0.00    -0.300 OA
ATOM     24  C   UNL d   1      32.362  18.690 -24.404  0.00  0.00     0.028 A 
ATOM     25  C   UNL d   1      32.750  19.146 -23.844  0.00  0.00     0.021 A 
ENDBRANCH  15  17
ENDBRANCH   1  14
TORSDOF 5
ENDMDL
MODEL 3
REMARK VINA RESULT:       0.1      3.053      4.929
REMARK  5 active torsions:
REMARK  status: ('A' for Active; 'I' for Inactive)
REMARK    1  A    between atoms: C_7  and  N_1 
REMARK    2  A    between atoms: C_23  and  C_5 
REMARK    3  A    between atoms: C_22  and  C_6 
REMARK    4  A    between atoms: C_8  and  C_7 
REMARK       I    between atoms: N_11  and  C_8 
REMARK    5  A    between atoms: C_17  and  N_11 
ROOT
ATOM      1  C   UNL d   1      31.412  16.615 -25.095  0.00  0.00     0.148 C 
ENDROOT
BRANCH   1   2
ATOM      2  N   UNL d   1      31.937  16.937 -24.545  0.00  0.00    -0.235 N 
ATOM      3  C   UNL d   1      32.322  16.440 -24.003  0.00  0.00     0.273 A 
ATOM      4  C   UNL d   1      32.842  16.759 -23.458  0.00  0.00     0.086 A 
ATOM      5  O   UNL d   1      32.179  15.625 -24.016  0.00  0.00    -0.266 OA
ATOM      6  S   UNL d   1      32.991  17.565 -23.437  0.00  0.00    -0.077 SA
ATOM      7  C   UNL d   1      32.612  18.061 -23.972  0.00  0.00     0.086 A 
ATOM      8  C   UNL d   1      32.084  17.754 -24.529  0.00  0.00     0.273 A 
ATOM      9  O   UNL d   1      31.702  18.248 -25.066  0.00  0.00    -0.266 OA
BRANCH   4  10
ATOM     10  C   UNL d   1      33.228  16.259 -22.914  0.00  0.00     0.011 C 
ATOM     11  C   UNL d   1      33.016  16.275 -22.116  0.00  0.00     0.001 C 
ENDBRANCH   4  10
BRANCH   7  12
ATOM     12  C   UNL d   1      32.756  18.873 -23.957  0.00  0.00     0.011 C 
ATOM     13  C   UNL d   1      33.040  19.229 -23.267  0.00  0.00     0.001 C 
ENDBRANCH   7  12
ENDBRANCH   1   2
BRANCH   1  14
ATOM     14  C   UNL d   1      30.709  16.271 -24.838  0.00  0.00     0.297 C 
ATOM     15  N   UNL d   1      30.024  16.717 -24.826  0.00  0.00    -0.207 NA
ATOM     16  O   UNL d   1      30.706  15.482 -24.596  0.00  0.00    -0.264 OA
BRANCH  15  17
ATOM     17  C   UNL d   1      29.319  16.373 -24.569  0.00  0.00     0.087 A 
ATOM     18  C   UNL d   1      28.977  16.620 -23.861  0.00  0.00     0.045 A 
ATOM     19  C   UNL d   1      28.279  16.286 -23.596  0.00  0.00     0.121 A 
ATOM     20  O   UNL d   1      27.814  16.417 -22.922  0.00  0.00    -0.299 OA
ATOM     21  C   UNL d   1      27.911  15.695 -24.042  0.00  0.00     0.119 A 
ATOM     22  C   UNL d   1      27.161  15.904 -22.958  0.00  0.00     0.304 A 
ATOM     23  O   UNL d   1      27.231  15.467 -23.649  0.00  0.00    -0.300 OA
ATOM     24  C   UNL d   1      28.261  15.453 -24.754  0.00  0.00     0.028 A 
ATOM     25  C   UNL d   1      28.961  15.789 -25.016  0.00  0.00     0.021 A 
ENDBRANCH  15  17
ENDBRANCH   1  14
TORSDOF 5
ENDMDL
