MODEL 1
REMARK VINA RESULT:      80.7      0.000      0.000
REMARK  7 active torsions:
REMARK  status: ('A' for Active; 'I' for Inactive)
REMARK    1  A    between atoms: C_3  and  C_1 
REMARK    2  A    between atoms: N_5  and  C_2 
REMARK    3  A    between atoms: N_4  and  C_3 
REMARK    4  A    between atoms: C_10  and  C_3 
REMARK    5  A    between atoms: C_13  and  N_4 
REMARK       I    between atoms: C_6  and  N_5 
REMARK    6  A    between atoms: C_8  and  C_13 
REMARK    7  A    between atoms: O_16  and  C_8 
ROOT
ATOM      1  C   UNL d   1      60.596  48.491  50.761  0.00  0.00     0.083 C 
ENDROOT
BRANCH   1   2
ATOM      2  C   UNL d   1      60.443  48.897  51.462  0.00  0.00     0.036 A 
ATOM      3  C   UNL d   1      59.713  49.222  51.609  0.00  0.00     0.086 A 
ATOM      4  C   UNL d   1      59.559  49.627  52.311  0.00  0.00     0.020 A 
ATOM      5  C   UNL d   1      60.137  49.708  52.866  0.00  0.00     0.008 A 
ATOM      6  C   UNL d   1      60.903  49.375  52.728  0.00  0.00     0.035 A 
ATOM      7  C   UNL d   1      61.038  48.972  52.020  0.00  0.00     0.010 A 
ATOM      8 BR   UNL d   1      61.514  49.451  53.298  0.00  0.00    -0.049 Br
BRANCH   3   9
ATOM      9  N   UNL d   1      59.103  49.140  51.029  0.00  0.00    -0.208 NA
ATOM     10  C   UNL d   1      58.332  49.384  51.207  0.00  0.00     0.279 C 
ATOM     11  O   UNL d   1      57.751  49.307  50.654  0.00  0.00    -0.265 OA
ATOM     12  C   UNL d   1      58.146  49.705  51.936  0.00  0.00     0.068 C 
ENDBRANCH   3   9
ENDBRANCH   1   2
BRANCH   1  13
ATOM     13  N   UNL d   1      60.429  47.698  50.684  0.00  0.00    -0.238 NA
BRANCH  13  14
ATOM     14  C   UNL d   1      61.066  47.164  50.681  0.00  0.00     0.167 C 
BRANCH  14  15
ATOM     15  C   UNL d   1      60.892  46.345  50.595  0.00  0.00     0.315 C 
ATOM     16  O   UNL d   1      60.720  46.047  49.821  0.00  0.00    -0.257 OA
BRANCH  15  17
ATOM     17  O   UNL d   1      60.887  45.836  51.244  0.00  0.00    -0.295 OA
ATOM     18  C   UNL d   1      60.646  45.079  51.158  0.00  0.00     0.185 C 
ENDBRANCH  15  17
ENDBRANCH  14  15
ENDBRANCH  13  14
ENDBRANCH   1  13
BRANCH   1  19
ATOM     19  C   UNL d   1      60.924  48.893  50.124  0.00  0.00     0.018 A 
ATOM     20  C   UNL d   1      61.742  48.984  50.056  0.00  0.00     0.002 A 
ATOM     21  C   UNL d   1      62.086  49.380  49.431  0.00  0.00     0.000 A 
ATOM     22  C   UNL d   1      61.569  49.707  48.832  0.00  0.00     0.000 A 
ATOM     23  C   UNL d   1      60.751  49.620  48.894  0.00  0.00     0.000 A 
ATOM     24  C   UNL d   1      60.428  49.215  49.536  0.00  0.00     0.002 A 
ENDBRANCH   1  19
TORSDOF 7
ENDMDL
