MODEL 1
REMARK VINA RESULT:      -3.7      0.000      0.000
REMARK  7 active torsions:
REMARK  status: ('A' for Active; 'I' for Inactive)
REMARK    1  A    between atoms: S_10  and  C_3 
REMARK    2  A    between atoms: C_12  and  C_7 
REMARK    3  A    between atoms: C_19  and  S_10 
REMARK    4  A    between atoms: C_11  and  C_19 
REMARK       I    between atoms: N_14  and  C_11 
REMARK    5  A    between atoms: C_13  and  C_15 
REMARK    6  A    between atoms: C_15  and  N_14 
REMARK    7  A    between atoms: O_21  and  C_17 
ROOT
ATOM      1  N   UNL d   1      32.576  18.665 -23.756  0.00  0.00    -0.186 N 
ATOM      2  N   UNL d   1      32.211  17.984 -23.495  0.00  0.00    -0.162 NA
ATOM      3  C   UNL d   1      32.998  19.252 -23.354  0.00  0.00     0.217 A 
ATOM      4  C   UNL d   1      32.564  18.873 -24.552  0.00  0.00     0.187 A 
ATOM      5  N   UNL d   1      33.237  19.806 -23.906  0.00  0.00    -0.120 NA
ATOM      6  N   UNL d   1      32.969  19.573 -24.649  0.00  0.00    -0.127 NA
ATOM      7  C   UNL d   1      31.824  17.497 -24.039  0.00  0.00     0.103 A 
ATOM      8  C   UNL d   1      32.175  18.382 -25.097  0.00  0.00     0.042 A 
ATOM      9  C   UNL d   1      31.808  17.700 -24.841  0.00  0.00     0.024 A 
ENDROOT
BRANCH   3  10
ATOM     10  S   UNL d   1      33.160  19.291 -22.547  0.00  0.00    -0.041 SA
BRANCH  10  11
ATOM     11  C   UNL d   1      33.237  20.008 -22.174  0.00  0.00     0.101 C 
BRANCH  11  12
ATOM     12  C   UNL d   1      33.213  20.053 -21.362  0.00  0.00     0.286 C 
ATOM     13  N   UNL d   1      33.160  20.786 -20.988  0.00  0.00    -0.206 NA
ATOM     14  O   UNL d   1      33.241  19.372 -20.894  0.00  0.00    -0.265 OA
BRANCH  13  15
ATOM     15  C   UNL d   1      33.131  21.472 -21.446  0.00  0.00     0.104 C 
BRANCH  15  16
ATOM     16  C   UNL d   1      32.858  22.177 -21.113  0.00  0.00     0.042 A 
ATOM     17  C   UNL d   1      32.706  22.832 -21.598  0.00  0.00     0.096 A 
ATOM     18  C   UNL d   1      32.432  23.540 -21.269  0.00  0.00     0.024 A 
ATOM     19  C   UNL d   1      32.311  23.585 -20.446  0.00  0.00     0.002 A 
ATOM     20  C   UNL d   1      32.464  22.929 -19.970  0.00  0.00     0.000 A 
ATOM     21  C   UNL d   1      32.736  22.229 -20.299  0.00  0.00     0.004 A 
BRANCH  17  22
ATOM     22  O   UNL d   1      32.826  22.788 -22.412  0.00  0.00    -0.328 OA
ATOM     23  C   UNL d   1      32.729  23.450 -22.880  0.00  0.00     0.181 C 
ENDBRANCH  17  22
ENDBRANCH  15  16
ENDBRANCH  13  15
ENDBRANCH  11  12
ENDBRANCH  10  11
ENDBRANCH   3  10
BRANCH   7  24
ATOM     24  C   UNL d   1      31.455  16.808 -23.770  0.00  0.00     0.039 A 
ATOM     25  C   UNL d   1      31.882  16.220 -23.416  0.00  0.00     0.101 A 
ATOM     26  N   UNL d   1      31.515  15.546 -23.153  0.00  0.00    -0.242 NA
ATOM     27  C   UNL d   1      30.700  15.453 -23.245  0.00  0.00     0.099 A 
ATOM     28  C   UNL d   1      30.267  16.050 -23.605  0.00  0.00     0.021 A 
ATOM     29  C   UNL d   1      30.641  16.735 -23.871  0.00  0.00     0.005 A 
ENDBRANCH   7  24
TORSDOF 7
ENDMDL
