MODEL 1
REMARK VINA RESULT:      20.1      0.000      0.000
REMARK  4 active torsions:
REMARK  status: ('A' for Active; 'I' for Inactive)
REMARK    1  A    between atoms: C_6  and  S_1 
REMARK    2  A    between atoms: N_8  and  S_1 
REMARK    3  A    between atoms: C_17  and  N_8 
REMARK    4  A    between atoms: N_16  and  C_15 
ROOT
ATOM      1  N   UNL d   1      46.520 -19.438  42.426  0.00  0.00    -0.273 N 
ATOM      2  C   UNL d   1      46.506 -19.145  41.639  0.00  0.00     0.265 A 
ATOM      3  C   UNL d   1      46.374 -18.803  42.932  0.00  0.00     0.067 A 
ATOM      4  C   UNL d   1      46.249 -18.057  42.622  0.00  0.00     0.022 A 
ATOM      5  C   UNL d   1      46.083 -17.542  43.944  0.00  0.00     0.105 A 
ATOM      6  C   UNL d   1      46.354 -18.923  43.748  0.00  0.00     0.017 A 
ATOM      7  C   UNL d   1      46.301 -18.103  41.787  0.00  0.00     0.063 A 
ATOM      8  C   UNL d   1      46.102 -17.422  43.128  0.00  0.00     0.015 A 
ATOM      9  C   UNL d   1      46.209 -18.297  44.254  0.00  0.00     0.014 A 
ATOM     10  O   UNL d   1      46.636 -19.662  41.006  0.00  0.00    -0.267 OA
ATOM     11  C   UNL d   1      46.647 -20.193  42.735  0.00  0.00     0.083 A 
ATOM     12  C   UNL d   1      46.481 -19.676  44.044  0.00  0.00     0.003 A 
ATOM     13  C   UNL d   1      46.627 -20.313  43.551  0.00  0.00     0.019 A 
ENDROOT
BRANCH   5  14
ATOM     14  S   UNL d   1      45.934 -16.898  44.453  0.00  0.00     0.285 S 
ATOM     15  O   UNL d   1      46.458 -16.443  44.005  0.00  0.00    -0.198 OA
ATOM     16  O   UNL d   1      45.409 -17.370  44.895  0.00  0.00    -0.198 OA
BRANCH  14  17
ATOM     17  N   UNL d   1      45.788 -16.263  44.955  0.00  0.00    -0.158 NA
BRANCH  17  18
ATOM     18  C   UNL d   1      45.665 -15.511  44.638  0.00  0.00     0.094 A 
ATOM     19  C   UNL d   1      46.305 -15.046  44.419  0.00  0.00     0.021 A 
ATOM     20  C   UNL d   1      46.182 -14.295  44.102  0.00  0.00     0.019 A 
ATOM     21  C   UNL d   1      45.419 -14.008  44.004  0.00  0.00     0.064 A 
ATOM     22  C   UNL d   1      44.774 -14.474  44.223  0.00  0.00     0.019 A 
ATOM     23  C   UNL d   1      44.897 -15.226  44.540  0.00  0.00     0.021 A 
BRANCH  21  24
ATOM     24  N   UNL d   1      45.296 -13.256  43.687  0.00  0.00    -0.301 N 
ATOM     25  C   UNL d   1      45.793 -12.633  43.899  0.00  0.00     0.100 C 
ATOM     26  C   UNL d   1      44.675 -13.129  43.157  0.00  0.00     0.100 C 
ENDBRANCH  21  24
ENDBRANCH  17  18
ENDBRANCH  14  17
ENDBRANCH   5  14
TORSDOF 4
ENDMDL
