MODEL 1
REMARK VINA RESULT:      47.8      0.000      0.000
REMARK  4 active torsions:
REMARK  status: ('A' for Active; 'I' for Inactive)
REMARK    1  A    between atoms: C_8  and  C_1 
REMARK    2  A    between atoms: N_5  and  C_2 
REMARK       I    between atoms: C_6  and  N_5 
REMARK    3  A    between atoms: C_10  and  C_6 
REMARK    4  A    between atoms: N_9  and  C_8 
ROOT
ATOM      1  C   UNL d   1      43.987 -13.014  43.939  0.00  0.00     0.042 A 
ATOM      2  C   UNL d   1      44.526 -13.327  44.477  0.00  0.00     0.115 A 
ATOM      3  S   UNL d   1      44.227 -14.052  44.729  0.00  0.00    -0.068 SA
ATOM      4  C   UNL d   1      43.367 -13.544  43.865  0.00  0.00     0.009 A 
ATOM      5  C   UNL d   1      43.517 -14.184  44.353  0.00  0.00     0.031 A 
ATOM      6  C   UNL d   1      42.702 -13.442  43.375  0.00  0.00     0.001 C 
ATOM      7  C   UNL d   1      43.042 -14.855  44.459  0.00  0.00     0.007 C 
ENDROOT
BRANCH   2   8
ATOM      8  N   UNL d   1      45.236 -12.983  44.722  0.00  0.00    -0.201 NA
ATOM      9  C   UNL d   1      45.935 -13.426  44.709  0.00  0.00     0.282 C 
ATOM     10  O   UNL d   1      46.636 -13.079  44.954  0.00  0.00    -0.265 OA
BRANCH   9  11
ATOM     11  C   UNL d   1      45.921 -14.211  44.449  0.00  0.00     0.085 A 
ATOM     12  C   UNL d   1      46.198 -14.392  43.692  0.00  0.00     0.145 A 
ATOM     13  F   UNL d   1      46.497 -13.850  43.147  0.00  0.00    -0.204 F 
ATOM     14  C   UNL d   1      46.187 -15.174  43.427  0.00  0.00     0.030 A 
ATOM     15  C   UNL d   1      45.898 -15.768  43.927  0.00  0.00     0.002 A 
ATOM     16  C   UNL d   1      45.623 -15.585  44.681  0.00  0.00     0.000 A 
ATOM     17  C   UNL d   1      45.637 -14.799  44.940  0.00  0.00     0.007 A 
ENDBRANCH   9  11
ENDBRANCH   2   8
BRANCH   1  18
ATOM     18  C   UNL d   1      43.985 -12.306  43.504  0.00  0.00     0.082 C 
BRANCH  18  19
ATOM     19  N   UNL d   1      44.447 -12.245  42.828  0.00  0.00    -0.304 N 
ATOM     20  C   UNL d   1      44.085 -12.289  42.077  0.00  0.00     0.064 A 
ATOM     21  C   UNL d   1      43.271 -12.392  42.019  0.00  0.00     0.019 C 
ATOM     22  C   UNL d   1      44.545 -12.229  41.391  0.00  0.00     0.018 A 
ATOM     23  C   UNL d   1      45.356 -12.126  41.452  0.00  0.00     0.003 A 
ATOM     24  C   UNL d   1      45.714 -12.083  42.196  0.00  0.00     0.019 A 
ATOM     25  C   UNL d   1      45.260 -12.142  42.877  0.00  0.00     0.080 A 
ENDBRANCH  18  19
ENDBRANCH   1  18
TORSDOF 4
ENDMDL
