MODEL 1
REMARK VINA RESULT:      88.0      0.000      0.000
REMARK  10 active torsions:
REMARK  status: ('A' for Active; 'I' for Inactive)
REMARK    1  A    between atoms: C_7  and  C_1 
REMARK    2  A    between atoms: C_8  and  C_2 
REMARK    3  A    between atoms: O_24  and  C_8 
REMARK    4  A    between atoms: O_25  and  C_12 
REMARK    5  A    between atoms: C_14  and  C_22 
REMARK    6  A    between atoms: O_26  and  C_14 
REMARK    7  A    between atoms: O_27  and  C_16 
REMARK    8  A    between atoms: O_21  and  C_20 
REMARK    9  A    between atoms: C_22  and  O_21 
REMARK   10  A    between atoms: C_28  and  O_24 
ROOT
ATOM      1  C   UNL d   1     -55.018-101.458 -41.073  0.00  0.00     0.067 A 
ATOM      2  C   UNL d   1     -55.170-100.758 -40.653  0.00  0.00     0.166 A 
ATOM      3  C   UNL d   1     -54.865-102.169 -40.656  0.00  0.00     0.200 A 
ATOM      4  O   UNL d   1     -55.171-100.759 -39.815  0.00  0.00    -0.301 OA
ATOM      5  C   UNL d   1     -54.864-102.173 -39.836  0.00  0.00     0.062 A 
ATOM      6  C   UNL d   1     -55.017-101.468 -39.412  0.00  0.00     0.105 A 
ATOM      7  C   UNL d   1     -55.017-101.472 -38.582  0.00  0.00     0.050 A 
ATOM      8  C   UNL d   1     -54.712-102.873 -39.413  0.00  0.00     0.007 A 
ATOM      9  O   UNL d   1     -54.714-102.863 -41.079  0.00  0.00    -0.286 OA
ATOM     10  C   UNL d   1     -54.864-102.177 -38.176  0.00  0.00     0.102 A 
ATOM     11  C   UNL d   1     -54.712-102.875 -38.590  0.00  0.00     0.025 A 
ENDROOT
BRANCH   1  12
ATOM     12  C   UNL d   1     -55.018-101.457 -41.896  0.00  0.00     0.007 A 
ATOM     13  C   UNL d   1     -55.008-100.732 -42.299  0.00  0.00     0.026 A 
ATOM     14  C   UNL d   1     -55.008-100.738 -43.127  0.00  0.00     0.116 A 
ATOM     15  C   UNL d   1     -55.018-101.456 -43.543  0.00  0.00     0.116 A 
ATOM     16  C   UNL d   1     -55.028-102.170 -43.133  0.00  0.00     0.026 A 
ATOM     17  C   UNL d   1     -55.028-102.170 -42.310  0.00  0.00     0.002 A 
BRANCH  14  18
ATOM     18  O   UNL d   1     -54.999-100.024 -43.536  0.00  0.00    -0.326 OA
ATOM     19  C   UNL d   1     -55.456 -99.930 -44.216  0.00  0.00     0.181 C 
ENDBRANCH  14  18
BRANCH  15  20
ATOM     20  O   UNL d   1     -55.018-101.452 -44.364  0.00  0.00    -0.326 OA
ATOM     21  C   UNL d   1     -55.021-102.171 -44.776  0.00  0.00     0.181 C 
ENDBRANCH  15  20
ENDBRANCH   1  12
BRANCH   2  22
ATOM     22  C   UNL d   1     -55.322-100.061 -41.063  0.00  0.00     0.323 C 
ATOM     23  O   UNL d   1     -54.711 -99.538 -41.238  0.00  0.00    -0.257 OA
BRANCH  22  24
ATOM     24  O   UNL d   1     -56.098 -99.879 -41.305  0.00  0.00    -0.270 OA
BRANCH  24  25
ATOM     25  C   UNL d   1     -56.256 -99.166 -41.684  0.00  0.00     0.126 C 
ATOM     26  C   UNL d   1     -57.002 -98.820 -41.621  0.00  0.00     0.029 C 
ENDBRANCH  24  25
ENDBRANCH  22  24
ENDBRANCH   2  22
BRANCH  10  27
ATOM     27  O   UNL d   1     -54.864-102.177 -37.353  0.00  0.00    -0.300 OA
BRANCH  27  28
ATOM     28  C   UNL d   1     -54.961-101.476 -36.939  0.00  0.00     0.191 C 
BRANCH  28  29
ATOM     29  C   UNL d   1     -55.110-101.492 -36.128  0.00  0.00     0.321 C 
ATOM     30  O   UNL d   1     -54.752-100.941 -35.628  0.00  0.00    -0.257 OA
BRANCH  29  31
ATOM     31  O   UNL d   1     -55.617-102.057 -35.810  0.00  0.00    -0.294 OA
ATOM     32  C   UNL d   1     -56.416-102.061 -36.007  0.00  0.00     0.185 C 
ENDBRANCH  29  31
ENDBRANCH  28  29
ENDBRANCH  27  28
ENDBRANCH  10  27
TORSDOF 10
ENDMDL
