MODEL 1
REMARK VINA RESULT:     109.7      0.000      0.000
REMARK  5 active torsions:
REMARK  status: ('A' for Active; 'I' for Inactive)
REMARK    1  A    between atoms: S_3  and  N_1 
REMARK    2  A    between atoms: S_4  and  N_8 
REMARK    3  A    between atoms: C_12  and  C_5 
REMARK    4  A    between atoms: C_9  and  C_6 
REMARK    5  A    between atoms: N_8  and  C_16 
ROOT
ATOM      1  N   UNL d   1     -56.275 -99.396 -44.625  0.00  0.00    -0.155 N 
ATOM      2  N   UNL d   1     -56.930 -98.965 -44.897  0.00  0.00    -0.156 NA
ATOM      3  C   UNL d   1     -56.558-100.118 -44.322  0.00  0.00     0.096 A 
ATOM      4  C   UNL d   1     -57.609 -99.415 -44.765  0.00  0.00     0.104 A 
ATOM      5  C   UNL d   1     -57.375-100.124 -44.411  0.00  0.00     0.041 A 
ENDROOT
BRANCH   4   6
ATOM      6  C   UNL d   1     -58.381 -99.196 -44.952  0.00  0.00     0.021 A 
ATOM      7  C   UNL d   1     -58.597 -99.095 -45.738  0.00  0.00     0.021 A 
ATOM      8  C   UNL d   1     -59.374 -98.874 -45.927  0.00  0.00     0.093 A 
ATOM      9  C   UNL d   1     -59.932 -98.756 -45.323  0.00  0.00     0.020 A 
ATOM     10  C   UNL d   1     -59.706 -98.859 -44.533  0.00  0.00     0.002 A 
ATOM     11  C   UNL d   1     -58.937 -99.078 -44.345  0.00  0.00     0.002 A 
BRANCH   8  12
ATOM     12  N   UNL d   1     -59.594 -98.772 -46.724  0.00  0.00    -0.162 NA
BRANCH  12  13
ATOM     13  S   UNL d   1     -59.724 -99.426 -47.202  0.00  0.00     0.266 S 
ATOM     14  O   UNL d   1     -59.926-100.207 -47.408  0.00  0.00    -0.203 OA
ATOM     15  O   UNL d   1     -59.923 -99.793 -46.485  0.00  0.00    -0.203 OA
ATOM     16  C   UNL d   1     -59.530 -99.073 -47.917  0.00  0.00     0.165 C 
ENDBRANCH  12  13
ENDBRANCH   8  12
ENDBRANCH   4   6
BRANCH   1  17
ATOM     17  S   UNL d   1     -55.487 -99.145 -44.653  0.00  0.00     0.266 S 
ATOM     18  O   UNL d   1     -54.789 -99.023 -45.076  0.00  0.00    -0.203 OA
ATOM     19  O   UNL d   1     -55.854 -99.435 -45.335  0.00  0.00    -0.203 OA
ATOM     20  C   UNL d   1     -55.184 -98.870 -43.944  0.00  0.00     0.165 C 
ENDBRANCH   1  17
BRANCH   3  21
ATOM     21  C   UNL d   1     -56.095-100.710 -43.997  0.00  0.00     0.018 A 
ATOM     22  C   UNL d   1     -56.206-101.490 -44.241  0.00  0.00     0.002 A 
ATOM     23  C   UNL d   1     -55.743-102.092 -43.917  0.00  0.00     0.000 A 
ATOM     24  C   UNL d   1     -55.175-101.914 -43.355  0.00  0.00     0.000 A 
ATOM     25  C   UNL d   1     -55.071-101.130 -43.118  0.00  0.00     0.000 A 
ATOM     26  C   UNL d   1     -54.711-102.516 -43.031  0.00  0.00     0.000 C 
ATOM     27  C   UNL d   1     -55.522-100.534 -43.432  0.00  0.00     0.002 A 
ENDBRANCH   3  21
TORSDOF 5
ENDMDL
