MODEL 1
REMARK VINA RESULT:      24.9      0.000      0.000
REMARK  5 active torsions:
REMARK  status: ('A' for Active; 'I' for Inactive)
REMARK    1  A    between atoms: C_2  and  C_1 
REMARK    2  A    between atoms: C_8  and  C_2 
REMARK    3  A    between atoms: O_18  and  C_7 
REMARK    4  A    between atoms: C_13  and  C_8 
REMARK    5  A    between atoms: O_20  and  C_11 
ROOT
ATOM      1  C   UNL d   1      14.187  12.500  -1.882  0.00  0.00     0.202 C 
ATOM      2  O   UNL d   1      14.708  11.883  -2.055  0.00  0.00    -0.286 OA
ENDROOT
BRANCH   1   3
ATOM      3  C   UNL d   1      14.438  13.131  -1.415  0.00  0.00     0.117 A 
ATOM      4  C   UNL d   1      14.834  13.768  -1.763  0.00  0.00     0.205 A 
ATOM      5  C   UNL d   1      15.085  14.400  -1.299  0.00  0.00     0.084 A 
ATOM      6  O   UNL d   1      14.981  13.776  -2.574  0.00  0.00    -0.286 OA
ATOM      7  C   UNL d   1      14.942  14.399  -0.487  0.00  0.00     0.202 A 
ATOM      8  C   UNL d   1      14.548  13.767  -0.138  0.00  0.00     0.084 A 
ATOM      9  O   UNL d   1      15.197  15.039  -0.022  0.00  0.00    -0.286 OA
ATOM     10  C   UNL d   1      14.295  13.131  -0.602  0.00  0.00     0.205 A 
ATOM     11  O   UNL d   1      13.900  12.498  -0.253  0.00  0.00    -0.286 OA
ENDBRANCH   1   3
BRANCH   1  12
ATOM     12  C   UNL d   1      13.422  12.482  -2.174  0.00  0.00     0.042 C 
BRANCH  12  13
ATOM     13  C   UNL d   1      13.288  12.483  -2.986  0.00  0.00     0.005 A 
ATOM     14  C   UNL d   1      13.105  13.188  -3.370  0.00  0.00     0.026 A 
ATOM     15  C   UNL d   1      12.970  13.189  -4.182  0.00  0.00     0.116 A 
ATOM     16  C   UNL d   1      13.018  12.486  -4.611  0.00  0.00     0.116 A 
ATOM     17  C   UNL d   1      13.202  11.779  -4.223  0.00  0.00     0.026 A 
ATOM     18  C   UNL d   1      13.336  11.785  -3.407  0.00  0.00     0.002 A 
BRANCH  15  19
ATOM     19  O   UNL d   1      12.785  13.899  -4.573  0.00  0.00    -0.326 OA
ATOM     20  C   UNL d   1      13.073  14.615  -4.286  0.00  0.00     0.181 C 
ENDBRANCH  15  19
BRANCH  16  21
ATOM     21  O   UNL d   1      12.884  12.477  -5.430  0.00  0.00    -0.326 OA
ATOM     22  C   UNL d   1      13.056  11.815  -5.874  0.00  0.00     0.181 C 
ENDBRANCH  16  21
ENDBRANCH  12  13
ENDBRANCH   1  12
TORSDOF 5
ENDMDL
