MODEL 1
REMARK VINA RESULT:      94.3      0.000      0.000
REMARK  5 active torsions:
REMARK  status: ('A' for Active; 'I' for Inactive)
REMARK    1  A    between atoms: C_16  and  N_3 
REMARK    2  A    between atoms: C_11  and  C_6 
REMARK       I    between atoms: N_20  and  C_11 
REMARK    3  A    between atoms: C_21  and  N_20 
REMARK    4  A    between atoms: C_23  and  C_21 
REMARK    5  A    between atoms: C_22  and  C_23 
ROOT
ATOM      1  C   UNL d   1     -56.910 -99.550 -44.253  0.00  0.00     0.155 A 
ATOM      2  C   UNL d   1     -57.180 -99.852 -43.533  0.00  0.00     0.091 A 
ATOM      3  N   UNL d   1     -56.113 -99.594 -44.446  0.00  0.00    -0.275 N 
ATOM      4  N   UNL d   1     -57.444 -99.205 -44.776  0.00  0.00    -0.210 NA
ATOM      5  C   UNL d   1     -55.562 -99.942 -43.922  0.00  0.00     0.175 A 
ATOM      6  C   UNL d   1     -55.834-100.245 -43.197  0.00  0.00     0.094 A 
ATOM      7  C   UNL d   1     -57.981 -99.811 -43.333  0.00  0.00     0.269 A 
ATOM      8  N   UNL d   1     -58.513 -99.465 -43.860  0.00  0.00    -0.258 N 
ATOM      9  C   UNL d   1     -58.250 -99.158 -44.587  0.00  0.00     0.152 A 
ATOM     10  C   UNL d   1     -56.643-100.203 -42.997  0.00  0.00     0.016 A 
ATOM     11  N   UNL d   1     -54.763 -99.984 -44.117  0.00  0.00    -0.128 N 
ATOM     12  C   UNL d   1     -59.319 -99.420 -43.667  0.00  0.00     0.084 A 
ATOM     13  O   UNL d   1     -58.251-100.113 -42.613  0.00  0.00    -0.266 OA
ATOM     14  C   UNL d   1     -58.780 -98.817 -45.105  0.00  0.00     0.038 A 
ATOM     15  C   UNL d   1     -59.839 -99.075 -44.195  0.00  0.00     0.019 A 
ATOM     16  C   UNL d   1     -59.568 -98.772 -44.919  0.00  0.00     0.005 A 
ENDROOT
BRANCH   6  17
ATOM     17  C   UNL d   1     -55.302-100.591 -42.670  0.00  0.00     0.282 C 
ATOM     18  O   UNL d   1     -54.714-100.140 -42.313  0.00  0.00    -0.265 OA
ATOM     19  N   UNL d   1     -55.359-101.404 -42.499  0.00  0.00    -0.206 NA
BRANCH  19  20
ATOM     20  C   UNL d   1     -54.828-101.751 -41.972  0.00  0.00     0.102 C 
BRANCH  20  21
ATOM     21  C   UNL d   1     -55.085-102.342 -41.460  0.00  0.00     0.021 C 
BRANCH  21  22
ATOM     22  C   UNL d   1     -55.107-102.207 -40.647  0.00  0.00     0.002 A 
ATOM     23  C   UNL d   1     -55.132-102.845 -40.129  0.00  0.00     0.000 A 
ATOM     24  C   UNL d   1     -55.153-102.718 -39.316  0.00  0.00     0.000 A 
ATOM     25  C   UNL d   1     -55.149-101.941 -39.028  0.00  0.00     0.000 A 
ATOM     26  C   UNL d   1     -55.124-101.305 -39.559  0.00  0.00     0.000 A 
ATOM     27  C   UNL d   1     -55.103-101.443 -40.362  0.00  0.00     0.000 A 
ENDBRANCH  21  22
ENDBRANCH  20  21
ENDBRANCH  19  20
ENDBRANCH   6  17
BRANCH   3  28
ATOM     28  C   UNL d   1     -55.842 -99.290 -45.170  0.00  0.00     0.067 C 
ATOM     29  C   UNL d   1     -55.038 -99.097 -45.259  0.00  0.00     0.019 C 
ATOM     30  C   UNL d   1     -56.364 -99.180 -45.797  0.00  0.00     0.019 C 
ENDBRANCH   3  28
TORSDOF 5
ENDMDL
