MODEL 1
REMARK VINA RESULT:      26.7      0.000      0.000
REMARK  3 active torsions:
REMARK  status: ('A' for Active; 'I' for Inactive)
REMARK    1  A    between atoms: C_2  and  S_1 
REMARK    2  A    between atoms: N_3  and  S_1 
REMARK    3  A    between atoms: C_10  and  N_3 
ROOT
ATOM      1  S   UNL d   1      13.677  12.108  -2.478  0.00  0.00     0.285 S 
ATOM      2  O   UNL d   1      12.973  12.258  -2.043  0.00  0.00    -0.198 OA
ATOM      3  O   UNL d   1      14.378  11.968  -2.893  0.00  0.00    -0.198 OA
ENDROOT
BRANCH   1   4
ATOM      4  C   UNL d   1      14.132  12.436  -1.858  0.00  0.00     0.107 A 
ATOM      5  C   UNL d   1      14.304  13.246  -1.851  0.00  0.00     0.040 A 
ATOM      6  C   UNL d   1      14.747  13.545  -1.240  0.00  0.00     0.123 A 
ATOM      7  O   UNL d   1      14.928  14.345  -1.216  0.00  0.00    -0.301 OA
ATOM      8  C   UNL d   1      15.023  13.037  -0.632  0.00  0.00     0.123 A 
ATOM      9  C   UNL d   1      15.383  14.640  -0.586  0.00  0.00     0.149 A 
ATOM     10  C   UNL d   1      15.641  14.164  -0.015  0.00  0.00     0.149 A 
ATOM     11  O   UNL d   1      15.469  13.348  -0.020  0.00  0.00    -0.301 OA
ATOM     12  C   UNL d   1      14.845  12.248  -0.655  0.00  0.00     0.028 A 
ATOM     13  C   UNL d   1      14.391  11.960  -1.287  0.00  0.00     0.015 A 
ENDBRANCH   1   4
BRANCH   1  14
ATOM     14  N   UNL d   1      13.242  11.779  -3.105  0.00  0.00    -0.158 NA
BRANCH  14  15
ATOM     15  C   UNL d   1      13.162  12.220  -3.816  0.00  0.00     0.094 A 
ATOM     16  C   UNL d   1      13.105  13.048  -3.766  0.00  0.00     0.020 A 
ATOM     17  C   UNL d   1      13.025  13.486  -4.471  0.00  0.00     0.002 A 
ATOM     18  C   UNL d   1      12.966  14.325  -4.440  0.00  0.00     0.000 C 
ATOM     19  C   UNL d   1      13.005  13.101  -5.200  0.00  0.00     0.000 A 
ATOM     20  C   UNL d   1      13.065  12.279  -5.209  0.00  0.00     0.002 A 
ATOM     21  C   UNL d   1      13.142  11.850  -4.529  0.00  0.00     0.020 A 
ENDBRANCH  14  15
ENDBRANCH   1  14
TORSDOF 3
ENDMDL
MODEL 2
REMARK VINA RESULT:      27.8      1.162      4.043
REMARK  3 active torsions:
REMARK  status: ('A' for Active; 'I' for Inactive)
REMARK    1  A    between atoms: C_2  and  S_1 
REMARK    2  A    between atoms: N_3  and  S_1 
REMARK    3  A    between atoms: C_10  and  N_3 
ROOT
ATOM      1  S   UNL d   1      13.553  12.314  -2.155  0.00  0.00     0.285 S 
ATOM      2  O   UNL d   1      14.181  11.809  -2.396  0.00  0.00    -0.198 OA
ATOM      3  O   UNL d   1      12.934  12.815  -1.934  0.00  0.00    -0.198 OA
ENDROOT
BRANCH   1   4
ATOM      4  C   UNL d   1      13.398  12.506  -2.954  0.00  0.00     0.107 A 
ATOM      5  C   UNL d   1      13.707  12.037  -3.562  0.00  0.00     0.040 A 
ATOM      6  C   UNL d   1      13.545  12.238  -4.331  0.00  0.00     0.123 A 
ATOM      7  O   UNL d   1      13.843  11.786  -4.948  0.00  0.00    -0.301 OA
ATOM      8  C   UNL d   1      13.073  12.911  -4.499  0.00  0.00     0.123 A 
ATOM      9  C   UNL d   1      13.670  12.002  -5.731  0.00  0.00     0.149 A 
ATOM     10  C   UNL d   1      13.227  12.634  -5.889  0.00  0.00     0.149 A 
ATOM     11  O   UNL d   1      12.915  13.107  -5.278  0.00  0.00    -0.301 OA
ATOM     12  C   UNL d   1      12.779  13.358  -3.892  0.00  0.00     0.028 A 
ATOM     13  C   UNL d   1      12.955  13.137  -3.112  0.00  0.00     0.015 A 
ENDBRANCH   1   4
BRANCH   1  14
ATOM     14  N   UNL d   1      13.692  12.137  -1.355  0.00  0.00    -0.158 NA
BRANCH  14  15
ATOM     15  C   UNL d   1      14.306  12.545  -0.952  0.00  0.00     0.094 A 
ATOM     16  C   UNL d   1      14.300  13.376  -0.956  0.00  0.00     0.020 A 
ATOM     17  C   UNL d   1      14.909  13.782  -0.556  0.00  0.00     0.002 A 
ATOM     18  C   UNL d   1      14.920  14.623  -0.550  0.00  0.00     0.000 C 
ATOM     19  C   UNL d   1      15.502  13.362  -0.167  0.00  0.00     0.000 A 
ATOM     20  C   UNL d   1      15.474  12.539  -0.185  0.00  0.00     0.002 A 
ATOM     21  C   UNL d   1      14.887  12.141  -0.570  0.00  0.00     0.020 A 
ENDBRANCH  14  15
ENDBRANCH   1  14
TORSDOF 3
ENDMDL
