MODEL 1
REMARK VINA RESULT:       0.1      0.000      0.000
REMARK  4 active torsions:
REMARK  status: ('A' for Active; 'I' for Inactive)
REMARK    1  A    between atoms: C_6  and  S_1 
REMARK    2  A    between atoms: N_9  and  S_1 
REMARK    3  A    between atoms: C_17  and  N_9 
REMARK       I    between atoms: C_13  and  N_15 
REMARK    4  A    between atoms: N_15  and  C_18 
ROOT
ATOM      1  C   UNL d   1      31.968  18.114 -24.064  0.00  0.00     0.054 A 
ATOM      2  C   UNL d   1      32.593  17.822 -23.638  0.00  0.00     0.196 A 
ATOM      3  C   UNL d   1      31.335  17.675 -24.262  0.00  0.00     0.043 A 
ATOM      4  C   UNL d   1      31.288  16.901 -24.042  0.00  0.00     0.196 A 
ATOM      5  C   UNL d   1      31.962  18.927 -24.325  0.00  0.00     0.108 A 
ATOM      6  C   UNL d   1      32.576  17.032 -23.397  0.00  0.00     0.042 A 
ATOM      7  C   UNL d   1      31.927  16.583 -23.601  0.00  0.00     0.042 A 
ATOM      8  O   UNL d   1      33.238  18.348 -23.461  0.00  0.00    -0.286 OA
ATOM      9  O   UNL d   1      30.611  16.437 -24.256  0.00  0.00    -0.287 OA
ATOM     10  C   UNL d   1      30.693  17.990 -24.705  0.00  0.00     0.003 A 
ATOM     11  C   UNL d   1      31.340  19.211 -24.746  0.00  0.00     0.013 A 
ATOM     12  C   UNL d   1      33.193  16.700 -22.962  0.00  0.00     0.003 A 
ATOM     13  C   UNL d   1      31.888  15.745 -23.356  0.00  0.00     0.003 A 
ATOM     14  C   UNL d   1      30.710  18.780 -24.946  0.00  0.00     0.001 A 
ATOM     15  C   UNL d   1      33.165  15.933 -22.734  0.00  0.00     0.000 A 
ATOM     16  C   UNL d   1      32.513  15.453 -22.930  0.00  0.00     0.000 A 
ENDROOT
BRANCH   5  17
ATOM     17  S   UNL d   1      32.622  19.446 -24.137  0.00  0.00     0.285 S 
ATOM     18  O   UNL d   1      32.811  19.485 -24.927  0.00  0.00    -0.198 OA
ATOM     19  O   UNL d   1      32.408  19.393 -23.312  0.00  0.00    -0.198 OA
BRANCH  17  20
ATOM     20  N   UNL d   1      33.241  19.933 -23.961  0.00  0.00    -0.158 NA
BRANCH  20  21
ATOM     21  C   UNL d   1      33.116  20.617 -23.482  0.00  0.00     0.094 A 
ATOM     22  C   UNL d   1      32.929  21.337 -23.822  0.00  0.00     0.021 A 
ATOM     23  C   UNL d   1      32.806  22.011 -23.344  0.00  0.00     0.021 A 
ATOM     24  C   UNL d   1      32.875  21.955 -22.498  0.00  0.00     0.085 A 
ATOM     25  C   UNL d   1      33.067  21.208 -22.164  0.00  0.00     0.021 A 
ATOM     26  C   UNL d   1      33.185  20.561 -22.632  0.00  0.00     0.021 A 
BRANCH  24  27
ATOM     27  N   UNL d   1      32.750  22.629 -22.046  0.00  0.00    -0.208 NA
ATOM     28  C   UNL d   1      32.270  22.632 -21.368  0.00  0.00     0.279 C 
ATOM     29  O   UNL d   1      31.900  21.889 -21.150  0.00  0.00    -0.265 OA
ATOM     30  C   UNL d   1      32.125  23.295 -20.891  0.00  0.00     0.068 C 
ENDBRANCH  24  27
ENDBRANCH  20  21
ENDBRANCH  17  20
ENDBRANCH   5  17
TORSDOF 4
ENDMDL
MODEL 2
REMARK VINA RESULT:       0.2      1.299      5.053
REMARK  4 active torsions:
REMARK  status: ('A' for Active; 'I' for Inactive)
REMARK    1  A    between atoms: C_6  and  S_1 
REMARK    2  A    between atoms: N_9  and  S_1 
REMARK    3  A    between atoms: C_17  and  N_9 
REMARK       I    between atoms: C_13  and  N_15 
REMARK    4  A    between atoms: N_15  and  C_18 
ROOT
ATOM      1  C   UNL d   1      33.213  20.438 -22.511  0.00  0.00     0.054 A 
ATOM      2  C   UNL d   1      33.224  20.858 -23.205  0.00  0.00     0.196 A 
ATOM      3  C   UNL d   1      33.206  20.785 -21.796  0.00  0.00     0.043 A 
ATOM      4  C   UNL d   1      33.209  21.589 -21.729  0.00  0.00     0.196 A 
ATOM      5  C   UNL d   1      33.210  19.585 -22.519  0.00  0.00     0.108 A 
ATOM      6  C   UNL d   1      33.227  21.683 -23.172  0.00  0.00     0.042 A 
ATOM      7  C   UNL d   1      33.219  22.037 -22.438  0.00  0.00     0.042 A 
ATOM      8  O   UNL d   1      33.231  20.422 -23.937  0.00  0.00    -0.286 OA
ATOM      9  O   UNL d   1      33.200  21.953 -20.963  0.00  0.00    -0.287 OA
ATOM     10  C   UNL d   1      33.195  20.339 -21.083  0.00  0.00     0.003 A 
ATOM     11  C   UNL d   1      33.199  19.175 -21.829  0.00  0.00     0.013 A 
ATOM     12  C   UNL d   1      33.238  22.143 -23.857  0.00  0.00     0.003 A 
ATOM     13  C   UNL d   1      33.223  22.909 -22.379  0.00  0.00     0.003 A 
ATOM     14  C   UNL d   1      33.192  19.513 -21.116  0.00  0.00     0.001 A 
ATOM     15  C   UNL d   1      33.241  22.942 -23.812  0.00  0.00     0.000 A 
ATOM     16  C   UNL d   1      33.233  23.328 -23.074  0.00  0.00     0.000 A 
ENDROOT
BRANCH   5  17
ATOM     17  S   UNL d   1      33.217  19.160 -23.267  0.00  0.00     0.285 S 
ATOM     18  O   UNL d   1      33.241  18.456 -22.862  0.00  0.00    -0.198 OA
ATOM     19  O   UNL d   1      33.193  19.909 -23.676  0.00  0.00    -0.198 OA
BRANCH  17  20
ATOM     20  N   UNL d   1      33.225  18.761 -23.969  0.00  0.00    -0.158 NA
BRANCH  20  21
ATOM     21  C   UNL d   1      32.615  18.204 -24.144  0.00  0.00     0.094 A 
ATOM     22  C   UNL d   1      31.892  18.452 -24.434  0.00  0.00     0.021 A 
ATOM     23  C   UNL d   1      31.293  17.896 -24.606  0.00  0.00     0.021 A 
ATOM     24  C   UNL d   1      31.429  17.066 -24.479  0.00  0.00     0.085 A 
ATOM     25  C   UNL d   1      32.176  16.827 -24.180  0.00  0.00     0.021 A 
ATOM     26  C   UNL d   1      32.752  17.369 -24.016  0.00  0.00     0.021 A 
BRANCH  24  27
ATOM     27  N   UNL d   1      30.827  16.536 -24.654  0.00  0.00    -0.208 NA
ATOM     28  C   UNL d   1      30.446  16.081 -24.072  0.00  0.00     0.279 C 
ATOM     29  O   UNL d   1      30.710  16.187 -23.262  0.00  0.00    -0.265 OA
ATOM     30  C   UNL d   1      29.836  15.538 -24.216  0.00  0.00     0.068 C 
ENDBRANCH  24  27
ENDBRANCH  20  21
ENDBRANCH  17  20
ENDBRANCH   5  17
TORSDOF 4
ENDMDL
MODEL 3
REMARK VINA RESULT:       0.7      1.938      4.592
REMARK  4 active torsions:
REMARK  status: ('A' for Active; 'I' for Inactive)
REMARK    1  A    between atoms: C_6  and  S_1 
REMARK    2  A    between atoms: N_9  and  S_1 
REMARK    3  A    between atoms: C_17  and  N_9 
REMARK       I    between atoms: C_13  and  N_15 
REMARK    4  A    between atoms: N_15  and  C_18 
ROOT
ATOM      1  C   UNL d   1      32.761  19.181 -23.539  0.00  0.00     0.054 A 
ATOM      2  C   UNL d   1      32.762  18.851 -22.798  0.00  0.00     0.196 A 
ATOM      3  C   UNL d   1      32.906  19.952 -23.670  0.00  0.00     0.043 A 
ATOM      4  C   UNL d   1      33.064  20.450 -23.055  0.00  0.00     0.196 A 
ATOM      5  C   UNL d   1      32.600  18.703 -24.227  0.00  0.00     0.108 A 
ATOM      6  C   UNL d   1      32.920  19.334 -22.147  0.00  0.00     0.042 A 
ATOM      7  C   UNL d   1      33.069  20.124 -22.283  0.00  0.00     0.042 A 
ATOM      8  O   UNL d   1      32.598  18.018 -22.730  0.00  0.00    -0.286 OA
ATOM      9  O   UNL d   1      33.219  21.271 -23.202  0.00  0.00    -0.287 OA
ATOM     10  C   UNL d   1      32.903  20.282 -24.444  0.00  0.00     0.003 A 
ATOM     11  C   UNL d   1      32.601  19.036 -24.959  0.00  0.00     0.013 A 
ATOM     12  C   UNL d   1      32.929  19.033 -21.379  0.00  0.00     0.003 A 
ATOM     13  C   UNL d   1      33.239  20.653 -21.609  0.00  0.00     0.003 A 
ATOM     14  C   UNL d   1      32.744  19.799 -25.095  0.00  0.00     0.001 A 
ATOM     15  C   UNL d   1      33.084  19.512 -20.755  0.00  0.00     0.000 A 
ATOM     16  C   UNL d   1      33.240  20.322 -20.868  0.00  0.00     0.000 A 
ENDROOT
BRANCH   5  17
ATOM     17  S   UNL d   1      32.437  17.863 -24.142  0.00  0.00     0.285 S 
ATOM     18  O   UNL d   1      31.675  17.989 -24.395  0.00  0.00    -0.198 OA
ATOM     19  O   UNL d   1      33.241  17.749 -23.877  0.00  0.00    -0.198 OA
BRANCH  17  20
ATOM     20  N   UNL d   1      32.284  17.074 -24.061  0.00  0.00    -0.158 NA
BRANCH  20  21
ATOM     21  C   UNL d   1      31.496  16.787 -24.147  0.00  0.00     0.094 A 
ATOM     22  C   UNL d   1      31.172  16.664 -24.888  0.00  0.00     0.021 A 
ATOM     23  C   UNL d   1      30.391  16.379 -24.966  0.00  0.00     0.021 A 
ATOM     24  C   UNL d   1      29.924  16.213 -24.275  0.00  0.00     0.085 A 
ATOM     25  C   UNL d   1      30.269  16.344 -23.521  0.00  0.00     0.021 A 
ATOM     26  C   UNL d   1      31.025  16.620 -23.452  0.00  0.00     0.021 A 
BRANCH  24  27
ATOM     27  N   UNL d   1      29.158  15.934 -24.374  0.00  0.00    -0.208 NA
ATOM     28  C   UNL d   1      28.487  16.398 -24.219  0.00  0.00     0.279 C 
ATOM     29  O   UNL d   1      28.624  17.201 -23.945  0.00  0.00    -0.265 OA
ATOM     30  C   UNL d   1      27.702  16.146 -24.309  0.00  0.00     0.068 C 
ENDBRANCH  24  27
ENDBRANCH  20  21
ENDBRANCH  17  20
ENDBRANCH   5  17
TORSDOF 4
ENDMDL
MODEL 4
REMARK VINA RESULT:       0.9      1.312      2.497
REMARK  4 active torsions:
REMARK  status: ('A' for Active; 'I' for Inactive)
REMARK    1  A    between atoms: C_6  and  S_1 
REMARK    2  A    between atoms: N_9  and  S_1 
REMARK    3  A    between atoms: C_17  and  N_9 
REMARK       I    between atoms: C_13  and  N_15 
REMARK    4  A    between atoms: N_15  and  C_18 
ROOT
ATOM      1  C   UNL d   1      31.275  16.969 -23.770  0.00  0.00     0.054 A 
ATOM      2  C   UNL d   1      30.897  17.601 -24.111  0.00  0.00     0.196 A 
ATOM      3  C   UNL d   1      30.907  16.283 -23.604  0.00  0.00     0.043 A 
ATOM      4  C   UNL d   1      30.124  16.186 -23.772  0.00  0.00     0.196 A 
ATOM      5  C   UNL d   1      32.102  17.013 -23.569  0.00  0.00     0.108 A 
ATOM      6  C   UNL d   1      30.095  17.534 -24.296  0.00  0.00     0.042 A 
ATOM      7  C   UNL d   1      29.720  16.831 -24.125  0.00  0.00     0.042 A 
ATOM      8  O   UNL d   1      31.352  18.305 -24.261  0.00  0.00    -0.286 OA
ATOM      9  O   UNL d   1      29.738  15.453 -23.593  0.00  0.00    -0.287 OA
ATOM     10  C   UNL d   1      31.309  15.634 -23.250  0.00  0.00     0.003 A 
ATOM     11  C   UNL d   1      32.471  16.384 -23.232  0.00  0.00     0.013 A 
ATOM     12  C   UNL d   1      29.679  18.156 -24.643  0.00  0.00     0.003 A 
ATOM     13  C   UNL d   1      28.872  16.738 -24.312  0.00  0.00     0.003 A 
ATOM     14  C   UNL d   1      32.111  15.701 -23.065  0.00  0.00     0.001 A 
ATOM     15  C   UNL d   1      28.901  18.079 -24.818  0.00  0.00     0.000 A 
ATOM     16  C   UNL d   1      28.495  17.371 -24.653  0.00  0.00     0.000 A 
ENDROOT
BRANCH   5  17
ATOM     17  S   UNL d   1      32.548  17.732 -23.728  0.00  0.00     0.285 S 
ATOM     18  O   UNL d   1      32.166  17.807 -24.441  0.00  0.00    -0.198 OA
ATOM     19  O   UNL d   1      32.939  17.637 -22.974  0.00  0.00    -0.198 OA
BRANCH  17  20
ATOM     20  N   UNL d   1      32.967  18.406 -23.875  0.00  0.00    -0.158 NA
BRANCH  20  21
ATOM     21  C   UNL d   1      33.037  18.998 -23.278  0.00  0.00     0.094 A 
ATOM     22  C   UNL d   1      33.161  19.781 -23.478  0.00  0.00     0.021 A 
ATOM     23  C   UNL d   1      33.230  20.364 -22.883  0.00  0.00     0.021 A 
ATOM     24  C   UNL d   1      33.171  20.147 -22.062  0.00  0.00     0.085 A 
ATOM     25  C   UNL d   1      33.043  19.338 -21.873  0.00  0.00     0.021 A 
ATOM     26  C   UNL d   1      32.977  18.781 -22.453  0.00  0.00     0.021 A 
BRANCH  24  27
ATOM     27  N   UNL d   1      33.241  20.734 -21.493  0.00  0.00    -0.208 NA
ATOM     28  C   UNL d   1      32.584  21.123 -21.166  0.00  0.00     0.279 C 
ATOM     29  O   UNL d   1      31.809  20.885 -21.450  0.00  0.00    -0.265 OA
ATOM     30  C   UNL d   1      32.621  21.719 -20.590  0.00  0.00     0.068 C 
ENDBRANCH  24  27
ENDBRANCH  20  21
ENDBRANCH  17  20
ENDBRANCH   5  17
TORSDOF 4
ENDMDL
MODEL 5
REMARK VINA RESULT:       1.3      1.437      5.149
REMARK  4 active torsions:
REMARK  status: ('A' for Active; 'I' for Inactive)
REMARK    1  A    between atoms: C_6  and  S_1 
REMARK    2  A    between atoms: N_9  and  S_1 
REMARK    3  A    between atoms: C_17  and  N_9 
REMARK       I    between atoms: C_13  and  N_15 
REMARK    4  A    between atoms: N_15  and  C_18 
ROOT
ATOM      1  C   UNL d   1      33.075  21.491 -22.355  0.00  0.00     0.054 A 
ATOM      2  C   UNL d   1      33.155  21.209 -21.598  0.00  0.00     0.196 A 
ATOM      3  C   UNL d   1      32.996  22.264 -22.523  0.00  0.00     0.043 A 
ATOM      4  C   UNL d   1      32.992  22.814 -21.932  0.00  0.00     0.196 A 
ATOM      5  C   UNL d   1      33.073  20.956 -23.019  0.00  0.00     0.108 A 
ATOM      6  C   UNL d   1      33.154  21.746 -20.971  0.00  0.00     0.042 A 
ATOM      7  C   UNL d   1      33.073  22.539 -21.145  0.00  0.00     0.042 A 
ATOM      8  O   UNL d   1      33.235  20.368 -21.490  0.00  0.00    -0.286 OA
ATOM      9  O   UNL d   1      32.908  23.637 -22.118  0.00  0.00    -0.287 OA
ATOM     10  C   UNL d   1      32.915  22.544 -23.312  0.00  0.00     0.003 A 
ATOM     11  C   UNL d   1      32.994  21.241 -23.766  0.00  0.00     0.013 A 
ATOM     12  C   UNL d   1      33.233  21.496 -20.189  0.00  0.00     0.003 A 
ATOM     13  C   UNL d   1      33.070  23.124 -20.497  0.00  0.00     0.003 A 
ATOM     14  C   UNL d   1      32.915  22.007 -23.939  0.00  0.00     0.001 A 
ATOM     15  C   UNL d   1      33.231  22.027 -19.589  0.00  0.00     0.000 A 
ATOM     16  C   UNL d   1      33.150  22.842 -19.740  0.00  0.00     0.000 A 
ENDROOT
BRANCH   5  17
ATOM     17  S   UNL d   1      33.155  20.109 -22.894  0.00  0.00     0.285 S 
ATOM     18  O   UNL d   1      33.241  20.002 -23.695  0.00  0.00    -0.198 OA
ATOM     19  O   UNL d   1      33.062  20.241 -22.055  0.00  0.00    -0.198 OA
BRANCH  17  20
ATOM     20  N   UNL d   1      33.231  19.315 -22.775  0.00  0.00    -0.158 NA
BRANCH  20  21
ATOM     21  C   UNL d   1      32.803  18.772 -23.259  0.00  0.00     0.094 A 
ATOM     22  C   UNL d   1      32.034  18.563 -23.074  0.00  0.00     0.021 A 
ATOM     23  C   UNL d   1      31.615  18.026 -23.557  0.00  0.00     0.021 A 
ATOM     24  C   UNL d   1      31.984  17.691 -24.246  0.00  0.00     0.085 A 
ATOM     25  C   UNL d   1      32.774  17.915 -24.423  0.00  0.00     0.021 A 
ATOM     26  C   UNL d   1      33.174  18.435 -23.952  0.00  0.00     0.021 A 
BRANCH  24  27
ATOM     27  N   UNL d   1      31.555  17.165 -24.708  0.00  0.00    -0.208 NA
ATOM     28  C   UNL d   1      31.574  16.343 -24.588  0.00  0.00     0.279 C 
ATOM     29  O   UNL d   1      32.070  16.055 -23.949  0.00  0.00    -0.265 OA
ATOM     30  C   UNL d   1      31.153  15.786 -25.036  0.00  0.00     0.068 C 
ENDBRANCH  24  27
ENDBRANCH  20  21
ENDBRANCH  17  20
ENDBRANCH   5  17
TORSDOF 4
ENDMDL
