MODEL 1
REMARK VINA RESULT:      -1.4      0.000      0.000
REMARK  5 active torsions:
REMARK  status: ('A' for Active; 'I' for Inactive)
REMARK    1  A    between atoms: C_6  and  C_1 
REMARK    2  A    between atoms: N_7  and  C_2 
REMARK    3  A    between atoms: O_11  and  C_6 
REMARK       I    between atoms: C_8  and  N_7 
REMARK    4  A    between atoms: C_14  and  C_8 
REMARK    5  A    between atoms: C_15  and  O_11 
ROOT
ATOM      1  C   UNL d   1      30.958  17.339 -24.669  0.00  0.00     0.162 A 
ATOM      2  C   UNL d   1      31.763  17.182 -24.574  0.00  0.00     0.109 A 
ATOM      3  N   UNL d   1      30.873  18.129 -24.880  0.00  0.00    -0.239 NA
ATOM      4  C   UNL d   1      32.173  17.876 -24.727  0.00  0.00     0.037 A 
ATOM      5  C   UNL d   1      31.629  18.465 -24.916  0.00  0.00     0.083 A 
ATOM      6  C   UNL d   1      32.982  18.047 -24.716  0.00  0.00     0.003 A 
ATOM      7  C   UNL d   1      31.888  19.229 -25.097  0.00  0.00     0.019 A 
ATOM      8  C   UNL d   1      33.241  18.811 -24.897  0.00  0.00     0.000 A 
ATOM      9  C   UNL d   1      32.695  19.396 -25.086  0.00  0.00     0.002 A 
ENDROOT
BRANCH   1  10
ATOM     10  C   UNL d   1      30.347  16.792 -24.568  0.00  0.00     0.320 C 
ATOM     11  O   UNL d   1      30.270  16.159 -25.088  0.00  0.00    -0.257 OA
BRANCH  10  12
ATOM     12  O   UNL d   1      29.809  16.873 -23.949  0.00  0.00    -0.270 OA
BRANCH  12  13
ATOM     13  C   UNL d   1      29.116  16.428 -23.955  0.00  0.00     0.126 C 
ATOM     14  C   UNL d   1      28.661  16.379 -23.276  0.00  0.00     0.029 C 
ENDBRANCH  12  13
ENDBRANCH  10  12
ENDBRANCH   1  10
BRANCH   2  15
ATOM     15  N   UNL d   1      32.096  16.454 -24.363  0.00  0.00    -0.206 NA
ATOM     16  C   UNL d   1      32.439  16.363 -23.607  0.00  0.00     0.279 C 
ATOM     17  O   UNL d   1      32.442  17.000 -23.078  0.00  0.00    -0.265 OA
BRANCH  16  18
ATOM     18  C   UNL d   1      32.770  15.637 -23.399  0.00  0.00     0.062 C 
ATOM     19  C   UNL d   1      33.169  15.563 -22.677  0.00  0.00     0.005 C 
ENDBRANCH  16  18
ENDBRANCH   2  15
TORSDOF 5
ENDMDL
MODEL 2
REMARK VINA RESULT:      -0.6      0.901      2.562
REMARK  5 active torsions:
REMARK  status: ('A' for Active; 'I' for Inactive)
REMARK    1  A    between atoms: C_6  and  C_1 
REMARK    2  A    between atoms: N_7  and  C_2 
REMARK    3  A    between atoms: O_11  and  C_6 
REMARK       I    between atoms: C_8  and  N_7 
REMARK    4  A    between atoms: C_14  and  C_8 
REMARK    5  A    between atoms: C_15  and  O_11 
ROOT
ATOM      1  C   UNL d   1      30.850  16.443 -23.965  0.00  0.00     0.162 A 
ATOM      2  C   UNL d   1      31.629  16.685 -24.094  0.00  0.00     0.109 A 
ATOM      3  N   UNL d   1      30.842  15.943 -23.312  0.00  0.00    -0.239 NA
ATOM      4  C   UNL d   1      32.100  16.334 -23.521  0.00  0.00     0.037 A 
ATOM      5  C   UNL d   1      31.619  15.874 -23.035  0.00  0.00     0.083 A 
ATOM      6  C   UNL d   1      32.913  16.376 -23.379  0.00  0.00     0.003 A 
ATOM      7  C   UNL d   1      31.946  15.453 -22.404  0.00  0.00     0.019 A 
ATOM      8  C   UNL d   1      33.241  15.954 -22.749  0.00  0.00     0.000 A 
ATOM      9  C   UNL d   1      32.758  15.496 -22.266  0.00  0.00     0.002 A 
ENDROOT
BRANCH   1  10
ATOM     10  C   UNL d   1      30.197  16.667 -24.417  0.00  0.00     0.320 C 
ATOM     11  O   UNL d   1      29.987  16.233 -25.083  0.00  0.00    -0.257 OA
BRANCH  10  12
ATOM     12  O   UNL d   1      29.748  17.326 -24.206  0.00  0.00    -0.270 OA
BRANCH  12  13
ATOM     13  C   UNL d   1      28.955  17.363 -24.430  0.00  0.00     0.126 C 
ATOM     14  C   UNL d   1      28.475  17.950 -24.120  0.00  0.00     0.029 C 
ENDBRANCH  12  13
ENDBRANCH  10  12
ENDBRANCH   1  10
BRANCH   2  15
ATOM     15  N   UNL d   1      31.888  17.192 -24.696  0.00  0.00    -0.206 NA
ATOM     16  C   UNL d   1      32.189  17.945 -24.497  0.00  0.00     0.279 C 
ATOM     17  O   UNL d   1      32.225  18.176 -23.703  0.00  0.00    -0.265 OA
BRANCH  16  18
ATOM     18  C   UNL d   1      32.446  18.448 -25.097  0.00  0.00     0.062 C 
ATOM     19  C   UNL d   1      32.807  19.167 -24.899  0.00  0.00     0.005 C 
ENDBRANCH  16  18
ENDBRANCH   2  15
TORSDOF 5
ENDMDL
MODEL 3
REMARK VINA RESULT:      -0.0      4.146      5.342
REMARK  5 active torsions:
REMARK  status: ('A' for Active; 'I' for Inactive)
REMARK    1  A    between atoms: C_6  and  C_1 
REMARK    2  A    between atoms: N_7  and  C_2 
REMARK    3  A    between atoms: O_11  and  C_6 
REMARK       I    between atoms: C_8  and  N_7 
REMARK    4  A    between atoms: C_14  and  C_8 
REMARK    5  A    between atoms: C_15  and  O_11 
ROOT
ATOM      1  C   UNL d   1      33.224  20.982 -22.645  0.00  0.00     0.162 A 
ATOM      2  C   UNL d   1      33.232  21.677 -22.200  0.00  0.00     0.109 A 
ATOM      3  N   UNL d   1      33.220  21.187 -23.442  0.00  0.00    -0.239 NA
ATOM      4  C   UNL d   1      33.234  22.310 -22.723  0.00  0.00     0.037 A 
ATOM      5  C   UNL d   1      33.226  22.014 -23.491  0.00  0.00     0.083 A 
ATOM      6  C   UNL d   1      33.241  23.127 -22.594  0.00  0.00     0.003 A 
ATOM      7  C   UNL d   1      33.225  22.529 -24.137  0.00  0.00     0.019 A 
ATOM      8  C   UNL d   1      33.240  23.643 -23.239  0.00  0.00     0.000 A 
ATOM      9  C   UNL d   1      33.233  23.343 -24.005  0.00  0.00     0.002 A 
ENDROOT
BRANCH   1  10
ATOM     10  C   UNL d   1      33.220  20.216 -22.339  0.00  0.00     0.320 C 
ATOM     11  O   UNL d   1      33.227  20.097 -21.524  0.00  0.00    -0.257 OA
BRANCH  10  12
ATOM     12  O   UNL d   1      33.208  19.562 -22.842  0.00  0.00    -0.270 OA
BRANCH  12  13
ATOM     13  C   UNL d   1      33.039  18.817 -22.532  0.00  0.00     0.126 C 
ATOM     14  C   UNL d   1      32.843  18.205 -23.039  0.00  0.00     0.029 C 
ENDBRANCH  12  13
ENDBRANCH  10  12
ENDBRANCH   1  10
BRANCH   2  15
ATOM     15  N   UNL d   1      33.238  21.726 -21.374  0.00  0.00    -0.206 NA
ATOM     16  C   UNL d   1      32.569  22.027 -20.975  0.00  0.00     0.279 C 
ATOM     17  O   UNL d   1      31.908  22.272 -21.409  0.00  0.00    -0.265 OA
BRANCH  16  18
ATOM     18  C   UNL d   1      32.578  22.075 -20.152  0.00  0.00     0.062 C 
ATOM     19  C   UNL d   1      32.123  22.655 -19.773  0.00  0.00     0.005 C 
ENDBRANCH  16  18
ENDBRANCH   2  15
TORSDOF 5
ENDMDL
MODEL 4
REMARK VINA RESULT:       0.0      4.103      5.572
REMARK  5 active torsions:
REMARK  status: ('A' for Active; 'I' for Inactive)
REMARK    1  A    between atoms: C_6  and  C_1 
REMARK    2  A    between atoms: N_7  and  C_2 
REMARK    3  A    between atoms: O_11  and  C_6 
REMARK       I    between atoms: C_8  and  N_7 
REMARK    4  A    between atoms: C_14  and  C_8 
REMARK    5  A    between atoms: C_15  and  O_11 
ROOT
ATOM      1  C   UNL d   1      33.232  21.475 -23.033  0.00  0.00     0.162 A 
ATOM      2  C   UNL d   1      33.235  21.133 -22.281  0.00  0.00     0.109 A 
ATOM      3  N   UNL d   1      33.230  20.870 -23.590  0.00  0.00    -0.239 NA
ATOM      4  C   UNL d   1      33.236  20.317 -22.376  0.00  0.00     0.037 A 
ATOM      5  C   UNL d   1      33.232  20.149 -23.183  0.00  0.00     0.083 A 
ATOM      6  C   UNL d   1      33.239  19.702 -21.824  0.00  0.00     0.003 A 
ATOM      7  C   UNL d   1      33.232  19.365 -23.444  0.00  0.00     0.019 A 
ATOM      8  C   UNL d   1      33.239  18.918 -22.086  0.00  0.00     0.000 A 
ATOM      9  C   UNL d   1      33.235  18.754 -22.891  0.00  0.00     0.002 A 
ENDROOT
BRANCH   1  10
ATOM     10  C   UNL d   1      33.230  22.285 -23.192  0.00  0.00     0.320 C 
ATOM     11  O   UNL d   1      33.219  22.827 -22.572  0.00  0.00    -0.257 OA
BRANCH  10  12
ATOM     12  O   UNL d   1      33.240  22.560 -23.969  0.00  0.00    -0.270 OA
BRANCH  12  13
ATOM     13  C   UNL d   1      33.189  23.370 -24.111  0.00  0.00     0.126 C 
ATOM     14  C   UNL d   1      32.946  23.636 -24.846  0.00  0.00     0.029 C 
ENDBRANCH  12  13
ENDBRANCH  10  12
ENDBRANCH   1  10
BRANCH   2  15
ATOM     15  N   UNL d   1      33.238  21.540 -21.561  0.00  0.00    -0.206 NA
ATOM     16  C   UNL d   1      32.523  21.635 -21.139  0.00  0.00     0.279 C 
ATOM     17  O   UNL d   1      31.821  21.322 -21.446  0.00  0.00    -0.265 OA
BRANCH  16  18
ATOM     18  C   UNL d   1      32.529  22.042 -20.422  0.00  0.00     0.062 C 
ATOM     19  C   UNL d   1      31.815  22.316 -20.104  0.00  0.00     0.005 C 
ENDBRANCH  16  18
ENDBRANCH   2  15
TORSDOF 5
ENDMDL
MODEL 5
REMARK VINA RESULT:       0.2      1.278      2.632
REMARK  5 active torsions:
REMARK  status: ('A' for Active; 'I' for Inactive)
REMARK    1  A    between atoms: C_6  and  C_1 
REMARK    2  A    between atoms: N_7  and  C_2 
REMARK    3  A    between atoms: O_11  and  C_6 
REMARK       I    between atoms: C_8  and  N_7 
REMARK    4  A    between atoms: C_14  and  C_8 
REMARK    5  A    between atoms: C_15  and  O_11 
ROOT
ATOM      1  C   UNL d   1      30.398  16.093 -24.030  0.00  0.00     0.162 A 
ATOM      2  C   UNL d   1      30.608  16.770 -24.453  0.00  0.00     0.109 A 
ATOM      3  N   UNL d   1      31.065  15.822 -23.632  0.00  0.00    -0.239 NA
ATOM      4  C   UNL d   1      31.404  16.915 -24.317  0.00  0.00     0.037 A 
ATOM      5  C   UNL d   1      31.692  16.333 -23.810  0.00  0.00     0.083 A 
ATOM      6  C   UNL d   1      31.907  17.510 -24.593  0.00  0.00     0.003 A 
ATOM      7  C   UNL d   1      32.484  16.340 -23.575  0.00  0.00     0.019 A 
ATOM      8  C   UNL d   1      32.699  17.517 -24.358  0.00  0.00     0.000 A 
ATOM      9  C   UNL d   1      32.983  16.935 -23.852  0.00  0.00     0.002 A 
ENDROOT
BRANCH   1  10
ATOM     10  C   UNL d   1      29.647  15.751 -24.012  0.00  0.00     0.320 C 
ATOM     11  O   UNL d   1      29.282  15.518 -24.712  0.00  0.00    -0.257 OA
BRANCH  10  12
ATOM     12  O   UNL d   1      29.254  15.640 -23.295  0.00  0.00    -0.270 OA
BRANCH  12  13
ATOM     13  C   UNL d   1      28.451  15.453 -23.300  0.00  0.00     0.126 C 
ATOM     14  C   UNL d   1      28.029  15.469 -22.598  0.00  0.00     0.029 C 
ENDBRANCH  12  13
ENDBRANCH  10  12
ENDBRANCH   1  10
BRANCH   2  15
ATOM     15  N   UNL d   1      30.104  17.221 -24.931  0.00  0.00    -0.206 NA
ATOM     16  C   UNL d   1      29.751  17.911 -24.620  0.00  0.00     0.279 C 
ATOM     17  O   UNL d   1      29.909  18.136 -23.839  0.00  0.00    -0.265 OA
BRANCH  16  18
ATOM     18  C   UNL d   1      29.250  18.358 -25.097  0.00  0.00     0.062 C 
ATOM     19  C   UNL d   1      28.562  18.686 -24.771  0.00  0.00     0.005 C 
ENDBRANCH  16  18
ENDBRANCH   2  15
TORSDOF 5
ENDMDL
MODEL 6
REMARK VINA RESULT:       1.0      5.898      6.871
REMARK  5 active torsions:
REMARK  status: ('A' for Active; 'I' for Inactive)
REMARK    1  A    between atoms: C_6  and  C_1 
REMARK    2  A    between atoms: N_7  and  C_2 
REMARK    3  A    between atoms: O_11  and  C_6 
REMARK       I    between atoms: C_8  and  N_7 
REMARK    4  A    between atoms: C_14  and  C_8 
REMARK    5  A    between atoms: C_15  and  O_11 
ROOT
ATOM      1  C   UNL d   1      32.585  23.192 -21.029  0.00  0.00     0.162 A 
ATOM      2  C   UNL d   1      32.887  22.523 -20.651  0.00  0.00     0.109 A 
ATOM      3  N   UNL d   1      32.287  23.700 -20.454  0.00  0.00    -0.239 NA
ATOM      4  C   UNL d   1      32.775  22.619 -19.843  0.00  0.00     0.037 A 
ATOM      5  C   UNL d   1      32.405  23.344 -19.716  0.00  0.00     0.083 A 
ATOM      6  C   UNL d   1      32.965  22.132 -19.203  0.00  0.00     0.003 A 
ATOM      7  C   UNL d   1      32.222  23.589 -18.948  0.00  0.00     0.019 A 
ATOM      8  C   UNL d   1      32.782  22.377 -18.435  0.00  0.00     0.000 A 
ATOM      9  C   UNL d   1      32.413  23.101 -18.311  0.00  0.00     0.002 A 
ENDROOT
BRANCH   1  10
ATOM     10  C   UNL d   1      32.585  23.324 -21.844  0.00  0.00     0.320 C 
ATOM     11  O   UNL d   1      33.241  23.664 -22.207  0.00  0.00    -0.257 OA
BRANCH  10  12
ATOM     12  O   UNL d   1      31.931  23.118 -22.302  0.00  0.00    -0.270 OA
BRANCH  12  13
ATOM     13  C   UNL d   1      31.706  23.606 -22.927  0.00  0.00     0.126 C 
ATOM     14  C   UNL d   1      31.728  23.317 -23.693  0.00  0.00     0.029 C 
ENDBRANCH  12  13
ENDBRANCH  10  12
ENDBRANCH   1  10
BRANCH   2  15
ATOM     15  N   UNL d   1      33.240  21.872 -21.021  0.00  0.00    -0.206 NA
ATOM     16  C   UNL d   1      32.819  21.153 -21.078  0.00  0.00     0.279 C 
ATOM     17  O   UNL d   1      32.055  21.100 -20.764  0.00  0.00    -0.265 OA
BRANCH  16  18
ATOM     18  C   UNL d   1      33.172  20.507 -21.447  0.00  0.00     0.062 C 
ATOM     19  C   UNL d   1      32.758  19.791 -21.501  0.00  0.00     0.005 C 
ENDBRANCH  16  18
ENDBRANCH   2  15
TORSDOF 5
ENDMDL
MODEL 7
REMARK VINA RESULT:       1.2      1.262      1.641
REMARK  5 active torsions:
REMARK  status: ('A' for Active; 'I' for Inactive)
REMARK    1  A    between atoms: C_6  and  C_1 
REMARK    2  A    between atoms: N_7  and  C_2 
REMARK    3  A    between atoms: O_11  and  C_6 
REMARK       I    between atoms: C_8  and  N_7 
REMARK    4  A    between atoms: C_14  and  C_8 
REMARK    5  A    between atoms: C_15  and  O_11 
ROOT
ATOM      1  C   UNL d   1      30.147  17.562 -24.668  0.00  0.00     0.162 A 
ATOM      2  C   UNL d   1      30.689  17.000 -24.401  0.00  0.00     0.109 A 
ATOM      3  N   UNL d   1      30.569  18.200 -24.971  0.00  0.00    -0.239 NA
ATOM      4  C   UNL d   1      31.444  17.292 -24.539  0.00  0.00     0.037 A 
ATOM      5  C   UNL d   1      31.376  18.033 -24.892  0.00  0.00     0.083 A 
ATOM      6  C   UNL d   1      32.191  16.972 -24.387  0.00  0.00     0.003 A 
ATOM      7  C   UNL d   1      32.052  18.461 -25.095  0.00  0.00     0.019 A 
ATOM      8  C   UNL d   1      32.868  17.400 -24.591  0.00  0.00     0.000 A 
ATOM      9  C   UNL d   1      32.796  18.140 -24.942  0.00  0.00     0.002 A 
ENDROOT
BRANCH   1  10
ATOM     10  C   UNL d   1      29.326  17.491 -24.635  0.00  0.00     0.320 C 
ATOM     11  O   UNL d   1      28.942  16.916 -25.082  0.00  0.00    -0.257 OA
BRANCH  10  12
ATOM     12  O   UNL d   1      28.880  17.993 -24.155  0.00  0.00    -0.270 OA
BRANCH  12  13
ATOM     13  C   UNL d   1      28.058  17.948 -24.177  0.00  0.00     0.126 C 
ATOM     14  C   UNL d   1      27.620  18.256 -23.557  0.00  0.00     0.029 C 
ENDBRANCH  12  13
ENDBRANCH  10  12
ENDBRANCH   1  10
BRANCH   2  15
ATOM     15  N   UNL d   1      30.503  16.271 -24.054  0.00  0.00    -0.206 NA
ATOM     16  C   UNL d   1      30.481  16.205 -23.222  0.00  0.00     0.279 C 
ATOM     17  O   UNL d   1      30.645  16.867 -22.754  0.00  0.00    -0.265 OA
BRANCH  16  18
ATOM     18  C   UNL d   1      30.296  15.478 -22.880  0.00  0.00     0.062 C 
ATOM     19  C   UNL d   1      29.897  15.459 -22.154  0.00  0.00     0.005 C 
ENDBRANCH  16  18
ENDBRANCH   2  15
TORSDOF 5
ENDMDL
