MODEL 1
REMARK VINA RESULT:       3.0      0.000      0.000
REMARK  8 active torsions:
REMARK  status: ('A' for Active; 'I' for Inactive)
REMARK    1  A    between atoms: C_11  and  N_1 
REMARK    2  A    between atoms: S_10  and  C_2 
REMARK    3  A    between atoms: N_8  and  C_9 
REMARK    4  A    between atoms: C_18  and  S_10 
REMARK    5  A    between atoms: C_19  and  C_11 
REMARK    6  A    between atoms: C_13  and  C_18 
REMARK    7  A    between atoms: O_20  and  C_13 
REMARK    8  A    between atoms: C_25  and  O_20 
ROOT
ATOM      1  N   UNL d   1      33.108  20.784 -22.126  0.00  0.00    -0.253 N 
ATOM      2  C   UNL d   1      33.098  21.150 -22.855  0.00  0.00     0.182 A 
ATOM      3  C   UNL d   1      32.989  19.960 -22.069  0.00  0.00     0.268 A 
ATOM      4  C   UNL d   1      32.858  19.512 -22.775  0.00  0.00     0.076 A 
ATOM      5  N   UNL d   1      32.967  20.702 -23.560  0.00  0.00    -0.222 NA
ATOM      6  C   UNL d   1      32.848  19.889 -23.514  0.00  0.00     0.088 A 
ATOM      7  C   UNL d   1      32.740  18.686 -22.713  0.00  0.00     0.024 A 
ATOM      8  C   UNL d   1      32.612  18.253 -23.405  0.00  0.00     0.065 A 
ATOM      9  O   UNL d   1      32.999  19.584 -21.334  0.00  0.00    -0.267 OA
ATOM     10  C   UNL d   1      32.720  19.441 -24.191  0.00  0.00     0.021 A 
ATOM     11  C   UNL d   1      32.601  18.625 -24.145  0.00  0.00     0.019 A 
ENDROOT
BRANCH   1  12
ATOM     12  C   UNL d   1      33.236  21.220 -21.439  0.00  0.00     0.085 C 
BRANCH  12  13
ATOM     13  C   UNL d   1      32.595  21.504 -21.007  0.00  0.00     0.018 A 
ATOM     14  C   UNL d   1      31.862  21.147 -21.083  0.00  0.00     0.002 A 
ATOM     15  C   UNL d   1      31.224  21.439 -20.645  0.00  0.00     0.000 A 
ATOM     16  C   UNL d   1      31.329  22.080 -20.142  0.00  0.00     0.000 A 
ATOM     17  C   UNL d   1      32.064  22.436 -20.067  0.00  0.00     0.000 A 
ATOM     18  C   UNL d   1      32.699  22.145 -20.504  0.00  0.00     0.002 A 
ENDBRANCH  12  13
ENDBRANCH   1  12
BRANCH   2  19
ATOM     19  S   UNL d   1      33.214  21.959 -22.911  0.00  0.00    -0.044 SA
BRANCH  19  20
ATOM     20  C   UNL d   1      33.232  22.323 -23.646  0.00  0.00     0.107 C 
BRANCH  20  21
ATOM     21  C   UNL d   1      33.060  23.133 -23.721  0.00  0.00     0.307 C 
ATOM     22  O   UNL d   1      33.224  23.653 -23.109  0.00  0.00    -0.258 OA
BRANCH  21  23
ATOM     23  O   UNL d   1      32.724  23.408 -24.414  0.00  0.00    -0.271 OA
BRANCH  23  24
ATOM     24  C   UNL d   1      32.238  22.914 -24.859  0.00  0.00     0.126 C 
ATOM     25  C   UNL d   1      31.479  23.167 -25.084  0.00  0.00     0.029 C 
ENDBRANCH  23  24
ENDBRANCH  21  23
ENDBRANCH  20  21
ENDBRANCH  19  20
ENDBRANCH   2  19
BRANCH   8  26
ATOM     26  N   UNL d   1      32.494  17.440 -23.355  0.00  0.00    -0.300 N 
ATOM     27  C   UNL d   1      31.734  17.130 -23.385  0.00  0.00     0.107 A 
ATOM     28  C   UNL d   1      31.616  16.311 -23.335  0.00  0.00     0.142 A 
ATOM     29  O   UNL d   1      32.263  15.810 -23.255  0.00  0.00    -0.300 OA
ATOM     30  C   UNL d   1      33.022  16.118 -23.225  0.00  0.00     0.142 A 
ATOM     31  C   UNL d   1      33.140  16.927 -23.274  0.00  0.00     0.107 A 
ENDBRANCH   8  26
TORSDOF 8
ENDMDL
