MODEL 1
REMARK VINA RESULT:       5.7      0.000      0.000
REMARK  0 active torsions:
REMARK  status: ('A' for Active; 'I' for Inactive)
ROOT
ATOM      1  N   UNL d   1     -59.768 -98.763 -43.811  0.00  0.00    -0.169 NA
ATOM      2  C   UNL d   1     -59.249 -98.761 -44.450  0.00  0.00     0.199 A 
ATOM      3  C   UNL d   1     -58.431 -98.759 -44.345  0.00  0.00     0.130 A 
ATOM      4  N   UNL d   1     -58.625 -98.761 -42.933  0.00  0.00    -0.151 NA
ATOM      5  C   UNL d   1     -58.125 -98.759 -43.588  0.00  0.00     0.292 A 
ATOM      6  C   UNL d   1     -59.443 -98.763 -43.039  0.00  0.00     0.373 A 
ATOM      7  O   UNL d   1     -57.303 -98.756 -43.478  0.00  0.00    -0.264 OA
ATOM      8  O   UNL d   1     -59.956 -98.766 -42.387  0.00  0.00    -0.242 OA
ATOM      9  N   UNL d   1     -59.565 -98.761 -45.222  0.00  0.00    -0.126 N 
ATOM     10 BR   UNL d   1     -57.926 -98.756 -44.999  0.00  0.00    -0.041 Br
ENDROOT
TORSDOF 0
ENDMDL
MODEL 2
REMARK VINA RESULT:       6.3      1.551      2.195
REMARK  0 active torsions:
REMARK  status: ('A' for Active; 'I' for Inactive)
ROOT
ATOM      1  N   UNL d   1     -58.321 -98.759 -45.298  0.00  0.00    -0.169 NA
ATOM      2  C   UNL d   1     -58.015 -98.757 -44.534  0.00  0.00     0.199 A 
ATOM      3  C   UNL d   1     -58.505 -98.757 -43.870  0.00  0.00     0.130 A 
ATOM      4  N   UNL d   1     -59.644 -98.761 -44.727  0.00  0.00    -0.151 NA
ATOM      5  C   UNL d   1     -59.316 -98.759 -43.972  0.00  0.00     0.292 A 
ATOM      6  C   UNL d   1     -59.154 -98.760 -45.390  0.00  0.00     0.373 A 
ATOM      7  O   UNL d   1     -59.812 -98.759 -43.307  0.00  0.00    -0.264 OA
ATOM      8  O   UNL d   1     -59.474 -98.762 -46.155  0.00  0.00    -0.242 OA
ATOM      9  N   UNL d   1     -57.187 -98.756 -44.434  0.00  0.00    -0.126 N 
ATOM     10 BR   UNL d   1     -58.180 -98.756 -43.111  0.00  0.00    -0.041 Br
ENDROOT
TORSDOF 0
ENDMDL
