MODEL 1
REMARK VINA RESULT:      -8.7      0.000      0.000
REMARK  4 active torsions:
REMARK  status: ('A' for Active; 'I' for Inactive)
REMARK    1  A    between atoms: C_3  and  N_1 
REMARK    2  A    between atoms: C_2  and  C_7 
REMARK       I    between atoms: N_4  and  C_2 
REMARK    3  A    between atoms: C_15  and  N_4 
REMARK    4  A    between atoms: C_8  and  C_15 
ROOT
ATOM      1  C   UNL d   1      53.751  31.808  53.747  0.00  0.00     0.127 A 
ATOM      2  C   UNL d   1      54.284  33.143  54.548  0.00  0.00     0.058 A 
ATOM      3  C   UNL d   1      53.515  31.960  54.526  0.00  0.00     0.024 A 
ATOM      4  C   UNL d   1      54.279  32.361  53.364  0.00  0.00     0.024 A 
ATOM      5  C   UNL d   1      54.533  33.013  53.772  0.00  0.00     0.006 A 
ATOM      6  C   UNL d   1      53.785  32.621  54.910  0.00  0.00     0.006 A 
ENDROOT
BRANCH   2   7
ATOM      7  C   UNL d   1      54.567  33.826  54.935  0.00  0.00     0.279 C 
ATOM      8  N   UNL d   1      54.141  34.538  54.918  0.00  0.00    -0.200 NA
ATOM      9  O   UNL d   1      55.273  33.803  55.340  0.00  0.00    -0.265 OA
BRANCH   8  10
ATOM     10  C   UNL d   1      53.410  34.566  54.500  0.00  0.00     0.172 C 
BRANCH  10  11
ATOM     11  C   UNL d   1      53.000  35.268  54.435  0.00  0.00     0.231 C 
ATOM     12  O   UNL d   1      52.413  35.349  53.846  0.00  0.00    -0.643 OA
ATOM     13  O   UNL d   1      53.166  35.879  54.939  0.00  0.00    -0.643 OA
ENDBRANCH  10  11
ENDBRANCH   8  10
ENDBRANCH   2   7
BRANCH   1  14
ATOM     14  N   UNL d   1      53.483  31.126  53.326  0.00  0.00    -0.114 N 
ATOM     15  O   UNL d   1      53.746  30.356  53.529  0.00  0.00    -0.532 OA
ATOM     16  O   UNL d   1      52.947  31.227  52.700  0.00  0.00    -0.532 OA
ENDBRANCH   1  14
TORSDOF 4
ENDMDL
MODEL 2
REMARK VINA RESULT:      -8.3      1.446      3.748
REMARK  4 active torsions:
REMARK  status: ('A' for Active; 'I' for Inactive)
REMARK    1  A    between atoms: C_3  and  N_1 
REMARK    2  A    between atoms: C_2  and  C_7 
REMARK       I    between atoms: N_4  and  C_2 
REMARK    3  A    between atoms: C_15  and  N_4 
REMARK    4  A    between atoms: C_8  and  C_15 
ROOT
ATOM      1  C   UNL d   1      54.436  33.207  54.579  0.00  0.00     0.127 A 
ATOM      2  C   UNL d   1      53.456  32.517  53.452  0.00  0.00     0.058 A 
ATOM      3  C   UNL d   1      54.747  32.899  53.875  0.00  0.00     0.024 A 
ATOM      4  C   UNL d   1      53.593  33.159  54.710  0.00  0.00     0.024 A 
ATOM      5  C   UNL d   1      53.123  32.816  54.145  0.00  0.00     0.006 A 
ATOM      6  C   UNL d   1      54.253  32.562  53.327  0.00  0.00     0.006 A 
ENDROOT
BRANCH   2   7
ATOM      7  C   UNL d   1      52.940  32.171  52.894  0.00  0.00     0.279 C 
ATOM      8  N   UNL d   1      52.799  31.353  52.887  0.00  0.00    -0.200 NA
ATOM      9  O   UNL d   1      52.563  32.636  52.343  0.00  0.00    -0.265 OA
BRANCH   8  10
ATOM     10  C   UNL d   1      53.186  30.867  53.456  0.00  0.00     0.172 C 
BRANCH  10  11
ATOM     11  C   UNL d   1      53.040  30.066  53.481  0.00  0.00     0.231 C 
ATOM     12  O   UNL d   1      52.278  29.781  53.290  0.00  0.00    -0.643 OA
ATOM     13  O   UNL d   1      53.631  29.555  53.689  0.00  0.00    -0.643 OA
ENDBRANCH  10  11
ENDBRANCH   8  10
ENDBRANCH   2   7
BRANCH   1  14
ATOM     14  N   UNL d   1      54.931  33.563  55.164  0.00  0.00    -0.114 N 
ATOM     15  O   UNL d   1      55.508  34.137  54.959  0.00  0.00    -0.532 OA
ATOM     16  O   UNL d   1      54.840  33.336  55.958  0.00  0.00    -0.532 OA
ENDBRANCH   1  14
TORSDOF 4
ENDMDL
MODEL 3
REMARK VINA RESULT:      -8.1      1.422      2.976
REMARK  4 active torsions:
REMARK  status: ('A' for Active; 'I' for Inactive)
REMARK    1  A    between atoms: C_3  and  N_1 
REMARK    2  A    between atoms: C_2  and  C_7 
REMARK       I    between atoms: N_4  and  C_2 
REMARK    3  A    between atoms: C_15  and  N_4 
REMARK    4  A    between atoms: C_8  and  C_15 
ROOT
ATOM      1  C   UNL d   1      54.694  33.289  54.720  0.00  0.00     0.127 A 
ATOM      2  C   UNL d   1      53.670  32.407  53.782  0.00  0.00     0.058 A 
ATOM      3  C   UNL d   1      54.756  33.301  53.894  0.00  0.00     0.024 A 
ATOM      4  C   UNL d   1      54.086  32.807  55.079  0.00  0.00     0.024 A 
ATOM      5  C   UNL d   1      53.589  32.379  54.603  0.00  0.00     0.006 A 
ATOM      6  C   UNL d   1      54.245  32.862  53.443  0.00  0.00     0.006 A 
ENDROOT
BRANCH   2   7
ATOM      7  C   UNL d   1      53.139  31.952  53.326  0.00  0.00     0.279 C 
ATOM      8  N   UNL d   1      52.434  32.278  53.033  0.00  0.00    -0.200 NA
ATOM      9  O   UNL d   1      53.307  31.174  53.159  0.00  0.00    -0.265 OA
BRANCH   8  10
ATOM     10  C   UNL d   1      52.255  33.084  53.204  0.00  0.00     0.172 C 
BRANCH  10  11
ATOM     11  C   UNL d   1      51.559  33.416  52.937  0.00  0.00     0.231 C 
ATOM     12  O   UNL d   1      50.844  33.247  53.335  0.00  0.00    -0.643 OA
ATOM     13  O   UNL d   1      51.568  33.904  52.292  0.00  0.00    -0.643 OA
ENDBRANCH  10  11
ENDBRANCH   8  10
ENDBRANCH   2   7
BRANCH   1  14
ATOM     14  N   UNL d   1      55.215  33.738  55.211  0.00  0.00    -0.114 N 
ATOM     15  O   UNL d   1      55.892  34.120  54.895  0.00  0.00    -0.532 OA
ATOM     16  O   UNL d   1      55.049  33.798  56.022  0.00  0.00    -0.532 OA
ENDBRANCH   1  14
TORSDOF 4
ENDMDL
MODEL 4
REMARK VINA RESULT:      -7.4      2.155      3.517
REMARK  4 active torsions:
REMARK  status: ('A' for Active; 'I' for Inactive)
REMARK    1  A    between atoms: C_3  and  N_1 
REMARK    2  A    between atoms: C_2  and  C_7 
REMARK       I    between atoms: N_4  and  C_2 
REMARK    3  A    between atoms: C_15  and  N_4 
REMARK    4  A    between atoms: C_8  and  C_15 
ROOT
ATOM      1  C   UNL d   1      51.160  33.933  52.925  0.00  0.00     0.127 A 
ATOM      2  C   UNL d   1      52.351  32.801  52.990  0.00  0.00     0.058 A 
ATOM      3  C   UNL d   1      51.898  34.071  52.576  0.00  0.00     0.024 A 
ATOM      4  C   UNL d   1      51.027  33.188  53.322  0.00  0.00     0.024 A 
ATOM      5  C   UNL d   1      51.625  32.640  53.346  0.00  0.00     0.006 A 
ATOM      6  C   UNL d   1      52.477  33.505  52.615  0.00  0.00     0.006 A 
ENDROOT
BRANCH   2   7
ATOM      7  C   UNL d   1      52.942  32.212  53.035  0.00  0.00     0.279 C 
ATOM      8  N   UNL d   1      53.545  32.250  53.605  0.00  0.00    -0.200 NA
ATOM      9  O   UNL d   1      52.936  31.587  52.516  0.00  0.00    -0.265 OA
BRANCH   8  10
ATOM     10  C   UNL d   1      53.555  32.896  54.146  0.00  0.00     0.172 C 
BRANCH  10  11
ATOM     11  C   UNL d   1      54.135  32.945  54.718  0.00  0.00     0.231 C 
ATOM     12  O   UNL d   1      54.026  32.553  55.448  0.00  0.00    -0.643 OA
ATOM     13  O   UNL d   1      54.808  33.369  54.573  0.00  0.00    -0.643 OA
ENDBRANCH  10  11
ENDBRANCH   8  10
ENDBRANCH   2   7
BRANCH   1  14
ATOM     14  N   UNL d   1      50.541  34.508  52.898  0.00  0.00    -0.114 N 
ATOM     15  O   UNL d   1      49.901  34.436  52.359  0.00  0.00    -0.532 OA
ATOM     16  O   UNL d   1      50.571  35.154  53.418  0.00  0.00    -0.532 OA
ENDBRANCH   1  14
TORSDOF 4
ENDMDL
MODEL 5
REMARK VINA RESULT:      -7.3      1.786      2.151
REMARK  4 active torsions:
REMARK  status: ('A' for Active; 'I' for Inactive)
REMARK    1  A    between atoms: C_3  and  N_1 
REMARK    2  A    between atoms: C_2  and  C_7 
REMARK       I    between atoms: N_4  and  C_2 
REMARK    3  A    between atoms: C_15  and  N_4 
REMARK    4  A    between atoms: C_8  and  C_15 
ROOT
ATOM      1  C   UNL d   1      53.141  30.325  53.642  0.00  0.00     0.127 A 
ATOM      2  C   UNL d   1      53.476  31.918  53.401  0.00  0.00     0.058 A 
ATOM      3  C   UNL d   1      53.025  30.678  52.901  0.00  0.00     0.024 A 
ATOM      4  C   UNL d   1      53.439  30.806  54.282  0.00  0.00     0.024 A 
ATOM      5  C   UNL d   1      53.600  31.590  54.147  0.00  0.00     0.006 A 
ATOM      6  C   UNL d   1      53.194  31.464  52.795  0.00  0.00     0.006 A 
ENDROOT
BRANCH   2   7
ATOM      7  C   UNL d   1      53.652  32.728  53.301  0.00  0.00     0.279 C 
ATOM      8  N   UNL d   1      53.053  33.302  53.295  0.00  0.00    -0.200 NA
ATOM      9  O   UNL d   1      54.424  32.969  53.206  0.00  0.00    -0.265 OA
BRANCH   8  10
ATOM     10  C   UNL d   1      52.252  33.056  53.393  0.00  0.00     0.172 C 
BRANCH  10  11
ATOM     11  C   UNL d   1      51.650  33.607  53.392  0.00  0.00     0.231 C 
ATOM     12  O   UNL d   1      50.856  33.348  53.422  0.00  0.00    -0.643 OA
ATOM     13  O   UNL d   1      51.827  34.395  53.363  0.00  0.00    -0.643 OA
ENDBRANCH  10  11
ENDBRANCH   8  10
ENDBRANCH   2   7
BRANCH   1  14
ATOM     14  N   UNL d   1      52.972  29.508  53.777  0.00  0.00    -0.114 N 
ATOM     15  O   UNL d   1      53.354  29.078  54.387  0.00  0.00    -0.532 OA
ATOM     16  O   UNL d   1      52.415  29.129  53.292  0.00  0.00    -0.532 OA
ENDBRANCH   1  14
TORSDOF 4
ENDMDL
MODEL 6
REMARK VINA RESULT:      -7.2      1.005      3.514
REMARK  4 active torsions:
REMARK  status: ('A' for Active; 'I' for Inactive)
REMARK    1  A    between atoms: C_3  and  N_1 
REMARK    2  A    between atoms: C_2  and  C_7 
REMARK       I    between atoms: N_4  and  C_2 
REMARK    3  A    between atoms: C_15  and  N_4 
REMARK    4  A    between atoms: C_8  and  C_15 
ROOT
ATOM      1  C   UNL d   1      53.013  34.700  54.128  0.00  0.00     0.127 A 
ATOM      2  C   UNL d   1      53.965  33.395  53.822  0.00  0.00     0.058 A 
ATOM      3  C   UNL d   1      53.165  34.458  53.351  0.00  0.00     0.024 A 
ATOM      4  C   UNL d   1      53.360  34.258  54.772  0.00  0.00     0.024 A 
ATOM      5  C   UNL d   1      53.827  33.617  54.604  0.00  0.00     0.006 A 
ATOM      6  C   UNL d   1      53.636  33.813  53.213  0.00  0.00     0.006 A 
ENDROOT
BRANCH   2   7
ATOM      7  C   UNL d   1      54.451  32.729  53.689  0.00  0.00     0.279 C 
ATOM      8  N   UNL d   1      54.126  31.992  53.486  0.00  0.00    -0.200 NA
ATOM      9  O   UNL d   1      55.259  32.793  53.757  0.00  0.00    -0.265 OA
BRANCH   8  10
ATOM     10  C   UNL d   1      53.289  31.921  53.415  0.00  0.00     0.172 C 
BRANCH  10  11
ATOM     11  C   UNL d   1      52.955  31.217  53.175  0.00  0.00     0.231 C 
ATOM     12  O   UNL d   1      52.979  30.555  53.685  0.00  0.00    -0.643 OA
ATOM     13  O   UNL d   1      52.606  31.165  52.447  0.00  0.00    -0.643 OA
ENDBRANCH  10  11
ENDBRANCH   8  10
ENDBRANCH   2   7
BRANCH   1  14
ATOM     14  N   UNL d   1      52.525  35.370  54.297  0.00  0.00    -0.114 N 
ATOM     15  O   UNL d   1      52.811  36.017  54.748  0.00  0.00    -0.532 OA
ATOM     16  O   UNL d   1      51.747  35.382  54.008  0.00  0.00    -0.532 OA
ENDBRANCH   1  14
TORSDOF 4
ENDMDL
MODEL 7
REMARK VINA RESULT:      -7.2      1.420      2.124
REMARK  4 active torsions:
REMARK  status: ('A' for Active; 'I' for Inactive)
REMARK    1  A    between atoms: C_3  and  N_1 
REMARK    2  A    between atoms: C_2  and  C_7 
REMARK       I    between atoms: N_4  and  C_2 
REMARK    3  A    between atoms: C_15  and  N_4 
REMARK    4  A    between atoms: C_8  and  C_15 
ROOT
ATOM      1  C   UNL d   1      52.879  31.972  53.198  0.00  0.00     0.127 A 
ATOM      2  C   UNL d   1      52.454  33.550  53.006  0.00  0.00     0.058 A 
ATOM      3  C   UNL d   1      53.441  32.541  52.981  0.00  0.00     0.024 A 
ATOM      4  C   UNL d   1      52.071  32.220  53.321  0.00  0.00     0.024 A 
ATOM      5  C   UNL d   1      51.877  33.001  53.223  0.00  0.00     0.006 A 
ATOM      6  C   UNL d   1      53.218  33.316  52.890  0.00  0.00     0.006 A 
ENDROOT
BRANCH   2   7
ATOM      7  C   UNL d   1      52.216  34.345  52.915  0.00  0.00     0.279 C 
ATOM      8  N   UNL d   1      52.417  34.922  53.477  0.00  0.00    -0.200 NA
ATOM      9  O   UNL d   1      51.779  34.568  52.266  0.00  0.00    -0.265 OA
BRANCH   8  10
ATOM     10  C   UNL d   1      52.870  34.695  54.150  0.00  0.00     0.172 C 
BRANCH  10  11
ATOM     11  C   UNL d   1      53.057  35.244  54.724  0.00  0.00     0.231 C 
ATOM     12  O   UNL d   1      53.342  34.984  55.465  0.00  0.00    -0.643 OA
ATOM     13  O   UNL d   1      52.966  36.033  54.570  0.00  0.00    -0.643 OA
ENDBRANCH  10  11
ENDBRANCH   8  10
ENDBRANCH   2   7
BRANCH   1  14
ATOM     14  N   UNL d   1      53.087  31.159  53.299  0.00  0.00    -0.114 N 
ATOM     15  O   UNL d   1      52.798  30.566  52.781  0.00  0.00    -0.532 OA
ATOM     16  O   UNL d   1      53.588  30.949  53.927  0.00  0.00    -0.532 OA
ENDBRANCH   1  14
TORSDOF 4
ENDMDL
MODEL 8
REMARK VINA RESULT:      -7.1      1.829      3.135
REMARK  4 active torsions:
REMARK  status: ('A' for Active; 'I' for Inactive)
REMARK    1  A    between atoms: C_3  and  N_1 
REMARK    2  A    between atoms: C_2  and  C_7 
REMARK       I    between atoms: N_4  and  C_2 
REMARK    3  A    between atoms: C_15  and  N_4 
REMARK    4  A    between atoms: C_8  and  C_15 
ROOT
ATOM      1  C   UNL d   1      51.737  34.418  52.763  0.00  0.00     0.127 A 
ATOM      2  C   UNL d   1      52.760  34.894  53.959  0.00  0.00     0.058 A 
ATOM      3  C   UNL d   1      52.520  34.627  52.594  0.00  0.00     0.024 A 
ATOM      4  C   UNL d   1      51.468  34.454  53.573  0.00  0.00     0.024 A 
ATOM      5  C   UNL d   1      51.984  34.690  54.151  0.00  0.00     0.006 A 
ATOM      6  C   UNL d   1      53.015  34.860  53.193  0.00  0.00     0.006 A 
ENDROOT
BRANCH   2   7
ATOM      7  C   UNL d   1      53.263  35.132  54.582  0.00  0.00     0.279 C 
ATOM      8  N   UNL d   1      53.782  34.596  54.946  0.00  0.00    -0.200 NA
ATOM      9  O   UNL d   1      53.251  35.902  54.844  0.00  0.00    -0.265 OA
BRANCH   8  10
ATOM     10  C   UNL d   1      53.798  33.797  54.677  0.00  0.00     0.172 C 
BRANCH  10  11
ATOM     11  C   UNL d   1      54.304  33.258  55.021  0.00  0.00     0.231 C 
ATOM     12  O   UNL d   1      55.125  33.409  55.025  0.00  0.00    -0.643 OA
ATOM     13  O   UNL d   1      54.006  32.583  55.354  0.00  0.00    -0.643 OA
ENDBRANCH  10  11
ENDBRANCH   8  10
ENDBRANCH   2   7
BRANCH   1  14
ATOM     14  N   UNL d   1      51.202  34.172  52.156  0.00  0.00    -0.114 N 
ATOM     15  O   UNL d   1      50.389  34.038  52.317  0.00  0.00    -0.532 OA
ATOM     16  O   UNL d   1      51.493  34.062  51.386  0.00  0.00    -0.532 OA
ENDBRANCH   1  14
TORSDOF 4
ENDMDL
