MODEL 1
REMARK VINA RESULT:      64.4      0.000      0.000
REMARK  4 active torsions:
REMARK  status: ('A' for Active; 'I' for Inactive)
REMARK    1  A    between atoms: C_11  and  C_4 
REMARK    2  A    between atoms: C_9  and  C_5 
REMARK    3  A    between atoms: O_21  and  C_16 
REMARK    4  A    between atoms: O_22  and  C_17 
ROOT
ATOM      1  N   UNL d   1      60.140  48.720  50.844  0.00  0.00    -0.185 N 
ATOM      2  C   UNL d   1      60.075  49.376  51.348  0.00  0.00     0.219 A 
ATOM      3  N   UNL d   1      59.435  48.649  50.430  0.00  0.00    -0.153 NA
ATOM      4  C   UNL d   1      60.888  48.388  50.949  0.00  0.00     0.187 A 
ATOM      5  C   UNL d   1      58.927  49.259  50.673  0.00  0.00     0.156 A 
ATOM      6  S   UNL d   1      59.326  49.708  51.242  0.00  0.00    -0.024 SA
ATOM      7  N   UNL d   1      61.283  48.839  51.518  0.00  0.00    -0.127 NA
ATOM      8  N   UNL d   1      60.788  49.447  51.766  0.00  0.00    -0.120 NA
ENDROOT
BRANCH   4   9
ATOM      9  C   UNL d   1      61.188  47.729  50.560  0.00  0.00     0.040 A 
ATOM     10  C   UNL d   1      60.940  46.978  50.789  0.00  0.00     0.029 A 
ATOM     11  C   UNL d   1      61.235  46.318  50.406  0.00  0.00     0.116 A 
ATOM     12  C   UNL d   1      61.782  46.400  49.788  0.00  0.00     0.116 A 
ATOM     13  C   UNL d   1      62.029  47.158  49.560  0.00  0.00     0.026 A 
ATOM     14  C   UNL d   1      61.729  47.819  49.949  0.00  0.00     0.005 A 
BRANCH  11  15
ATOM     15  O   UNL d   1      60.993  45.559  50.629  0.00  0.00    -0.326 OA
ATOM     16  C   UNL d   1      60.718  45.411  51.389  0.00  0.00     0.181 C 
ENDBRANCH  11  15
BRANCH  12  17
ATOM     17  O   UNL d   1      62.087  45.735  49.393  0.00  0.00    -0.326 OA
ATOM     18  C   UNL d   1      62.709  45.835  48.864  0.00  0.00     0.181 C 
ENDBRANCH  12  17
ENDBRANCH   4   9
BRANCH   5  19
ATOM     19  C   UNL d   1      58.162  49.394  50.397  0.00  0.00     0.126 A 
ATOM     20  O   UNL d   1      57.468  49.305  50.826  0.00  0.00    -0.298 OA
ATOM     21  C   UNL d   1      56.835  49.499  50.333  0.00  0.00     0.134 A 
ATOM     22 BR   UNL d   1      56.036  49.484  50.544  0.00  0.00    -0.022 Br
ATOM     23  C   UNL d   1      57.136  49.708  49.598  0.00  0.00     0.034 A 
ATOM     24  C   UNL d   1      57.961  49.643  49.636  0.00  0.00     0.029 A 
ENDBRANCH   5  19
TORSDOF 4
ENDMDL
MODEL 2
REMARK VINA RESULT:      67.1      1.802      4.529
REMARK  4 active torsions:
REMARK  status: ('A' for Active; 'I' for Inactive)
REMARK    1  A    between atoms: C_11  and  C_4 
REMARK    2  A    between atoms: C_9  and  C_5 
REMARK    3  A    between atoms: O_21  and  C_16 
REMARK    4  A    between atoms: O_22  and  C_17 
ROOT
ATOM      1  N   UNL d   1      60.100  48.523  50.784  0.00  0.00    -0.185 N 
ATOM      2  C   UNL d   1      60.815  48.645  51.187  0.00  0.00     0.219 A 
ATOM      3  N   UNL d   1      60.142  47.793  50.411  0.00  0.00    -0.153 NA
ATOM      4  C   UNL d   1      59.618  49.181  50.910  0.00  0.00     0.187 A 
ATOM      5  C   UNL d   1      60.882  47.456  50.579  0.00  0.00     0.156 A 
ATOM      6  S   UNL d   1      61.297  47.987  51.060  0.00  0.00    -0.024 SA
ATOM      7  N   UNL d   1      60.036  49.708  51.391  0.00  0.00    -0.127 NA
ATOM      8  N   UNL d   1      60.772  49.384  51.563  0.00  0.00    -0.120 NA
ENDROOT
BRANCH   4   9
ATOM      9  C   UNL d   1      58.860  49.294  50.614  0.00  0.00     0.040 A 
ATOM     10  C   UNL d   1      58.210  49.103  51.082  0.00  0.00     0.029 A 
ATOM     11  C   UNL d   1      57.453  49.213  50.793  0.00  0.00     0.116 A 
ATOM     12  C   UNL d   1      57.335  49.516  50.030  0.00  0.00     0.116 A 
ATOM     13  C   UNL d   1      57.992  49.708  49.561  0.00  0.00     0.026 A 
ATOM     14  C   UNL d   1      58.751  49.595  49.857  0.00  0.00     0.005 A 
BRANCH  11  15
ATOM     15  O   UNL d   1      56.794  49.024  51.256  0.00  0.00    -0.326 OA
ATOM     16  C   UNL d   1      56.312  49.615  51.562  0.00  0.00     0.181 C 
ENDBRANCH  11  15
BRANCH  12  17
ATOM     17  O   UNL d   1      56.570  49.632  49.727  0.00  0.00    -0.326 OA
ATOM     18  C   UNL d   1      56.406  49.401  48.955  0.00  0.00     0.181 C 
ENDBRANCH  12  17
ENDBRANCH   4   9
BRANCH   5  19
ATOM     19  C   UNL d   1      61.155  46.725  50.315  0.00  0.00     0.126 A 
ATOM     20  O   UNL d   1      61.673  46.595  49.692  0.00  0.00    -0.298 OA
ATOM     21  C   UNL d   1      61.793  45.782  49.622  0.00  0.00     0.134 A 
ATOM     22 BR   UNL d   1      62.277  45.411  49.065  0.00  0.00    -0.022 Br
ATOM     23  C   UNL d   1      61.348  45.406  50.202  0.00  0.00     0.034 A 
ATOM     24  C   UNL d   1      60.951  45.991  50.634  0.00  0.00     0.029 A 
ENDBRANCH   5  19
TORSDOF 4
ENDMDL
