MODEL 1
REMARK VINA RESULT:       3.1      0.000      0.000
REMARK  7 active torsions:
REMARK  status: ('A' for Active; 'I' for Inactive)
REMARK    1  A    between atoms: C_11  and  C_3 
REMARK    2  A    between atoms: C_10  and  C_4 
REMARK    3  A    between atoms: O_15  and  C_10 
REMARK    4  A    between atoms: N_14  and  C_11 
REMARK    5  A    between atoms: C_20  and  N_14 
REMARK    6  A    between atoms: C_22  and  O_15 
REMARK    7  A    between atoms: C_21  and  C_20 
ROOT
ATOM      1  C   UNL d   1     -41.521-122.393 -52.427  0.00  0.00     0.035 A 
ATOM      2  C   UNL d   1     -41.554-123.102 -52.006  0.00  0.00     0.100 A 
ATOM      3  C   UNL d   1     -41.379-121.686 -52.028  0.00  0.00     0.060 A 
ATOM      4  C   UNL d   1     -41.647-122.542 -53.235  0.00  0.00     0.088 A 
ATOM      5  O   UNL d   1     -41.705-123.705 -52.575  0.00  0.00    -0.307 OA
ATOM      6  C   UNL d   1     -41.760-123.352 -53.320  0.00  0.00     0.105 A 
ATOM      7  C   UNL d   1     -41.270-121.689 -51.208  0.00  0.00     0.197 A 
ATOM      8  C   UNL d   1     -41.447-123.103 -51.196  0.00  0.00     0.026 A 
ATOM      9  C   UNL d   1     -41.305-122.397 -50.797  0.00  0.00     0.041 A 
ATOM     10  O   UNL d   1     -41.126-120.970 -50.801  0.00  0.00    -0.286 OA
ATOM     11  C   UNL d   1     -41.910-123.757 -54.066  0.00  0.00     0.027 C 
ATOM     12  C   UNL d   1     -41.480-123.817 -50.768  0.00  0.00     0.002 A 
ATOM     13  C   UNL d   1     -41.196-122.403 -49.969  0.00  0.00     0.003 A 
ATOM     14  C   UNL d   1     -41.231-123.109 -49.563  0.00  0.00     0.000 A 
ATOM     15  C   UNL d   1     -41.373-123.816 -49.962  0.00  0.00     0.000 A 
ENDROOT
BRANCH   3  16
ATOM     16  C   UNL d   1     -41.350-120.985 -52.479  0.00  0.00     0.102 C 
BRANCH  16  17
ATOM     17  N   UNL d   1     -41.239-120.251 -52.083  0.00  0.00    -0.239 NA
BRANCH  17  18
ATOM     18  C   UNL d   1     -41.593-119.561 -52.396  0.00  0.00     0.144 C 
BRANCH  18  19
ATOM     19  C   UNL d   1     -41.123-118.910 -52.563  0.00  0.00     0.255 C 
ATOM     20  O   UNL d   1     -41.454-118.204 -52.832  0.00  0.00    -0.281 OA
ENDBRANCH  18  19
ENDBRANCH  17  18
ENDBRANCH  16  17
ENDBRANCH   3  16
BRANCH   4  21
ATOM     21  C   UNL d   1     -41.663-121.986 -53.887  0.00  0.00     0.302 C 
ATOM     22  O   UNL d   1     -41.124-121.364 -53.918  0.00  0.00    -0.259 OA
BRANCH  21  23
ATOM     23  O   UNL d   1     -42.220-122.087 -54.469  0.00  0.00    -0.271 OA
BRANCH  23  24
ATOM     24  C   UNL d   1     -42.339-121.520 -55.052  0.00  0.00     0.126 C 
ATOM     25  C   UNL d   1     -42.741-121.720 -55.749  0.00  0.00     0.029 C 
ENDBRANCH  23  24
ENDBRANCH  21  23
ENDBRANCH   4  21
TORSDOF 7
ENDMDL
