MODEL 1
REMARK VINA RESULT:      -3.1      0.000      0.000
REMARK  5 active torsions:
REMARK  status: ('A' for Active; 'I' for Inactive)
REMARK    1  A    between atoms: C_6  and  C_1 
REMARK    2  A    between atoms: C_9  and  N_2 
REMARK    3  A    between atoms: O_13  and  C_8 
REMARK    4  A    between atoms: O_15  and  C_9 
REMARK    5  A    between atoms: O_14  and  C_10 
ROOT
ATOM      1  C   UNL d   1      57.534  -0.574  31.255  0.00  0.00     0.149 A 
ATOM      2  N   UNL d   1      57.440  -0.069  31.902  0.00  0.00    -0.269 N 
ATOM      3  N   UNL d   1      56.955  -1.157  31.334  0.00  0.00    -0.227 NA
ATOM      4  C   UNL d   1      56.826  -0.332  32.361  0.00  0.00     0.085 A 
ATOM      5  C   UNL d   1      56.512  -1.035  31.994  0.00  0.00     0.099 A 
ATOM      6  C   UNL d   1      56.510  -0.050  33.039  0.00  0.00     0.019 A 
ATOM      7  C   UNL d   1      55.872  -1.393  32.385  0.00  0.00     0.021 A 
ATOM      8  C   UNL d   1      55.893  -0.440  33.368  0.00  0.00     0.002 A 
ATOM      9  C   UNL d   1      55.598  -1.101  33.023  0.00  0.00     0.002 A 
ENDROOT
BRANCH   1  10
ATOM     10  C   UNL d   1      57.849  -0.857  30.577  0.00  0.00     0.037 A 
ATOM     11  C   UNL d   1      57.913  -0.362  29.919  0.00  0.00     0.029 A 
ATOM     12  C   UNL d   1      58.236  -0.641  29.213  0.00  0.00     0.116 A 
ATOM     13  C   UNL d   1      58.500  -1.428  29.163  0.00  0.00     0.116 A 
ATOM     14  C   UNL d   1      58.439  -1.928  29.820  0.00  0.00     0.026 A 
ATOM     15  C   UNL d   1      58.114  -1.644  30.527  0.00  0.00     0.005 A 
BRANCH  12  16
ATOM     16  O   UNL d   1      58.299  -0.146  28.556  0.00  0.00    -0.326 OA
ATOM     17  C   UNL d   1      58.330   0.679  28.648  0.00  0.00     0.181 C 
ENDBRANCH  12  16
BRANCH  13  18
ATOM     18  O   UNL d   1      58.825  -1.712  28.457  0.00  0.00    -0.326 OA
ATOM     19  C   UNL d   1      59.446  -2.265  28.475  0.00  0.00     0.181 C 
ENDBRANCH  13  18
ENDBRANCH   1  10
BRANCH   2  20
ATOM     20  C   UNL d   1      57.955   0.528  31.915  0.00  0.00     0.205 C 
BRANCH  20  21
ATOM     21  O   UNL d   1      58.429   0.680  32.558  0.00  0.00    -0.310 OA
ATOM     22  C   UNL d   1      59.247   0.682  32.526  0.00  0.00     0.183 C 
ENDBRANCH  20  21
ENDBRANCH   2  20
TORSDOF 5
ENDMDL
MODEL 2
REMARK VINA RESULT:      -3.0      1.508      3.917
REMARK  5 active torsions:
REMARK  status: ('A' for Active; 'I' for Inactive)
REMARK    1  A    between atoms: C_6  and  C_1 
REMARK    2  A    between atoms: C_9  and  N_2 
REMARK    3  A    between atoms: O_13  and  C_8 
REMARK    4  A    between atoms: O_15  and  C_9 
REMARK    5  A    between atoms: O_14  and  C_10 
ROOT
ATOM      1  C   UNL d   1      57.823   0.061  31.185  0.00  0.00     0.149 A 
ATOM      2  N   UNL d   1      58.591   0.244  30.939  0.00  0.00    -0.269 N 
ATOM      3  N   UNL d   1      57.473  -0.344  30.556  0.00  0.00    -0.227 NA
ATOM      4  C   UNL d   1      58.707  -0.040  30.188  0.00  0.00     0.085 A 
ATOM      5  C   UNL d   1      57.984  -0.419  29.940  0.00  0.00     0.099 A 
ATOM      6  C   UNL d   1      59.341  -0.012  29.702  0.00  0.00     0.019 A 
ATOM      7  C   UNL d   1      57.991  -0.749  29.178  0.00  0.00     0.021 A 
ATOM      8  C   UNL d   1      59.285  -0.349  28.977  0.00  0.00     0.002 A 
ATOM      9  C   UNL d   1      58.607  -0.706  28.745  0.00  0.00     0.002 A 
ENDROOT
BRANCH   1  10
ATOM     10  C   UNL d   1      57.188   0.034  31.670  0.00  0.00     0.037 A 
ATOM     11  C   UNL d   1      57.062  -0.635  32.137  0.00  0.00     0.029 A 
ATOM     12  C   UNL d   1      56.411  -0.678  32.643  0.00  0.00     0.116 A 
ATOM     13  C   UNL d   1      55.877  -0.041  32.682  0.00  0.00     0.116 A 
ATOM     14  C   UNL d   1      56.000   0.632  32.215  0.00  0.00     0.026 A 
ATOM     15  C   UNL d   1      56.654   0.671  31.709  0.00  0.00     0.005 A 
BRANCH  12  16
ATOM     16  O   UNL d   1      56.286  -1.346  33.109  0.00  0.00    -0.326 OA
ATOM     17  C   UNL d   1      56.067  -2.069  32.765  0.00  0.00     0.181 C 
ENDBRANCH  12  16
BRANCH  13  18
ATOM     18  O   UNL d   1      55.224  -0.079  33.187  0.00  0.00    -0.326 OA
ATOM     19  C   UNL d   1      54.987   0.594  33.616  0.00  0.00     0.181 C 
ENDBRANCH  13  18
ENDBRANCH   1  10
BRANCH   2  20
ATOM     20  C   UNL d   1      59.010   0.637  31.478  0.00  0.00     0.205 C 
BRANCH  20  21
ATOM     21  O   UNL d   1      59.823   0.614  31.498  0.00  0.00    -0.310 OA
ATOM     22  C   UNL d   1      60.261   0.682  32.186  0.00  0.00     0.183 C 
ENDBRANCH  20  21
ENDBRANCH   2  20
TORSDOF 5
ENDMDL
MODEL 3
REMARK VINA RESULT:      -1.3      1.570      4.247
REMARK  5 active torsions:
REMARK  status: ('A' for Active; 'I' for Inactive)
REMARK    1  A    between atoms: C_6  and  C_1 
REMARK    2  A    between atoms: C_9  and  N_2 
REMARK    3  A    between atoms: O_13  and  C_8 
REMARK    4  A    between atoms: O_15  and  C_9 
REMARK    5  A    between atoms: O_14  and  C_10 
ROOT
ATOM      1  C   UNL d   1      58.365   0.336  31.191  0.00  0.00     0.149 A 
ATOM      2  N   UNL d   1      58.590   0.308  30.396  0.00  0.00    -0.269 N 
ATOM      3  N   UNL d   1      59.058   0.474  31.620  0.00  0.00    -0.227 NA
ATOM      4  C   UNL d   1      59.391   0.425  30.340  0.00  0.00     0.085 A 
ATOM      5  C   UNL d   1      59.693   0.532  31.131  0.00  0.00     0.099 A 
ATOM      6  C   UNL d   1      59.881   0.451  29.709  0.00  0.00     0.019 A 
ATOM      7  C   UNL d   1      60.511   0.661  31.191  0.00  0.00     0.021 A 
ATOM      8  C   UNL d   1      60.663   0.579  29.834  0.00  0.00     0.002 A 
ATOM      9  C   UNL d   1      60.946   0.679  30.576  0.00  0.00     0.002 A 
ENDROOT
BRANCH   1  10
ATOM     10  C   UNL d   1      57.876   0.310  31.822  0.00  0.00     0.037 A 
ATOM     11  C   UNL d   1      57.156  -0.090  31.763  0.00  0.00     0.029 A 
ATOM     12  C   UNL d   1      56.641  -0.124  32.407  0.00  0.00     0.116 A 
ATOM     13  C   UNL d   1      56.849   0.247  33.122  0.00  0.00     0.116 A 
ATOM     14  C   UNL d   1      57.569   0.650  33.185  0.00  0.00     0.026 A 
ATOM     15  C   UNL d   1      58.084   0.682  32.537  0.00  0.00     0.005 A 
BRANCH  12  16
ATOM     16  O   UNL d   1      55.922  -0.524  32.348  0.00  0.00    -0.326 OA
ATOM     17  C   UNL d   1      55.902  -1.341  32.202  0.00  0.00     0.181 C 
ENDBRANCH  12  16
BRANCH  13  18
ATOM     18  O   UNL d   1      56.335   0.215  33.770  0.00  0.00    -0.326 OA
ATOM     19  C   UNL d   1      56.636   0.267  34.544  0.00  0.00     0.181 C 
ENDBRANCH  13  18
ENDBRANCH   1  10
BRANCH   2  20
ATOM     20  C   UNL d   1      57.991   0.180  29.901  0.00  0.00     0.205 C 
BRANCH  20  21
ATOM     21  O   UNL d   1      58.023   0.388  29.116  0.00  0.00    -0.310 OA
ATOM     22  C   UNL d   1      57.370   0.633  28.686  0.00  0.00     0.183 C 
ENDBRANCH  20  21
ENDBRANCH   2  20
TORSDOF 5
ENDMDL
