MODEL 1
REMARK VINA RESULT:     127.6      0.000      0.000
REMARK  5 active torsions:
REMARK  status: ('A' for Active; 'I' for Inactive)
REMARK    1  A    between atoms: C_5  and  C_1 
REMARK    2  A    between atoms: C_4  and  C_9 
REMARK    3  A    between atoms: N_7  and  C_5 
REMARK    4  A    between atoms: C_10  and  C_5 
REMARK    5  A    between atoms: C_12  and  N_7 
ROOT
ATOM      1  C   UNL d   1      58.179  38.714  55.119  0.00  0.00     0.086 C 
ENDROOT
BRANCH   1   2
ATOM      2  C   UNL d   1      58.661  39.353  55.320  0.00  0.00     0.058 A 
ATOM      3  C   UNL d   1      59.085  39.749  54.732  0.00  0.00     0.214 A 
ATOM      4  C   UNL d   1      59.567  40.391  54.941  0.00  0.00     0.120 A 
ATOM      5  O   UNL d   1      59.039  39.522  53.954  0.00  0.00    -0.285 OA
ATOM      6  N   UNL d   1      59.997  40.795  54.358  0.00  0.00    -0.242 NA
ATOM      7  C   UNL d   1      59.621  40.631  55.727  0.00  0.00     0.021 A 
ATOM      8  C   UNL d   1      60.476  41.433  54.560  0.00  0.00     0.082 A 
ATOM      9  C   UNL d   1      60.903  41.833  53.979  0.00  0.00     0.021 C 
ATOM     10  C   UNL d   1      60.531  41.675  55.354  0.00  0.00     0.019 A 
ATOM     11  C   UNL d   1      60.098  41.268  55.939  0.00  0.00     0.003 A 
ATOM     12  C   UNL d   1      59.194  40.233  56.317  0.00  0.00     0.002 A 
ATOM     13  C   UNL d   1      58.715  39.596  56.114  0.00  0.00     0.005 A 
ENDBRANCH   1   2
BRANCH   1  14
ATOM     14  N   UNL d   1      57.398  38.804  55.369  0.00  0.00    -0.245 NA
BRANCH  14  15
ATOM     15  C   UNL d   1      56.950  39.429  55.114  0.00  0.00     0.081 A 
ATOM     16  C   UNL d   1      56.856  39.567  54.316  0.00  0.00     0.023 A 
ATOM     17  C   UNL d   1      56.397  40.207  54.052  0.00  0.00     0.073 A 
ATOM     18  C   UNL d   1      56.034  40.707  54.608  0.00  0.00     0.004 A 
ATOM     19  C   UNL d   1      56.132  40.563  55.411  0.00  0.00     0.002 A 
ATOM     20  C   UNL d   1      56.590  39.924  55.659  0.00  0.00     0.019 A 
BRANCH  17  21
ATOM     21  C   UNL d   1      56.307  40.339  53.245  0.00  0.00     0.419 C 
ATOM     22  F   UNL d   1      56.228  40.450  52.506  0.00  0.00    -0.166 F 
ATOM     23  F   UNL d   1      56.467  39.803  52.597  0.00  0.00    -0.166 F 
ATOM     24  F   UNL d   1      56.033  41.037  52.835  0.00  0.00    -0.166 F 
ENDBRANCH  17  21
ENDBRANCH  14  15
ENDBRANCH   1  14
BRANCH   1  25
ATOM     25  C   UNL d   1      58.299  38.003  54.723  0.00  0.00     0.037 A 
ATOM     26  C   UNL d   1      59.048  37.825  54.410  0.00  0.00     0.100 A 
ATOM     27  N   UNL d   1      59.157  37.107  54.015  0.00  0.00    -0.242 NA
ATOM     28  C   UNL d   1      58.544  36.582  53.932  0.00  0.00     0.099 A 
ATOM     29  C   UNL d   1      57.804  36.757  54.241  0.00  0.00     0.021 A 
ATOM     30  C   UNL d   1      57.678  37.465  54.636  0.00  0.00     0.005 A 
ENDBRANCH   1  25
TORSDOF 5
ENDMDL
