MODEL 1
REMARK VINA RESULT:      52.0      0.000      0.000
REMARK  6 active torsions:
REMARK  status: ('A' for Active; 'I' for Inactive)
REMARK    1  A    between atoms: C_4  and  C_1 
REMARK       I    between atoms: N_6  and  C_1 
REMARK    2  A    between atoms: C_7  and  C_4 
REMARK    3  A    between atoms: O_20  and  C_5 
REMARK    4  A    between atoms: C_8  and  N_6 
REMARK    5  A    between atoms: C_13  and  C_7 
REMARK    6  A    between atoms: O_21  and  C_10 
ROOT
ATOM      1  C   UNL d   1     -49.725  27.318  33.923  0.00  0.00     0.076 C 
ENDROOT
BRANCH   1   2
ATOM      2  C   UNL d   1     -49.792  28.068  34.206  0.00  0.00     0.328 C 
ATOM      3  N   UNL d   1     -49.165  28.434  34.599  0.00  0.00    -0.365 NA
ATOM      4  O   UNL d   1     -50.500  28.486  34.105  0.00  0.00    -0.251 OA
BRANCH   3   5
ATOM      5  C   UNL d   1     -48.521  28.796  34.998  0.00  0.00     0.136 A 
ATOM      6  C   UNL d   1     -48.189  29.487  34.704  0.00  0.00     0.044 A 
ATOM      7  C   UNL d   1     -47.537  29.859  35.101  0.00  0.00     0.071 A 
ATOM      8 CL   UNL d   1     -47.210  30.540  34.812  0.00  0.00    -0.081 Cl
ATOM      9  C   UNL d   1     -47.252  29.498  35.792  0.00  0.00     0.069 A 
ATOM     10  C   UNL d   1     -47.584  28.807  36.086  0.00  0.00     0.015 A 
ATOM     11 CL   UNL d   1     -46.616  29.870  36.170  0.00  0.00    -0.082 Cl
ATOM     12  C   UNL d   1     -48.217  28.446  35.701  0.00  0.00     0.033 A 
ENDBRANCH   3   5
ENDBRANCH   1   2
BRANCH   1  13
ATOM     13  C   UNL d   1     -50.311  27.003  33.427  0.00  0.00     0.006 C 
BRANCH  13  14
ATOM     14  C   UNL d   1     -50.454  26.190  33.434  0.00  0.00     0.002 A 
ATOM     15  C   UNL d   1     -51.208  25.887  33.560  0.00  0.00     0.026 A 
ATOM     16  C   UNL d   1     -51.338  25.072  33.565  0.00  0.00     0.116 A 
ATOM     17  C   UNL d   1     -50.715  24.552  33.443  0.00  0.00     0.116 A 
ATOM     18  C   UNL d   1     -49.941  24.848  33.313  0.00  0.00     0.026 A 
ATOM     19  C   UNL d   1     -49.811  25.663  33.308  0.00  0.00     0.002 A 
BRANCH  16  20
ATOM     20  O   UNL d   1     -52.107  24.775  33.694  0.00  0.00    -0.326 OA
ATOM     21  C   UNL d   1     -52.747  25.119  33.312  0.00  0.00     0.181 C 
ENDBRANCH  16  20
BRANCH  17  22
ATOM     22  O   UNL d   1     -50.844  23.741  33.448  0.00  0.00    -0.326 OA
ATOM     23  C   UNL d   1     -50.252  23.237  33.749  0.00  0.00     0.181 C 
ENDBRANCH  17  22
ENDBRANCH  13  14
ENDBRANCH   1  13
TORSDOF 6
ENDMDL
MODEL 2
REMARK VINA RESULT:      52.5      2.695      5.518
REMARK  6 active torsions:
REMARK  status: ('A' for Active; 'I' for Inactive)
REMARK    1  A    between atoms: C_4  and  C_1 
REMARK       I    between atoms: N_6  and  C_1 
REMARK    2  A    between atoms: C_7  and  C_4 
REMARK    3  A    between atoms: O_20  and  C_5 
REMARK    4  A    between atoms: C_8  and  N_6 
REMARK    5  A    between atoms: C_13  and  C_7 
REMARK    6  A    between atoms: O_21  and  C_10 
ROOT
ATOM      1  C   UNL d   1     -49.745  27.791  33.954  0.00  0.00     0.076 C 
ENDROOT
BRANCH   1   2
ATOM      2  C   UNL d   1     -50.453  27.624  33.612  0.00  0.00     0.328 C 
ATOM      3  N   UNL d   1     -50.723  26.846  33.546  0.00  0.00    -0.365 NA
ATOM      4  O   UNL d   1     -50.926  28.236  33.318  0.00  0.00    -0.251 OA
BRANCH   3   5
ATOM      5  C   UNL d   1     -50.986  26.051  33.486  0.00  0.00     0.136 A 
ATOM      6  C   UNL d   1     -50.444  25.435  33.472  0.00  0.00     0.044 A 
ATOM      7  C   UNL d   1     -50.702  24.629  33.411  0.00  0.00     0.071 A 
ATOM      8 CL   UNL d   1     -50.167  24.022  33.397  0.00  0.00    -0.081 Cl
ATOM      9  C   UNL d   1     -51.519  24.490  33.366  0.00  0.00     0.069 A 
ATOM     10  C   UNL d   1     -52.062  25.105  33.379  0.00  0.00     0.015 A 
ATOM     11 CL   UNL d   1     -51.759  23.700  33.306  0.00  0.00    -0.082 Cl
ATOM     12  C   UNL d   1     -51.812  25.888  33.439  0.00  0.00     0.033 A 
ENDBRANCH   3   5
ENDBRANCH   1   2
BRANCH   1  13
ATOM     13  C   UNL d   1     -49.385  28.529  33.832  0.00  0.00     0.006 C 
BRANCH  13  14
ATOM     14  C   UNL d   1     -48.816  28.795  34.367  0.00  0.00     0.002 A 
ATOM     15  C   UNL d   1     -48.498  29.552  34.316  0.00  0.00     0.026 A 
ATOM     16  C   UNL d   1     -47.929  29.807  34.856  0.00  0.00     0.116 A 
ATOM     17  C   UNL d   1     -47.672  29.307  35.454  0.00  0.00     0.116 A 
ATOM     18  C   UNL d   1     -47.987  28.532  35.517  0.00  0.00     0.026 A 
ATOM     19  C   UNL d   1     -48.556  28.277  34.976  0.00  0.00     0.002 A 
BRANCH  16  20
ATOM     20  O   UNL d   1     -47.614  30.577  34.795  0.00  0.00    -0.326 OA
ATOM     21  C   UNL d   1     -48.093  31.227  34.944  0.00  0.00     0.181 C 
ENDBRANCH  16  20
BRANCH  17  22
ATOM     22  O   UNL d   1     -47.106  29.560  35.992  0.00  0.00    -0.326 OA
ATOM     23  C   UNL d   1     -47.353  29.860  36.730  0.00  0.00     0.181 C 
ENDBRANCH  17  22
ENDBRANCH  13  14
ENDBRANCH   1  13
TORSDOF 6
ENDMDL
