MODEL 1
REMARK VINA RESULT:      46.2      0.000      0.000
REMARK  8 active torsions:
REMARK  status: ('A' for Active; 'I' for Inactive)
REMARK    1  A    between atoms: C_2  and  S_1 
REMARK    2  A    between atoms: N_11  and  S_1 
REMARK    3  A    between atoms: C_10  and  C_3 
REMARK    4  A    between atoms: N_6  and  C_18 
REMARK    5  A    between atoms: C_20  and  N_11 
REMARK    6  A    between atoms: O_17  and  C_12 
REMARK    7  A    between atoms: C_18  and  C_19 
REMARK    8  A    between atoms: C_19  and  C_20 
ROOT
ATOM      1  C   UNL d   1     -58.225 -98.944 -44.430  0.00  0.00     0.105 A 
ATOM      2  C   UNL d   1     -56.828 -98.920 -44.729  0.00  0.00     0.000 A 
ATOM      3  C   UNL d   1     -57.611 -98.972 -44.982  0.00  0.00     0.011 A 
ATOM      4  C   UNL d   1     -56.660 -98.839 -43.924  0.00  0.00     0.090 A 
ATOM      5  C   UNL d   1     -58.058 -98.863 -43.622  0.00  0.00     0.015 A 
ATOM      6  C   UNL d   1     -57.275 -98.811 -43.369  0.00  0.00     0.025 A 
ENDROOT
BRANCH   1   7
ATOM      7  S   UNL d   1     -59.007 -98.996 -44.683  0.00  0.00     0.285 S 
ATOM      8  O   UNL d   1     -58.776 -98.778 -45.444  0.00  0.00    -0.198 OA
ATOM      9  O   UNL d   1     -59.239 -99.214 -43.923  0.00  0.00    -0.198 OA
BRANCH   7  10
ATOM     10  N   UNL d   1     -59.794 -99.049 -44.938  0.00  0.00    -0.157 NA
BRANCH  10  11
ATOM     11  C   UNL d   1     -59.959 -99.228 -45.731  0.00  0.00     0.114 C 
BRANCH  11  12
ATOM     12  C   UNL d   1     -59.569 -98.821 -46.332  0.00  0.00     0.041 C 
BRANCH  12  13
ATOM     13  C   UNL d   1     -59.905 -98.760 -47.084  0.00  0.00     0.083 C 
BRANCH  13  14
ATOM     14  N   UNL d   1     -59.887 -99.399 -47.604  0.00  0.00    -0.285 N 
ATOM     15  C   UNL d   1     -59.793 -99.348 -48.421  0.00  0.00     0.183 A 
ATOM     16  N   UNL d   1     -59.808-100.121 -48.720  0.00  0.00    -0.222 NA
ATOM     17  C   UNL d   1     -59.910-100.639 -48.088  0.00  0.00     0.120 A 
ATOM     18  C   UNL d   1     -59.959-100.189 -47.396  0.00  0.00     0.102 A 
ENDBRANCH  13  14
ENDBRANCH  12  13
ENDBRANCH  11  12
ENDBRANCH  10  11
ENDBRANCH   7  10
ENDBRANCH   1   7
BRANCH   2  19
ATOM     19  C   UNL d   1     -56.215 -98.948 -45.277  0.00  0.00     0.021 C 
ATOM     20  C   UNL d   1     -55.603 -98.975 -45.821  0.00  0.00     0.004 C 
ATOM     21  C   UNL d   1     -56.754 -99.137 -45.870  0.00  0.00     0.004 C 
ATOM     22  C   UNL d   1     -55.670 -98.757 -44.687  0.00  0.00     0.004 C 
ENDBRANCH   2  19
BRANCH   4  23
ATOM     23  O   UNL d   1     -55.877 -98.787 -43.671  0.00  0.00    -0.328 OA
ATOM     24  C   UNL d   1     -55.704 -98.791 -42.863  0.00  0.00     0.181 C 
ENDBRANCH   4  23
TORSDOF 8
ENDMDL
