MODEL 1
REMARK VINA RESULT:      -8.4      0.000      0.000
REMARK  5 active torsions:
REMARK  status: ('A' for Active; 'I' for Inactive)
REMARK    1  A    between atoms: S_3  and  N_1 
REMARK    2  A    between atoms: C_7  and  C_4 
REMARK    3  A    between atoms: C_8  and  C_5 
REMARK    4  A    between atoms: O_17  and  C_12 
REMARK    5  A    between atoms: C_20  and  O_17 
ROOT
ATOM      1  N   UNL d   1      54.271  32.819  54.007  0.00  0.00    -0.155 N 
ATOM      2  N   UNL d   1      54.273  32.017  53.775  0.00  0.00    -0.155 NA
ATOM      3  C   UNL d   1      53.503  33.053  54.080  0.00  0.00     0.098 A 
ATOM      4  C   UNL d   1      53.495  31.782  53.711  0.00  0.00     0.110 A 
ATOM      5  C   UNL d   1      52.990  32.431  53.903  0.00  0.00     0.041 A 
ENDROOT
BRANCH   3   6
ATOM      6  C   UNL d   1      53.256  33.810  54.302  0.00  0.00     0.041 A 
ATOM      7  C   UNL d   1      52.770  34.245  53.810  0.00  0.00     0.102 A 
ATOM      8  C   UNL d   1      52.523  35.001  54.031  0.00  0.00     0.025 A 
ATOM      9  C   UNL d   1      52.763  35.320  54.743  0.00  0.00     0.002 A 
ATOM     10  C   UNL d   1      53.253  34.884  55.242  0.00  0.00     0.000 A 
ATOM     11  C   UNL d   1      53.500  34.129  55.021  0.00  0.00     0.004 A 
BRANCH   7  12
ATOM     12  O   UNL d   1      52.524  33.926  53.086  0.00  0.00    -0.305 OA
BRANCH  12  13
ATOM     13  C   UNL d   1      51.934  34.298  52.653  0.00  0.00     0.123 C 
ATOM     14  C   UNL d   1      51.823  34.108  51.854  0.00  0.00     0.029 C 
ENDBRANCH  12  13
ENDBRANCH   7  12
ENDBRANCH   3   6
BRANCH   1  15
ATOM     15  S   UNL d   1      54.932  33.264  54.132  0.00  0.00     0.266 S 
ATOM     16  O   UNL d   1      54.999  33.408  53.309  0.00  0.00    -0.203 OA
ATOM     17  O   UNL d   1      54.900  33.146  54.937  0.00  0.00    -0.203 OA
ATOM     18  C   UNL d   1      55.628  33.734  54.239  0.00  0.00     0.165 C 
ENDBRANCH   1  15
BRANCH   4  19
ATOM     19  C   UNL d   1      53.215  31.032  53.496  0.00  0.00     0.049 A 
ATOM     20  S   UNL d   1      53.311  30.370  53.967  0.00  0.00    -0.085 SA
ATOM     21  C   UNL d   1      52.960  29.740  53.563  0.00  0.00     0.035 A 
ATOM     22  C   UNL d   1      52.649  30.016  52.846  0.00  0.00     0.007 A 
ATOM     23  C   UNL d   1      52.812  30.831  52.808  0.00  0.00     0.009 A 
ENDBRANCH   4  19
TORSDOF 5
ENDMDL
MODEL 2
REMARK VINA RESULT:      -7.6      1.506      2.507
REMARK  5 active torsions:
REMARK  status: ('A' for Active; 'I' for Inactive)
REMARK    1  A    between atoms: S_3  and  N_1 
REMARK    2  A    between atoms: C_7  and  C_4 
REMARK    3  A    between atoms: C_8  and  C_5 
REMARK    4  A    between atoms: O_17  and  C_12 
REMARK    5  A    between atoms: C_20  and  O_17 
ROOT
ATOM      1  N   UNL d   1      51.829  32.974  53.131  0.00  0.00    -0.155 N 
ATOM      2  N   UNL d   1      51.807  32.148  53.014  0.00  0.00    -0.155 NA
ATOM      3  C   UNL d   1      52.586  33.176  53.324  0.00  0.00     0.098 A 
ATOM      4  C   UNL d   1      52.561  31.866  53.140  0.00  0.00     0.110 A 
ATOM      5  C   UNL d   1      53.071  32.509  53.339  0.00  0.00     0.041 A 
ENDROOT
BRANCH   3   6
ATOM      6  C   UNL d   1      52.847  33.944  53.484  0.00  0.00     0.041 A 
ATOM      7  C   UNL d   1      53.284  34.098  54.157  0.00  0.00     0.102 A 
ATOM      8  C   UNL d   1      53.544  34.864  54.317  0.00  0.00     0.025 A 
ATOM      9  C   UNL d   1      53.367  35.475  53.806  0.00  0.00     0.002 A 
ATOM     10  C   UNL d   1      52.926  35.324  53.126  0.00  0.00     0.000 A 
ATOM     11  C   UNL d   1      52.665  34.558  52.965  0.00  0.00     0.004 A 
BRANCH   7  12
ATOM     12  O   UNL d   1      53.467  33.482  54.680  0.00  0.00    -0.305 OA
BRANCH  12  13
ATOM     13  C   UNL d   1      53.963  33.620  55.320  0.00  0.00     0.123 C 
ATOM     14  C   UNL d   1      54.330  32.985  55.705  0.00  0.00     0.029 C 
ENDBRANCH  12  13
ENDBRANCH   7  12
ENDBRANCH   3   6
BRANCH   1  15
ATOM     15  S   UNL d   1      51.194  33.467  53.060  0.00  0.00     0.266 S 
ATOM     16  O   UNL d   1      51.378  33.597  52.253  0.00  0.00    -0.203 OA
ATOM     17  O   UNL d   1      50.985  33.365  53.840  0.00  0.00    -0.203 OA
ATOM     18  C   UNL d   1      50.533  33.987  52.962  0.00  0.00     0.165 C 
ENDBRANCH   1  15
BRANCH   4  19
ATOM     19  C   UNL d   1      52.816  31.078  53.089  0.00  0.00     0.049 A 
ATOM     20  S   UNL d   1      52.348  30.445  53.313  0.00  0.00    -0.085 SA
ATOM     21  C   UNL d   1      52.794  29.763  53.179  0.00  0.00     0.035 A 
ATOM     22  C   UNL d   1      53.534  29.978  52.874  0.00  0.00     0.007 A 
ATOM     23  C   UNL d   1      53.543  30.808  52.818  0.00  0.00     0.009 A 
ENDBRANCH   4  19
TORSDOF 5
ENDMDL
MODEL 3
REMARK VINA RESULT:      -7.3      1.781      3.276
REMARK  5 active torsions:
REMARK  status: ('A' for Active; 'I' for Inactive)
REMARK    1  A    between atoms: S_3  and  N_1 
REMARK    2  A    between atoms: C_7  and  C_4 
REMARK    3  A    between atoms: C_8  and  C_5 
REMARK    4  A    between atoms: O_17  and  C_12 
REMARK    5  A    between atoms: C_20  and  O_17 
ROOT
ATOM      1  N   UNL d   1      52.623  34.192  53.913  0.00  0.00    -0.155 N 
ATOM      2  N   UNL d   1      51.879  34.491  53.681  0.00  0.00    -0.155 NA
ATOM      3  C   UNL d   1      52.846  33.638  53.371  0.00  0.00     0.098 A 
ATOM      4  C   UNL d   1      51.666  34.107  52.995  0.00  0.00     0.110 A 
ATOM      5  C   UNL d   1      52.272  33.558  52.783  0.00  0.00     0.041 A 
ENDROOT
BRANCH   3   6
ATOM      6  C   UNL d   1      53.550  33.207  53.395  0.00  0.00     0.041 A 
ATOM      7  C   UNL d   1      53.534  32.391  53.361  0.00  0.00     0.102 A 
ATOM      8  C   UNL d   1      54.237  31.960  53.384  0.00  0.00     0.025 A 
ATOM      9  C   UNL d   1      54.955  32.345  53.442  0.00  0.00     0.002 A 
ATOM     10  C   UNL d   1      54.975  33.169  53.476  0.00  0.00     0.000 A 
ATOM     11  C   UNL d   1      54.272  33.600  53.453  0.00  0.00     0.004 A 
BRANCH   7  12
ATOM     12  O   UNL d   1      52.809  31.994  53.302  0.00  0.00    -0.305 OA
BRANCH  12  13
ATOM     13  C   UNL d   1      52.793  31.192  53.128  0.00  0.00     0.123 C 
ATOM     14  C   UNL d   1      52.128  30.738  53.326  0.00  0.00     0.029 C 
ENDBRANCH  12  13
ENDBRANCH   7  12
ENDBRANCH   3   6
BRANCH   1  15
ATOM     15  S   UNL d   1      53.031  34.428  54.568  0.00  0.00     0.266 S 
ATOM     16  O   UNL d   1      53.365  35.065  54.138  0.00  0.00    -0.203 OA
ATOM     17  O   UNL d   1      52.726  33.822  55.018  0.00  0.00    -0.203 OA
ATOM     18  C   UNL d   1      53.468  34.695  55.242  0.00  0.00     0.165 C 
ENDBRANCH   1  15
BRANCH   4  19
ATOM     19  C   UNL d   1      50.972  34.215  52.555  0.00  0.00     0.049 A 
ATOM     20  S   UNL d   1      50.243  34.351  52.901  0.00  0.00    -0.085 SA
ATOM     21  C   UNL d   1      49.699  34.429  52.284  0.00  0.00     0.035 A 
ATOM     22  C   UNL d   1      50.095  34.341  51.561  0.00  0.00     0.007 A 
ATOM     23  C   UNL d   1      50.897  34.206  51.736  0.00  0.00     0.009 A 
ENDBRANCH   4  19
TORSDOF 5
ENDMDL
MODEL 4
REMARK VINA RESULT:      -7.3      1.688      3.173
REMARK  5 active torsions:
REMARK  status: ('A' for Active; 'I' for Inactive)
REMARK    1  A    between atoms: S_3  and  N_1 
REMARK    2  A    between atoms: C_7  and  C_4 
REMARK    3  A    between atoms: C_8  and  C_5 
REMARK    4  A    between atoms: O_17  and  C_12 
REMARK    5  A    between atoms: C_20  and  O_17 
ROOT
ATOM      1  N   UNL d   1      52.612  32.375  53.171  0.00  0.00    -0.155 N 
ATOM      2  N   UNL d   1      51.849  32.554  52.885  0.00  0.00    -0.155 NA
ATOM      3  C   UNL d   1      53.001  33.071  53.293  0.00  0.00     0.098 A 
ATOM      4  C   UNL d   1      51.792  33.366  52.840  0.00  0.00     0.110 A 
ATOM      5  C   UNL d   1      52.519  33.712  53.097  0.00  0.00     0.041 A 
ENDROOT
BRANCH   3   6
ATOM      6  C   UNL d   1      53.774  33.141  53.575  0.00  0.00     0.041 A 
ATOM      7  C   UNL d   1      53.935  33.611  54.224  0.00  0.00     0.102 A 
ATOM      8  C   UNL d   1      54.707  33.680  54.506  0.00  0.00     0.025 A 
ATOM      9  C   UNL d   1      55.317  33.280  54.139  0.00  0.00     0.002 A 
ATOM     10  C   UNL d   1      55.159  32.805  53.484  0.00  0.00     0.000 A 
ATOM     11  C   UNL d   1      54.387  32.736  53.202  0.00  0.00     0.004 A 
BRANCH   7  12
ATOM     12  O   UNL d   1      53.320  34.019  54.601  0.00  0.00    -0.305 OA
BRANCH  12  13
ATOM     13  C   UNL d   1      53.482  34.503  55.243  0.00  0.00     0.123 C 
ATOM     14  C   UNL d   1      53.009  35.167  55.392  0.00  0.00     0.029 C 
ENDBRANCH  12  13
ENDBRANCH   7  12
ENDBRANCH   3   6
BRANCH   1  15
ATOM     15  S   UNL d   1      52.893  31.629  53.297  0.00  0.00     0.266 S 
ATOM     16  O   UNL d   1      53.116  31.570  52.491  0.00  0.00    -0.203 OA
ATOM     17  O   UNL d   1      52.691  31.650  54.085  0.00  0.00    -0.203 OA
ATOM     18  C   UNL d   1      53.195  30.845  53.405  0.00  0.00     0.165 C 
ENDBRANCH   1  15
BRANCH   4  19
ATOM     19  C   UNL d   1      51.139  33.809  52.586  0.00  0.00     0.049 A 
ATOM     20  S   UNL d   1      50.480  33.936  53.055  0.00  0.00    -0.085 SA
ATOM     21  C   UNL d   1      49.958  34.397  52.610  0.00  0.00     0.035 A 
ATOM     22  C   UNL d   1      50.298  34.552  51.869  0.00  0.00     0.007 A 
ATOM     23  C   UNL d   1      51.042  34.179  51.859  0.00  0.00     0.009 A 
ENDBRANCH   4  19
TORSDOF 5
ENDMDL
MODEL 5
REMARK VINA RESULT:      -5.7      1.667      4.032
REMARK  5 active torsions:
REMARK  status: ('A' for Active; 'I' for Inactive)
REMARK    1  A    between atoms: S_3  and  N_1 
REMARK    2  A    between atoms: C_7  and  C_4 
REMARK    3  A    between atoms: C_8  and  C_5 
REMARK    4  A    between atoms: O_17  and  C_12 
REMARK    5  A    between atoms: C_20  and  O_17 
ROOT
ATOM      1  N   UNL d   1      52.885  32.438  53.506  0.00  0.00    -0.155 N 
ATOM      2  N   UNL d   1      53.246  33.069  53.916  0.00  0.00    -0.155 NA
ATOM      3  C   UNL d   1      53.357  31.788  53.588  0.00  0.00     0.098 A 
ATOM      4  C   UNL d   1      53.936  32.783  54.241  0.00  0.00     0.110 A 
ATOM      5  C   UNL d   1      54.023  31.967  54.042  0.00  0.00     0.041 A 
ENDROOT
BRANCH   3   6
ATOM      6  C   UNL d   1      53.201  31.044  53.266  0.00  0.00     0.041 A 
ATOM      7  C   UNL d   1      53.156  30.387  53.749  0.00  0.00     0.102 A 
ATOM      8  C   UNL d   1      53.000  29.644  53.427  0.00  0.00     0.025 A 
ATOM      9  C   UNL d   1      52.889  29.558  52.622  0.00  0.00     0.002 A 
ATOM     10  C   UNL d   1      52.934  30.219  52.131  0.00  0.00     0.000 A 
ATOM     11  C   UNL d   1      53.089  30.962  52.453  0.00  0.00     0.004 A 
BRANCH   7  12
ATOM     12  O   UNL d   1      53.267  30.467  54.566  0.00  0.00    -0.305 OA
BRANCH  12  13
ATOM     13  C   UNL d   1      53.273  29.802  55.047  0.00  0.00     0.123 C 
ATOM     14  C   UNL d   1      53.280  29.886  55.871  0.00  0.00     0.029 C 
ENDBRANCH  12  13
ENDBRANCH   7  12
ENDBRANCH   3   6
BRANCH   1  15
ATOM     15  S   UNL d   1      52.187  32.488  53.105  0.00  0.00     0.266 S 
ATOM     16  O   UNL d   1      51.761  32.361  53.815  0.00  0.00    -0.203 OA
ATOM     17  O   UNL d   1      52.567  32.614  52.395  0.00  0.00    -0.203 OA
ATOM     18  C   UNL d   1      51.443  32.537  52.703  0.00  0.00     0.165 C 
ENDBRANCH   1  15
BRANCH   4  19
ATOM     19  C   UNL d   1      54.486  33.203  54.699  0.00  0.00     0.049 A 
ATOM     20  S   UNL d   1      55.140  33.575  54.377  0.00  0.00    -0.085 SA
ATOM     21  C   UNL d   1      55.545  33.928  55.005  0.00  0.00     0.035 A 
ATOM     22  C   UNL d   1      55.138  33.772  55.711  0.00  0.00     0.007 A 
ATOM     23  C   UNL d   1      54.471  33.315  55.513  0.00  0.00     0.009 A 
ENDBRANCH   4  19
TORSDOF 5
ENDMDL
