MODEL 1
REMARK VINA RESULT:      -1.7      0.000      0.000
REMARK  8 active torsions:
REMARK  status: ('A' for Active; 'I' for Inactive)
REMARK    1  A    between atoms: C_2  and  S_1 
REMARK    2  A    between atoms: N_13  and  S_1 
REMARK    3  A    between atoms: C_16  and  C_4 
REMARK    4  A    between atoms: O_17  and  C_5 
REMARK    5  A    between atoms: N_8  and  C_18 
REMARK    6  A    between atoms: C_21  and  N_13 
REMARK    7  A    between atoms: C_18  and  C_19 
REMARK    8  A    between atoms: C_19  and  C_21 
ROOT
ATOM      1  C   UNL d   1      31.779  17.279 -24.206  0.00  0.00     0.128 A 
ATOM      2  C   UNL d   1      30.957  17.397 -24.181  0.00  0.00     0.015 A 
ATOM      3  C   UNL d   1      30.451  16.817 -24.478  0.00  0.00     0.001 A 
ATOM      4  C   UNL d   1      32.091  16.585 -24.526  0.00  0.00     0.106 A 
ATOM      5  C   UNL d   1      30.767  16.119 -24.800  0.00  0.00     0.002 A 
ATOM      6  C   UNL d   1      31.585  16.005 -24.823  0.00  0.00     0.025 A 
ATOM      7  C   UNL d   1      30.261  15.539 -25.097  0.00  0.00     0.000 C 
ENDROOT
BRANCH   1   8
ATOM      8  S   UNL d   1      32.285  17.859 -23.909  0.00  0.00     0.287 S 
ATOM      9  O   UNL d   1      32.299  17.473 -23.180  0.00  0.00    -0.198 OA
ATOM     10  O   UNL d   1      32.271  18.245 -24.639  0.00  0.00    -0.198 OA
BRANCH   8  11
ATOM     11  N   UNL d   1      32.794  18.443 -23.610  0.00  0.00    -0.157 NA
BRANCH  11  12
ATOM     12  C   UNL d   1      32.630  18.796 -22.876  0.00  0.00     0.114 C 
BRANCH  12  13
ATOM     13  C   UNL d   1      32.958  19.531 -22.694  0.00  0.00     0.041 C 
BRANCH  13  14
ATOM     14  C   UNL d   1      32.976  19.801 -21.911  0.00  0.00     0.083 C 
BRANCH  14  15
ATOM     15  N   UNL d   1      32.903  20.605 -21.743  0.00  0.00    -0.285 N 
ATOM     16  C   UNL d   1      32.486  20.926 -21.108  0.00  0.00     0.183 A 
ATOM     17  N   UNL d   1      32.560  21.749 -21.155  0.00  0.00    -0.222 NA
ATOM     18  C   UNL d   1      33.021  21.929 -21.815  0.00  0.00     0.120 A 
ATOM     19  C   UNL d   1      33.233  21.217 -22.179  0.00  0.00     0.102 A 
ENDBRANCH  14  15
ENDBRANCH  13  14
ENDBRANCH  12  13
ENDBRANCH  11  12
ENDBRANCH   8  11
ENDBRANCH   1   8
BRANCH   4  20
ATOM     20  O   UNL d   1      32.906  16.471 -24.549  0.00  0.00    -0.327 OA
ATOM     21  C   UNL d   1      33.216  15.786 -24.882  0.00  0.00     0.181 C 
ENDBRANCH   4  20
BRANCH   3  22
ATOM     22  C   UNL d   1      29.635  16.930 -24.456  0.00  0.00     0.000 C 
ATOM     23  C   UNL d   1      29.188  16.592 -23.851  0.00  0.00     0.000 C 
ATOM     24  C   UNL d   1      29.268  17.381 -25.038  0.00  0.00     0.000 C 
ENDBRANCH   3  22
TORSDOF 8
ENDMDL
MODEL 2
REMARK VINA RESULT:       0.9      1.557      2.338
REMARK  8 active torsions:
REMARK  status: ('A' for Active; 'I' for Inactive)
REMARK    1  A    between atoms: C_2  and  S_1 
REMARK    2  A    between atoms: N_13  and  S_1 
REMARK    3  A    between atoms: C_16  and  C_4 
REMARK    4  A    between atoms: O_17  and  C_5 
REMARK    5  A    between atoms: N_8  and  C_18 
REMARK    6  A    between atoms: C_21  and  N_13 
REMARK    7  A    between atoms: C_18  and  C_19 
REMARK    8  A    between atoms: C_19  and  C_21 
ROOT
ATOM      1  C   UNL d   1      32.795  18.286 -23.440  0.00  0.00     0.128 A 
ATOM      2  C   UNL d   1      33.020  17.545 -23.141  0.00  0.00     0.015 A 
ATOM      3  C   UNL d   1      32.798  16.858 -23.540  0.00  0.00     0.001 A 
ATOM      4  C   UNL d   1      32.349  18.338 -24.134  0.00  0.00     0.106 A 
ATOM      5  C   UNL d   1      32.350  16.912 -24.238  0.00  0.00     0.002 A 
ATOM      6  C   UNL d   1      32.127  17.651 -24.533  0.00  0.00     0.025 A 
ATOM      7  C   UNL d   1      32.127  16.225 -24.636  0.00  0.00     0.000 C 
ENDROOT
BRANCH   1   8
ATOM      8  S   UNL d   1      33.017  18.973 -23.041  0.00  0.00     0.287 S 
ATOM      9  O   UNL d   1      32.838  18.613 -22.321  0.00  0.00    -0.198 OA
ATOM     10  O   UNL d   1      33.196  19.334 -23.763  0.00  0.00    -0.198 OA
BRANCH   8  11
ATOM     11  N   UNL d   1      33.241  19.665 -22.640  0.00  0.00    -0.157 NA
BRANCH  11  12
ATOM     12  C   UNL d   1      32.797  19.925 -21.988  0.00  0.00     0.114 C 
BRANCH  12  13
ATOM     13  C   UNL d   1      33.072  20.553 -21.530  0.00  0.00     0.041 C 
BRANCH  13  14
ATOM     14  C   UNL d   1      32.752  21.311 -21.619  0.00  0.00     0.083 C 
BRANCH  14  15
ATOM     15  N   UNL d   1      32.887  21.894 -21.051  0.00  0.00    -0.285 N 
ATOM     16  C   UNL d   1      33.068  21.756 -20.258  0.00  0.00     0.183 A 
ATOM     17  N   UNL d   1      33.158  22.495 -19.894  0.00  0.00    -0.222 NA
ATOM     18  C   UNL d   1      33.032  23.079 -20.462  0.00  0.00     0.120 A 
ATOM     19  C   UNL d   1      32.864  22.704 -21.180  0.00  0.00     0.102 A 
ENDBRANCH  14  15
ENDBRANCH  13  14
ENDBRANCH  12  13
ENDBRANCH  11  12
ENDBRANCH   8  11
ENDBRANCH   1   8
BRANCH   4  20
ATOM     20  O   UNL d   1      32.127  19.075 -24.427  0.00  0.00    -0.327 OA
ATOM     21  C   UNL d   1      31.651  19.124 -25.096  0.00  0.00     0.181 C 
ENDBRANCH   4  20
BRANCH   3  22
ATOM     22  C   UNL d   1      33.020  16.120 -23.247  0.00  0.00     0.000 C 
ATOM     23  C   UNL d   1      33.223  16.035 -22.452  0.00  0.00     0.000 C 
ATOM     24  C   UNL d   1      33.038  15.469 -23.750  0.00  0.00     0.000 C 
ENDBRANCH   3  22
TORSDOF 8
ENDMDL
