MODEL 1
REMARK VINA RESULT:      34.0      0.000      0.000
REMARK  3 active torsions:
REMARK  status: ('A' for Active; 'I' for Inactive)
REMARK    1  A    between atoms: N_2  and  C_1 
REMARK    2  A    between atoms: N_3  and  C_1 
REMARK       I    between atoms: C_4  and  N_2 
REMARK    3  A    between atoms: C_9  and  C_4 
ROOT
ATOM      1  C   UNL d   1      59.321  49.614  49.838  0.00  0.00     0.209 C 
ATOM      2  S   UNL d   1      59.841  49.595  49.202  0.00  0.00    -0.038 SA
ENDROOT
BRANCH   1   3
ATOM      3  N   UNL d   1      59.624  49.696  50.606  0.00  0.00    -0.180 NA
ATOM      4  C   UNL d   1      60.352  49.351  50.791  0.00  0.00     0.281 C 
ATOM      5  O   UNL d   1      60.776  48.929  50.219  0.00  0.00    -0.265 OA
BRANCH   4   6
ATOM      6  C   UNL d   1      60.657  49.429  51.550  0.00  0.00     0.058 A 
ATOM      7  C   UNL d   1      61.478  49.405  51.678  0.00  0.00     0.005 A 
ATOM      8  C   UNL d   1      61.786  49.483  52.435  0.00  0.00     0.000 A 
ATOM      9  C   UNL d   1      61.268  49.587  53.079  0.00  0.00     0.000 A 
ATOM     10  C   UNL d   1      60.452  49.611  52.954  0.00  0.00     0.000 A 
ATOM     11  C   UNL d   1      60.153  49.532  52.190  0.00  0.00     0.005 A 
ENDBRANCH   4   6
ENDBRANCH   1   3
BRANCH   1  12
ATOM     12  N   UNL d   1      58.514  49.554  49.716  0.00  0.00    -0.281 N 
ATOM     13  C   UNL d   1      58.209  49.613  48.949  0.00  0.00     0.082 A 
ATOM     14  C   UNL d   1      57.387  49.551  48.828  0.00  0.00     0.019 A 
ATOM     15  C   UNL d   1      56.883  49.433  49.470  0.00  0.00     0.003 A 
ATOM     16  C   UNL d   1      57.191  49.376  50.229  0.00  0.00     0.019 A 
ATOM     17  C   UNL d   1      56.073  49.372  49.350  0.00  0.00     0.000 C 
ATOM     18  C   UNL d   1      58.007  49.436  50.354  0.00  0.00     0.082 A 
ENDBRANCH   1  12
TORSDOF 3
ENDMDL
