MODEL 1
REMARK VINA RESULT:       2.4      0.000      0.000
REMARK  6 active torsions:
REMARK  status: ('A' for Active; 'I' for Inactive)
REMARK    1  A    between atoms: S_10  and  C_5 
REMARK    2  A    between atoms: C_11  and  N_8 
REMARK    3  A    between atoms: C_15  and  S_10 
REMARK    4  A    between atoms: C_16  and  C_11 
REMARK    5  A    between atoms: C_17  and  C_15 
REMARK    6  A    between atoms: C_23  and  C_16 
ROOT
ATOM      1  C   UNL d   1      30.023  17.660 -24.288  0.00  0.00     0.174 A 
ATOM      2  C   UNL d   1      30.173  16.897 -24.001  0.00  0.00     0.159 A 
ATOM      3  N   UNL d   1      30.740  18.046 -24.361  0.00  0.00    -0.203 NA
ATOM      4  N   UNL d   1      29.244  17.886 -24.439  0.00  0.00    -0.239 N 
ATOM      5  C   UNL d   1      31.327  17.517 -24.119  0.00  0.00     0.181 A 
ATOM      6  C   UNL d   1      28.595  17.369 -24.312  0.00  0.00     0.358 A 
ATOM      7  N   UNL d   1      28.746  16.606 -24.025  0.00  0.00    -0.152 NA
ATOM      8  N   UNL d   1      31.052  16.767 -23.876  0.00  0.00    -0.279 N 
ATOM      9  C   UNL d   1      29.545  16.360 -23.865  0.00  0.00     0.302 A 
ATOM     10  O   UNL d   1      27.804  17.593 -24.463  0.00  0.00    -0.244 OA
ATOM     11  O   UNL d   1      29.696  15.597 -23.579  0.00  0.00    -0.263 OA
ATOM     12  C   UNL d   1      29.094  18.649 -24.725  0.00  0.00     0.105 C 
ENDROOT
BRANCH   5  13
ATOM     13  S   UNL d   1      32.067  17.871 -24.179  0.00  0.00    -0.049 SA
BRANCH  13  14
ATOM     14  C   UNL d   1      32.448  18.342 -24.745  0.00  0.00     0.038 C 
BRANCH  14  15
ATOM     15  C   UNL d   1      32.646  19.123 -24.568  0.00  0.00     0.007 A 
ATOM     16  C   UNL d   1      33.033  19.293 -23.862  0.00  0.00     0.001 A 
ATOM     17  C   UNL d   1      33.231  20.074 -23.685  0.00  0.00     0.000 A 
ATOM     18  C   UNL d   1      33.041  20.681 -24.215  0.00  0.00     0.000 A 
ATOM     19  C   UNL d   1      32.652  20.502 -24.924  0.00  0.00     0.000 A 
ATOM     20  C   UNL d   1      33.241  21.466 -24.037  0.00  0.00     0.000 C 
ATOM     21  C   UNL d   1      32.456  19.720 -25.097  0.00  0.00     0.001 A 
ENDBRANCH  14  15
ENDBRANCH  13  14
ENDBRANCH   5  13
BRANCH   8  22
ATOM     22  C   UNL d   1      31.580  16.188 -23.621  0.00  0.00     0.082 C 
BRANCH  22  23
ATOM     23  C   UNL d   1      32.090  16.338 -22.990  0.00  0.00     0.019 C 
BRANCH  23  24
ATOM     24  C   UNL d   1      32.606  15.754 -22.723  0.00  0.00     0.002 C 
ATOM     25  C   UNL d   1      32.537  15.453 -21.958  0.00  0.00     0.000 C 
ATOM     26  C   UNL d   1      33.200  15.462 -23.219  0.00  0.00     0.000 C 
ENDBRANCH  23  24
ENDBRANCH  22  23
ENDBRANCH   8  22
TORSDOF 6
ENDMDL
MODEL 2
REMARK VINA RESULT:       5.1      1.852      4.194
REMARK  6 active torsions:
REMARK  status: ('A' for Active; 'I' for Inactive)
REMARK    1  A    between atoms: S_10  and  C_5 
REMARK    2  A    between atoms: C_11  and  N_8 
REMARK    3  A    between atoms: C_15  and  S_10 
REMARK    4  A    between atoms: C_16  and  C_11 
REMARK    5  A    between atoms: C_17  and  C_15 
REMARK    6  A    between atoms: C_23  and  C_16 
ROOT
ATOM      1  C   UNL d   1      31.090  18.416 -24.623  0.00  0.00     0.174 A 
ATOM      2  C   UNL d   1      31.784  17.975 -24.520  0.00  0.00     0.159 A 
ATOM      3  N   UNL d   1      30.454  17.915 -24.504  0.00  0.00    -0.203 NA
ATOM      4  N   UNL d   1      31.147  19.217 -24.813  0.00  0.00    -0.239 N 
ATOM      5  C   UNL d   1      30.763  17.169 -24.328  0.00  0.00     0.181 A 
ATOM      6  C   UNL d   1      31.887  19.603 -24.905  0.00  0.00     0.358 A 
ATOM      7  N   UNL d   1      32.581  19.162 -24.802  0.00  0.00    -0.152 NA
ATOM      8  N   UNL d   1      31.596  17.122 -24.318  0.00  0.00    -0.279 N 
ATOM      9  C   UNL d   1      32.535  18.334 -24.606  0.00  0.00     0.302 A 
ATOM     10  O   UNL d   1      31.951  20.414 -25.097  0.00  0.00    -0.244 OA
ATOM     11  O   UNL d   1      33.230  17.893 -24.503  0.00  0.00    -0.263 OA
ATOM     12  C   UNL d   1      30.453  19.658 -24.916  0.00  0.00     0.105 C 
ENDROOT
BRANCH   5  13
ATOM     13  S   UNL d   1      30.150  16.635 -24.201  0.00  0.00    -0.049 SA
BRANCH  13  14
ATOM     14  C   UNL d   1      29.574  16.278 -24.678  0.00  0.00     0.038 C 
BRANCH  14  15
ATOM     15  C   UNL d   1      28.836  16.089 -24.363  0.00  0.00     0.007 A 
ATOM     16  C   UNL d   1      28.307  15.642 -24.808  0.00  0.00     0.001 A 
ATOM     17  C   UNL d   1      27.568  15.452 -24.493  0.00  0.00     0.000 A 
ATOM     18  C   UNL d   1      27.362  15.712 -23.735  0.00  0.00     0.000 A 
ATOM     19  C   UNL d   1      27.898  16.162 -23.293  0.00  0.00     0.000 A 
ATOM     20  C   UNL d   1      26.619  15.522 -23.419  0.00  0.00     0.000 C 
ATOM     21  C   UNL d   1      28.636  16.349 -23.612  0.00  0.00     0.001 A 
ENDBRANCH  14  15
ENDBRANCH  13  14
ENDBRANCH   5  13
BRANCH   8  22
ATOM     22  C   UNL d   1      31.974  16.409 -24.150  0.00  0.00     0.082 C 
BRANCH  22  23
ATOM     23  C   UNL d   1      32.010  16.129 -23.375  0.00  0.00     0.019 C 
BRANCH  23  24
ATOM     24  C   UNL d   1      32.657  15.687 -23.120  0.00  0.00     0.002 C 
ATOM     25  C   UNL d   1      33.241  15.453 -23.654  0.00  0.00     0.000 C 
ATOM     26  C   UNL d   1      32.728  15.472 -22.324  0.00  0.00     0.000 C 
ENDBRANCH  23  24
ENDBRANCH  22  23
ENDBRANCH   8  22
TORSDOF 6
ENDMDL
