MODEL 1
REMARK VINA RESULT:      -4.5      0.000      0.000
REMARK  5 active torsions:
REMARK  status: ('A' for Active; 'I' for Inactive)
REMARK    1  A    between atoms: N_2  and  C_1 
REMARK    2  A    between atoms: C_4  and  C_8 
REMARK       I    between atoms: N_7  and  C_4 
REMARK    3  A    between atoms: C_9  and  C_6 
REMARK    4  A    between atoms: C_14  and  N_7 
REMARK    5  A    between atoms: C_8  and  C_9 
ROOT
ATOM      1  C   UNL d   1      57.645  -0.427  30.960  0.00  0.00     0.265 C 
ATOM      2  N   UNL d   1      58.216  -0.067  30.513  0.00  0.00    -0.272 N 
ATOM      3  O   UNL d   1      57.351  -1.179  30.788  0.00  0.00    -0.267 OA
ATOM      4  C   UNL d   1      58.495   0.679  30.700  0.00  0.00     0.102 C 
ENDROOT
BRANCH   1   5
ATOM      5  C   UNL d   1      57.345  -0.025  31.614  0.00  0.00     0.062 C 
BRANCH   5   6
ATOM      6  C   UNL d   1      56.870  -0.452  32.166  0.00  0.00     0.011 C 
BRANCH   6   7
ATOM      7  C   UNL d   1      56.559  -0.066  32.866  0.00  0.00     0.031 A 
ATOM      8  S   UNL d   1      55.778  -0.027  33.092  0.00  0.00    -0.064 SA
ATOM      9  C   UNL d   1      55.713   0.397  33.802  0.00  0.00     0.156 A 
ATOM     10  C   UNL d   1      56.492   0.619  34.005  0.00  0.00     0.031 A 
ATOM     11  C   UNL d   1      56.984   0.339  33.443  0.00  0.00     0.009 A 
BRANCH   9  12
ATOM     12  N   UNL d   1      55.032   0.576  34.237  0.00  0.00    -0.107 N 
ATOM     13  O   UNL d   1      54.272   0.676  33.844  0.00  0.00    -0.531 OA
ATOM     14  O   UNL d   1      55.019   0.674  35.087  0.00  0.00    -0.531 OA
ENDBRANCH   9  12
ENDBRANCH   6   7
ENDBRANCH   5   6
ENDBRANCH   1   5
BRANCH   2  15
ATOM     15  C   UNL d   1      58.524  -0.461  29.856  0.00  0.00     0.067 A 
ATOM     16  C   UNL d   1      59.014  -1.099  29.950  0.00  0.00     0.018 A 
ATOM     17  C   UNL d   1      59.304  -1.470  29.278  0.00  0.00     0.002 A 
ATOM     18  C   UNL d   1      59.112  -1.213  28.520  0.00  0.00     0.000 A 
ATOM     19  C   UNL d   1      58.600  -0.547  28.455  0.00  0.00     0.002 A 
ATOM     20  C   UNL d   1      58.311  -0.177  29.105  0.00  0.00     0.018 A 
ENDBRANCH   2  15
TORSDOF 5
ENDMDL
MODEL 2
REMARK VINA RESULT:      -4.2      1.875      5.141
REMARK  5 active torsions:
REMARK  status: ('A' for Active; 'I' for Inactive)
REMARK    1  A    between atoms: N_2  and  C_1 
REMARK    2  A    between atoms: C_4  and  C_8 
REMARK       I    between atoms: N_7  and  C_4 
REMARK    3  A    between atoms: C_9  and  C_6 
REMARK    4  A    between atoms: C_14  and  N_7 
REMARK    5  A    between atoms: C_8  and  C_9 
ROOT
ATOM      1  C   UNL d   1      56.827  -0.141  32.063  0.00  0.00     0.265 C 
ATOM      2  N   UNL d   1      56.376  -0.582  32.570  0.00  0.00    -0.272 N 
ATOM      3  O   UNL d   1      56.876   0.681  32.109  0.00  0.00    -0.267 OA
ATOM      4  C   UNL d   1      56.340  -1.398  32.507  0.00  0.00     0.102 C 
ENDROOT
BRANCH   1   5
ATOM      5  C   UNL d   1      57.254  -0.531  31.475  0.00  0.00     0.062 C 
BRANCH   5   6
ATOM      6  C   UNL d   1      57.661  -0.066  30.898  0.00  0.00     0.011 C 
BRANCH   6   7
ATOM      7  C   UNL d   1      58.163  -0.440  30.312  0.00  0.00     0.031 A 
ATOM      8  S   UNL d   1      58.855  -0.140  30.003  0.00  0.00    -0.064 SA
ATOM      9  C   UNL d   1      59.170  -0.675  29.452  0.00  0.00     0.156 A 
ATOM     10  C   UNL d   1      58.641  -1.319  29.435  0.00  0.00     0.031 A 
ATOM     11  C   UNL d   1      58.049  -1.169  29.948  0.00  0.00     0.009 A 
BRANCH   9  12
ATOM     12  N   UNL d   1      59.861  -0.605  29.002  0.00  0.00    -0.107 N 
ATOM     13  O   UNL d   1      59.967   0.053  28.457  0.00  0.00    -0.531 OA
ATOM     14  O   UNL d   1      60.510  -1.160  29.035  0.00  0.00    -0.531 OA
ENDBRANCH   9  12
ENDBRANCH   6   7
ENDBRANCH   5   6
ENDBRANCH   1   5
BRANCH   2  15
ATOM     15  C   UNL d   1      55.944  -0.203  33.162  0.00  0.00     0.067 A 
ATOM     16  C   UNL d   1      55.134  -0.184  33.133  0.00  0.00     0.018 A 
ATOM     17  C   UNL d   1      54.732   0.201  33.736  0.00  0.00     0.002 A 
ATOM     18  C   UNL d   1      55.126   0.563  34.362  0.00  0.00     0.000 A 
ATOM     19  C   UNL d   1      55.968   0.526  34.363  0.00  0.00     0.002 A 
ATOM     20  C   UNL d   1      56.370   0.153  33.780  0.00  0.00     0.018 A 
ENDBRANCH   2  15
TORSDOF 5
ENDMDL
MODEL 3
REMARK VINA RESULT:      -3.4      1.589      2.023
REMARK  5 active torsions:
REMARK  status: ('A' for Active; 'I' for Inactive)
REMARK    1  A    between atoms: N_2  and  C_1 
REMARK    2  A    between atoms: C_4  and  C_8 
REMARK       I    between atoms: N_7  and  C_4 
REMARK    3  A    between atoms: C_9  and  C_6 
REMARK    4  A    between atoms: C_14  and  N_7 
REMARK    5  A    between atoms: C_8  and  C_9 
ROOT
ATOM      1  C   UNL d   1      58.653   0.012  30.200  0.00  0.00     0.265 C 
ATOM      2  N   UNL d   1      58.914  -0.470  29.605  0.00  0.00    -0.272 N 
ATOM      3  O   UNL d   1      59.071   0.677  30.454  0.00  0.00    -0.267 OA
ATOM      4  C   UNL d   1      58.484  -1.125  29.368  0.00  0.00     0.102 C 
ENDROOT
BRANCH   1   5
ATOM      5  C   UNL d   1      57.938  -0.170  30.570  0.00  0.00     0.062 C 
BRANCH   5   6
ATOM      6  C   UNL d   1      57.584   0.412  31.070  0.00  0.00     0.011 C 
BRANCH   6   7
ATOM      7  C   UNL d   1      57.015   0.184  31.670  0.00  0.00     0.031 A 
ATOM      8  S   UNL d   1      56.824  -0.576  31.892  0.00  0.00    -0.064 SA
ATOM      9  C   UNL d   1      56.249  -0.555  32.491  0.00  0.00     0.156 A 
ATOM     10  C   UNL d   1      56.095   0.253  32.628  0.00  0.00     0.031 A 
ATOM     11  C   UNL d   1      56.554   0.681  32.136  0.00  0.00     0.009 A 
BRANCH   9  12
ATOM     12  N   UNL d   1      55.890  -1.188  32.885  0.00  0.00    -0.107 N 
ATOM     13  O   UNL d   1      56.352  -1.870  33.135  0.00  0.00    -0.531 OA
ATOM     14  O   UNL d   1      55.057  -1.223  33.073  0.00  0.00    -0.531 OA
ENDBRANCH   9  12
ENDBRANCH   6   7
ENDBRANCH   5   6
ENDBRANCH   1   5
BRANCH   2  15
ATOM     15  C   UNL d   1      59.628  -0.297  29.228  0.00  0.00     0.067 A 
ATOM     16  C   UNL d   1      59.728   0.406  28.838  0.00  0.00     0.018 A 
ATOM     17  C   UNL d   1      60.449   0.550  28.473  0.00  0.00     0.002 A 
ATOM     18  C   UNL d   1      61.065   0.004  28.493  0.00  0.00     0.000 A 
ATOM     19  C   UNL d   1      60.930  -0.717  28.908  0.00  0.00     0.002 A 
ATOM     20  C   UNL d   1      60.230  -0.868  29.267  0.00  0.00     0.018 A 
ENDBRANCH   2  15
TORSDOF 5
ENDMDL
MODEL 4
REMARK VINA RESULT:      -1.6      9.784      9.891
REMARK  5 active torsions:
REMARK  status: ('A' for Active; 'I' for Inactive)
REMARK    1  A    between atoms: N_2  and  C_1 
REMARK    2  A    between atoms: C_4  and  C_8 
REMARK       I    between atoms: N_7  and  C_4 
REMARK    3  A    between atoms: C_9  and  C_6 
REMARK    4  A    between atoms: C_14  and  N_7 
REMARK    5  A    between atoms: C_8  and  C_9 
ROOT
ATOM      1  C   UNL d   1      58.692  -9.794  31.437  0.00  0.00     0.265 C 
ATOM      2  N   UNL d   1      58.991  -9.804  30.684  0.00  0.00    -0.272 N 
ATOM      3  O   UNL d   1      57.883  -9.782  31.596  0.00  0.00    -0.267 OA
ATOM      4  C   UNL d   1      59.798  -9.815  30.548  0.00  0.00     0.102 C 
ENDROOT
BRANCH   1   5
ATOM      5  C   UNL d   1      59.220  -9.795  32.070  0.00  0.00     0.062 C 
BRANCH   5   6
ATOM      6  C   UNL d   1      58.911  -9.701  32.851  0.00  0.00     0.011 C 
BRANCH   6   7
ATOM      7  C   UNL d   1      59.437  -9.558  33.514  0.00  0.00     0.031 A 
ATOM      8  S   UNL d   1      59.222  -9.305  34.257  0.00  0.00    -0.064 SA
ATOM      9  C   UNL d   1      59.897  -9.236  34.735  0.00  0.00     0.156 A 
ATOM     10  C   UNL d   1      60.540  -9.459  34.252  0.00  0.00     0.031 A 
ATOM     11  C   UNL d   1      60.255  -9.647  33.531  0.00  0.00     0.009 A 
BRANCH   9  12
ATOM     12  N   UNL d   1      59.948  -8.999  35.526  0.00  0.00    -0.107 N 
ATOM     13  O   UNL d   1      60.706  -8.779  35.872  0.00  0.00    -0.531 OA
ATOM     14  O   UNL d   1      59.278  -8.952  36.056  0.00  0.00    -0.531 OA
ENDBRANCH   9  12
ENDBRANCH   6   7
ENDBRANCH   5   6
ENDBRANCH   1   5
BRANCH   2  15
ATOM     15  C   UNL d   1      58.472  -9.803  30.043  0.00  0.00     0.067 A 
ATOM     16  C   UNL d   1      57.670  -9.801  30.162  0.00  0.00     0.018 A 
ATOM     17  C   UNL d   1      57.179  -9.800  29.504  0.00  0.00     0.002 A 
ATOM     18  C   UNL d   1      57.477  -9.802  28.736  0.00  0.00     0.000 A 
ATOM     19  C   UNL d   1      58.315  -9.804  28.646  0.00  0.00     0.002 A 
ATOM     20  C   UNL d   1      58.804  -9.804  29.281  0.00  0.00     0.018 A 
ENDBRANCH   2  15
TORSDOF 5
ENDMDL
