MODEL 1
REMARK VINA RESULT:      19.3      0.000      0.000
REMARK  4 active torsions:
REMARK  status: ('A' for Active; 'I' for Inactive)
REMARK    1  A    between atoms: C_9  and  C_4 
REMARK    2  A    between atoms: C_7  and  C_11 
REMARK    3  A    between atoms: O_12  and  C_7 
REMARK    4  A    between atoms: C_11  and  C_9 
ROOT
ATOM      1  N   UNL d   1      58.431  49.707  50.860  0.00  0.00    -0.239 NA
ATOM      2  N   UNL d   1      57.979  49.708  49.269  0.00  0.00    -0.205 NA
ATOM      3  C   UNL d   1      58.778  49.708  49.474  0.00  0.00     0.297 A 
ATOM      4  C   UNL d   1      59.008  49.707  50.275  0.00  0.00     0.139 A 
ATOM      5  C   UNL d   1      57.634  49.707  50.655  0.00  0.00     0.099 A 
ATOM      6  C   UNL d   1      57.407  49.707  49.862  0.00  0.00     0.102 A 
ATOM      7  O   UNL d   1      59.360  49.708  48.886  0.00  0.00    -0.264 OA
ATOM      8  C   UNL d   1      57.059  49.707  51.250  0.00  0.00     0.021 A 
ATOM      9  C   UNL d   1      56.604  49.707  49.664  0.00  0.00     0.021 A 
ATOM     10  C   UNL d   1      56.033  49.707  50.256  0.00  0.00     0.002 A 
ATOM     11  C   UNL d   1      56.261  49.707  51.049  0.00  0.00     0.002 A 
ENDROOT
BRANCH   4  12
ATOM     12  C   UNL d   1      59.807  49.707  50.474  0.00  0.00     0.029 C 
BRANCH  12  13
ATOM     13  C   UNL d   1      60.039  49.553  51.246  0.00  0.00     0.070 C 
BRANCH  13  14
ATOM     14  C   UNL d   1      60.836  49.401  51.411  0.00  0.00     0.296 C 
ATOM     15  O   UNL d   1      61.428  49.672  50.904  0.00  0.00    -0.259 OA
BRANCH  14  16
ATOM     16  O   UNL d   1      61.040  48.973  52.093  0.00  0.00    -0.296 OA
ATOM     17  C   UNL d   1      61.404  49.355  52.727  0.00  0.00     0.185 C 
ENDBRANCH  14  16
ENDBRANCH  13  14
ENDBRANCH  12  13
ENDBRANCH   4  12
TORSDOF 4
ENDMDL
