MODEL 1
REMARK VINA RESULT:      -3.7      0.000      0.000
REMARK  2 active torsions:
REMARK  status: ('A' for Active; 'I' for Inactive)
REMARK    1  A    between atoms: C_3  and  C_1 
REMARK       I    between atoms: N_2  and  C_3 
REMARK    2  A    between atoms: O_16  and  C_15 
ROOT
ATOM      1  C   UNL d   1     -41.703-122.186 -51.362  0.00  0.00     0.121 A 
ATOM      2  C   UNL d   1     -42.033-121.599 -51.841  0.00  0.00     0.305 A 
ATOM      3  O   UNL d   1     -42.060-121.704 -52.669  0.00  0.00    -0.271 OA
ATOM      4  C   UNL d   1     -41.395-122.885 -51.701  0.00  0.00     0.012 A 
ATOM      5  C   UNL d   1     -41.760-122.388 -53.005  0.00  0.00     0.125 A 
ATOM      6  C   UNL d   1     -41.426-122.981 -52.521  0.00  0.00     0.025 A 
ATOM      7  O   UNL d   1     -42.335-120.912 -51.507  0.00  0.00    -0.259 OA
ATOM      8  C   UNL d   1     -41.782-122.503 -53.827  0.00  0.00     0.117 A 
ATOM      9  C   UNL d   1     -41.123-123.672 -52.862  0.00  0.00     0.002 A 
ATOM     10  C   UNL d   1     -41.152-123.771 -53.681  0.00  0.00     0.002 A 
ATOM     11  C   UNL d   1     -41.480-123.189 -54.160  0.00  0.00     0.026 A 
ENDROOT
BRANCH   1  12
ATOM     12  C   UNL d   1     -41.677-122.081 -50.548  0.00  0.00     0.285 C 
ATOM     13  N   UNL d   1     -42.200-122.480 -50.059  0.00  0.00    -0.193 N 
ATOM     14  N   UNL d   1     -42.782-123.006 -50.310  0.00  0.00    -0.163 NA
ATOM     15  C   UNL d   1     -42.237-122.429 -49.241  0.00  0.00     0.105 A 
ATOM     16  C   UNL d   1     -43.178-123.278 -49.642  0.00  0.00     0.103 A 
ATOM     17  C   UNL d   1     -43.806-123.817 -49.640  0.00  0.00     0.022 C 
ATOM     18  C   UNL d   1     -42.842-122.923 -48.988  0.00  0.00     0.042 A 
ATOM     19  O   UNL d   1     -41.123-121.571 -50.216  0.00  0.00    -0.265 OA
ENDBRANCH   1  12
BRANCH   8  20
ATOM     20  O   UNL d   1     -42.112-121.916 -54.300  0.00  0.00    -0.326 OA
ATOM     21  C   UNL d   1     -42.129-121.996 -55.116  0.00  0.00     0.181 C 
ENDBRANCH   8  20
TORSDOF 2
ENDMDL
MODEL 2
REMARK VINA RESULT:      -1.6      1.885      4.469
REMARK  2 active torsions:
REMARK  status: ('A' for Active; 'I' for Inactive)
REMARK    1  A    between atoms: C_3  and  C_1 
REMARK       I    between atoms: N_2  and  C_3 
REMARK    2  A    between atoms: O_16  and  C_15 
ROOT
ATOM      1  C   UNL d   1     -42.219-123.252 -50.159  0.00  0.00     0.121 A 
ATOM      2  C   UNL d   1     -42.997-123.351 -49.896  0.00  0.00     0.305 A 
ATOM      3  O   UNL d   1     -43.151-123.448 -49.082  0.00  0.00    -0.271 OA
ATOM      4  C   UNL d   1     -41.586-123.249 -49.613  0.00  0.00     0.012 A 
ATOM      5  C   UNL d   1     -42.534-123.446 -48.544  0.00  0.00     0.125 A 
ATOM      6  C   UNL d   1     -41.748-123.346 -48.809  0.00  0.00     0.025 A 
ATOM      7  O   UNL d   1     -43.619-123.353 -50.433  0.00  0.00    -0.259 OA
ATOM      8  C   UNL d   1     -42.676-123.542 -47.732  0.00  0.00     0.117 A 
ATOM      9  C   UNL d   1     -41.124-123.344 -48.265  0.00  0.00     0.002 A 
ATOM     10  C   UNL d   1     -41.283-123.441 -47.461  0.00  0.00     0.002 A 
ATOM     11  C   UNL d   1     -42.055-123.540 -47.196  0.00  0.00     0.026 A 
ENDROOT
BRANCH   1  12
ATOM     12  C   UNL d   1     -42.069-123.156 -50.961  0.00  0.00     0.285 C 
ATOM     13  N   UNL d   1     -41.785-122.443 -51.249  0.00  0.00    -0.193 N 
ATOM     14  N   UNL d   1     -41.624-121.775 -50.796  0.00  0.00    -0.163 NA
ATOM     15  C   UNL d   1     -41.611-122.270 -52.031  0.00  0.00     0.105 A 
ATOM     16  C   UNL d   1     -41.351-121.188 -51.304  0.00  0.00     0.103 A 
ATOM     17  C   UNL d   1     -41.124-120.424 -51.082  0.00  0.00     0.022 C 
ATOM     18  C   UNL d   1     -41.344-121.494 -52.061  0.00  0.00     0.042 A 
ATOM     19  O   UNL d   1     -42.204-123.778 -51.482  0.00  0.00    -0.265 OA
ENDBRANCH   1  12
BRANCH   8  20
ATOM     20  O   UNL d   1     -43.452-123.641 -47.475  0.00  0.00    -0.326 OA
ATOM     21  C   UNL d   1     -43.620-123.739 -46.678  0.00  0.00     0.181 C 
ENDBRANCH   8  20
TORSDOF 2
ENDMDL
