MODEL 1
REMARK VINA RESULT:       4.9      0.000      0.000
REMARK  9 active torsions:
REMARK  status: ('A' for Active; 'I' for Inactive)
REMARK    1  A    between atoms: C_17  and  N_1 
REMARK    2  A    between atoms: S_10  and  C_2 
REMARK    3  A    between atoms: N_8  and  C_9 
REMARK    4  A    between atoms: C_19  and  S_10 
REMARK    5  A    between atoms: C_11  and  C_19 
REMARK       I    between atoms: N_13  and  C_11 
REMARK    6  A    between atoms: C_20  and  N_13 
REMARK    7  A    between atoms: C_28  and  C_17 
REMARK    8  A    between atoms: C_23  and  C_20 
REMARK    9  A    between atoms: C_29  and  C_28 
ROOT
ATOM      1  N   UNL d   1     -41.350-121.999 -52.007  0.00  0.00    -0.253 N 
ATOM      2  C   UNL d   1     -41.424-122.805 -51.850  0.00  0.00     0.182 A 
ATOM      3  C   UNL d   1     -41.503-121.710 -52.771  0.00  0.00     0.268 A 
ATOM      4  C   UNL d   1     -41.730-122.229 -53.371  0.00  0.00     0.076 A 
ATOM      5  N   UNL d   1     -41.653-123.323 -52.458  0.00  0.00    -0.222 NA
ATOM      6  C   UNL d   1     -41.804-123.035 -53.214  0.00  0.00     0.088 A 
ATOM      7  C   UNL d   1     -41.881-121.939 -54.126  0.00  0.00     0.024 A 
ATOM      8  C   UNL d   1     -42.107-122.457 -54.726  0.00  0.00     0.065 A 
ATOM      9  O   UNL d   1     -41.429-120.904 -52.928  0.00  0.00    -0.267 OA
ATOM     10  C   UNL d   1     -42.030-123.552 -53.813  0.00  0.00     0.021 A 
ATOM     11  C   UNL d   1     -42.182-123.264 -54.569  0.00  0.00     0.019 A 
ENDROOT
BRANCH   2  12
ATOM     12  S   UNL d   1     -41.272-123.097 -51.091  0.00  0.00    -0.044 SA
BRANCH  12  13
ATOM     13  C   UNL d   1     -41.679-123.769 -50.810  0.00  0.00     0.101 C 
BRANCH  13  14
ATOM     14  C   UNL d   1     -42.133-123.717 -50.119  0.00  0.00     0.286 C 
ATOM     15  N   UNL d   1     -41.764-123.789 -49.379  0.00  0.00    -0.206 NA
ATOM     16  O   UNL d   1     -42.947-123.593 -50.175  0.00  0.00    -0.265 OA
BRANCH  15  17
ATOM     17  C   UNL d   1     -42.223-123.736 -48.685  0.00  0.00     0.102 C 
BRANCH  17  18
ATOM     18  C   UNL d   1     -41.908-123.364 -48.013  0.00  0.00     0.019 A 
ATOM     19  C   UNL d   1     -41.584-123.817 -47.404  0.00  0.00     0.002 A 
ATOM     20  C   UNL d   1     -41.271-123.453 -46.735  0.00  0.00     0.000 A 
ATOM     21  C   UNL d   1     -41.282-122.615 -46.676  0.00  0.00     0.000 A 
ATOM     22  C   UNL d   1     -41.606-122.162 -47.285  0.00  0.00     0.000 A 
ATOM     23  C   UNL d   1     -41.921-122.533 -47.958  0.00  0.00     0.002 A 
ENDBRANCH  17  18
ENDBRANCH  15  17
ENDBRANCH  13  14
ENDBRANCH  12  13
ENDBRANCH   2  12
BRANCH   1  24
ATOM     24  C   UNL d   1     -41.123-121.480 -51.405  0.00  0.00     0.085 C 
BRANCH  24  25
ATOM     25  C   UNL d   1     -41.325-120.682 -51.450  0.00  0.00     0.019 C 
BRANCH  25  26
ATOM     26  C   UNL d   1     -41.349-120.223 -50.759  0.00  0.00     0.002 C 
ATOM     27  C   UNL d   1     -41.123-119.430 -50.781  0.00  0.00     0.000 C 
ENDBRANCH  25  26
ENDBRANCH  24  25
ENDBRANCH   1  24
BRANCH   8  28
ATOM     28  N   UNL d   1     -42.259-122.167 -55.481  0.00  0.00    -0.300 N 
ATOM     29  C   UNL d   1     -41.731-121.640 -55.831  0.00  0.00     0.107 A 
ATOM     30  C   UNL d   1     -41.879-121.343 -56.596  0.00  0.00     0.142 A 
ATOM     31  O   UNL d   1     -42.563-121.582 -57.006  0.00  0.00    -0.300 OA
ATOM     32  C   UNL d   1     -43.094-122.117 -56.648  0.00  0.00     0.142 A 
ATOM     33  C   UNL d   1     -42.943-122.407 -55.891  0.00  0.00     0.107 A 
ENDBRANCH   8  28
TORSDOF 9
ENDMDL
