MODEL 1
REMARK VINA RESULT:       6.0      0.000      0.000
REMARK  4 active torsions:
REMARK  status: ('A' for Active; 'I' for Inactive)
REMARK    1  A    between atoms: N_10  and  C_3 
REMARK    2  A    between atoms: C_14  and  C_5 
REMARK    3  A    between atoms: C_15  and  C_9 
REMARK       I    between atoms: C_11  and  N_12 
REMARK    4  A    between atoms: C_13  and  C_11 
ROOT
ATOM      1  N   UNL d   1      33.205  19.660 -21.866  0.00  0.00    -0.196 N 
ATOM      2  C   UNL d   1      33.206  19.138 -22.542  0.00  0.00     0.167 A 
ATOM      3  C   UNL d   1      33.194  20.468 -21.997  0.00  0.00     0.152 A 
ATOM      4  N   UNL d   1      33.226  18.519 -21.000  0.00  0.00    -0.163 NA
ATOM      5  C   UNL d   1      33.216  18.321 -22.437  0.00  0.00     0.055 A 
ATOM      6  N   UNL d   1      33.196  19.452 -23.311  0.00  0.00    -0.231 NA
ATOM      7  C   UNL d   1      33.184  20.786 -22.753  0.00  0.00     0.052 A 
ATOM      8  C   UNL d   1      33.226  18.007 -21.662  0.00  0.00     0.104 A 
ATOM      9  C   UNL d   1      33.185  20.272 -23.418  0.00  0.00     0.063 A 
ATOM     10  C   UNL d   1      33.237  17.197 -21.556  0.00  0.00     0.023 C 
ENDROOT
BRANCH   3  11
ATOM     11  N   UNL d   1      33.193  21.002 -21.313  0.00  0.00    -0.286 N 
ATOM     12  C   UNL d   1      33.217  20.888 -20.502  0.00  0.00     0.101 A 
ATOM     13  C   UNL d   1      33.208  21.528 -19.986  0.00  0.00     0.102 A 
ATOM     14  N   UNL d   1      33.176  22.291 -20.292  0.00  0.00    -0.267 N 
ATOM     15  C   UNL d   1      33.167  22.938 -19.791  0.00  0.00     0.288 C 
ATOM     16  C   UNL d   1      33.153  22.409 -21.099  0.00  0.00     0.102 A 
ATOM     17  O   UNL d   1      33.135  23.702 -20.093  0.00  0.00    -0.264 OA
ATOM     18  C   UNL d   1      33.161  21.761 -21.609  0.00  0.00     0.101 A 
BRANCH  15  19
ATOM     19  C   UNL d   1      33.190  22.823 -18.981  0.00  0.00     0.156 A 
ATOM     20  O   UNL d   1      33.210  23.475 -18.478  0.00  0.00    -0.300 OA
ATOM     21  C   UNL d   1      33.233  23.359 -17.667  0.00  0.00     0.123 A 
ATOM     22  C   UNL d   1      33.237  22.611 -17.358  0.00  0.00     0.029 A 
ATOM     23  C   UNL d   1      33.195  22.075 -18.671  0.00  0.00     0.032 A 
ENDBRANCH  15  19
ENDBRANCH   3  11
BRANCH   9  24
ATOM     24  C   UNL d   1      33.175  20.606 -24.225  0.00  0.00     0.036 C 
ATOM     25  C   UNL d   1      33.164  20.934 -25.027  0.00  0.00     0.006 C 
ATOM     26  C   UNL d   1      33.238  21.465 -24.345  0.00  0.00     0.006 C 
ATOM     27  C   UNL d   1      33.101  20.077 -24.910  0.00  0.00     0.006 C 
ENDBRANCH   9  24
BRANCH   5  28
ATOM     28  C   UNL d   1      33.217  17.815 -23.092  0.00  0.00     0.004 A 
ATOM     29  C   UNL d   1      33.202  18.124 -23.852  0.00  0.00     0.001 A 
ATOM     30  C   UNL d   1      33.202  17.612 -24.515  0.00  0.00     0.011 A 
ATOM     31  C   UNL d   1      33.219  16.798 -24.407  0.00  0.00     0.058 A 
ATOM     32  C   UNL d   1      33.234  16.487 -23.628  0.00  0.00     0.011 A 
ATOM     33 CL   UNL d   1      33.219  16.267 -25.094  0.00  0.00    -0.082 Cl
ATOM     34  C   UNL d   1      33.234  16.991 -22.976  0.00  0.00     0.001 A 
ENDBRANCH   5  28
TORSDOF 4
ENDMDL
MODEL 2
REMARK VINA RESULT:       6.8      2.938      5.659
REMARK  4 active torsions:
REMARK  status: ('A' for Active; 'I' for Inactive)
REMARK    1  A    between atoms: N_10  and  C_3 
REMARK    2  A    between atoms: C_14  and  C_5 
REMARK    3  A    between atoms: C_15  and  C_9 
REMARK       I    between atoms: C_11  and  N_12 
REMARK    4  A    between atoms: C_13  and  C_11 
ROOT
ATOM      1  N   UNL d   1      32.552  20.038 -22.029  0.00  0.00    -0.196 N 
ATOM      2  C   UNL d   1      32.691  20.776 -21.622  0.00  0.00     0.167 A 
ATOM      3  C   UNL d   1      32.554  20.038 -22.847  0.00  0.00     0.152 A 
ATOM      4  N   UNL d   1      32.424  19.378 -20.764  0.00  0.00    -0.163 NA
ATOM      5  C   UNL d   1      32.695  20.803 -20.799  0.00  0.00     0.055 A 
ATOM      6  N   UNL d   1      32.824  21.473 -22.054  0.00  0.00    -0.231 NA
ATOM      7  C   UNL d   1      32.684  20.721 -23.282  0.00  0.00     0.052 A 
ATOM      8  C   UNL d   1      32.561  20.100 -20.365  0.00  0.00     0.104 A 
ATOM      9  C   UNL d   1      32.821  21.447 -22.881  0.00  0.00     0.063 A 
ATOM     10  C   UNL d   1      32.564  20.125 -19.547  0.00  0.00     0.023 C 
ENDROOT
BRANCH   3  11
ATOM     11  N   UNL d   1      32.413  19.291 -23.265  0.00  0.00    -0.286 N 
ATOM     12  C   UNL d   1      31.785  18.766 -23.296  0.00  0.00     0.101 A 
ATOM     13  C   UNL d   1      31.825  18.087 -23.759  0.00  0.00     0.102 A 
ATOM     14  N   UNL d   1      32.507  17.937 -24.195  0.00  0.00    -0.267 N 
ATOM     15  C   UNL d   1      32.561  17.266 -24.660  0.00  0.00     0.288 C 
ATOM     16  C   UNL d   1      33.134  18.458 -24.166  0.00  0.00     0.102 A 
ATOM     17  O   UNL d   1      33.241  17.112 -25.097  0.00  0.00    -0.264 OA
ATOM     18  C   UNL d   1      33.085  19.136 -23.700  0.00  0.00     0.101 A 
BRANCH  15  19
ATOM     19  C   UNL d   1      31.933  16.742 -24.690  0.00  0.00     0.156 A 
ATOM     20  O   UNL d   1      32.004  16.000 -24.339  0.00  0.00    -0.300 OA
ATOM     21  C   UNL d   1      31.375  15.477 -24.369  0.00  0.00     0.123 A 
ATOM     22  C   UNL d   1      30.686  15.682 -24.742  0.00  0.00     0.029 A 
ATOM     23  C   UNL d   1      31.244  16.947 -25.063  0.00  0.00     0.032 A 
ENDBRANCH  15  19
ENDBRANCH   3  11
BRANCH   9  24
ATOM     24  C   UNL d   1      32.960  22.177 -23.340  0.00  0.00     0.036 C 
ATOM     25  C   UNL d   1      33.097  22.900 -23.798  0.00  0.00     0.006 C 
ATOM     26  C   UNL d   1      33.236  22.900 -22.942  0.00  0.00     0.006 C 
ATOM     27  C   UNL d   1      32.822  22.181 -24.197  0.00  0.00     0.006 C 
ENDBRANCH   9  24
BRANCH   5  28
ATOM     28  C   UNL d   1      32.829  21.518 -20.404  0.00  0.00     0.004 A 
ATOM     29  C   UNL d   1      32.704  22.232 -20.789  0.00  0.00     0.001 A 
ATOM     30  C   UNL d   1      32.840  22.955 -20.389  0.00  0.00     0.011 A 
ATOM     31  C   UNL d   1      33.100  22.953 -19.610  0.00  0.00     0.058 A 
ATOM     32  C   UNL d   1      33.227  22.220 -19.221  0.00  0.00     0.011 A 
ATOM     33 CL   UNL d   1      33.241  23.702 -19.196  0.00  0.00    -0.082 Cl
ATOM     34  C   UNL d   1      33.092  21.509 -19.614  0.00  0.00     0.001 A 
ENDBRANCH   5  28
TORSDOF 4
ENDMDL
