MODEL 1
REMARK VINA RESULT:      79.3      0.000      0.000
REMARK  5 active torsions:
REMARK  status: ('A' for Active; 'I' for Inactive)
REMARK    1  A    between atoms: C_16  and  N_3 
REMARK    2  A    between atoms: C_11  and  C_6 
REMARK       I    between atoms: N_20  and  C_11 
REMARK    3  A    between atoms: C_21  and  N_20 
REMARK    4  A    between atoms: C_23  and  C_21 
REMARK    5  A    between atoms: C_22  and  C_23 
ROOT
ATOM      1  C   UNL d   1     -47.636  30.517  35.036  0.00  0.00     0.155 A 
ATOM      2  C   UNL d   1     -48.298  30.488  34.542  0.00  0.00     0.091 A 
ATOM      3  N   UNL d   1     -47.429  29.862  35.486  0.00  0.00    -0.275 N 
ATOM      4  N   UNL d   1     -47.186  31.204  35.075  0.00  0.00    -0.210 NA
ATOM      5  C   UNL d   1     -47.879  29.158  35.453  0.00  0.00     0.175 A 
ATOM      6  C   UNL d   1     -48.545  29.130  34.956  0.00  0.00     0.094 A 
ATOM      7  C   UNL d   1     -48.511  31.144  34.087  0.00  0.00     0.269 A 
ATOM      8  N   UNL d   1     -48.057  31.832  34.129  0.00  0.00    -0.258 N 
ATOM      9  C   UNL d   1     -47.390  31.869  34.624  0.00  0.00     0.152 A 
ATOM     10  C   UNL d   1     -48.759  29.793  34.497  0.00  0.00     0.016 A 
ATOM     11  N   UNL d   1     -47.669  28.502  35.905  0.00  0.00    -0.128 N 
ATOM     12  C   UNL d   1     -48.266  32.496  33.675  0.00  0.00     0.084 A 
ATOM     13  O   UNL d   1     -49.173  31.116  33.592  0.00  0.00    -0.266 OA
ATOM     14  C   UNL d   1     -46.945  32.552  34.662  0.00  0.00     0.038 A 
ATOM     15  C   UNL d   1     -47.811  33.172  33.723  0.00  0.00     0.019 A 
ATOM     16  C   UNL d   1     -47.145  33.201  34.220  0.00  0.00     0.005 A 
ENDROOT
BRANCH   6  17
ATOM     17  C   UNL d   1     -48.998  28.442  34.914  0.00  0.00     0.282 C 
ATOM     18  O   UNL d   1     -49.478  28.218  35.544  0.00  0.00    -0.265 OA
ATOM     19  N   UNL d   1     -48.971  27.969  34.229  0.00  0.00    -0.206 NA
BRANCH  19  20
ATOM     20  C   UNL d   1     -49.424  27.282  34.186  0.00  0.00     0.102 C 
BRANCH  20  21
ATOM     21  C   UNL d   1     -49.718  27.030  33.459  0.00  0.00     0.021 C 
BRANCH  21  22
ATOM     22  C   UNL d   1     -50.159  26.336  33.408  0.00  0.00     0.002 A 
ATOM     23  C   UNL d   1     -50.981  26.376  33.391  0.00  0.00     0.000 A 
ATOM     24  C   UNL d   1     -51.428  25.687  33.340  0.00  0.00     0.000 A 
ATOM     25  C   UNL d   1     -51.042  24.956  33.306  0.00  0.00     0.000 A 
ATOM     26  C   UNL d   1     -50.214  24.925  33.324  0.00  0.00     0.000 A 
ATOM     27  C   UNL d   1     -49.780  25.614  33.375  0.00  0.00     0.000 A 
ENDBRANCH  21  22
ENDBRANCH  20  21
ENDBRANCH  19  20
ENDBRANCH   6  17
BRANCH   3  28
ATOM     28  C   UNL d   1     -46.764  29.890  35.983  0.00  0.00     0.067 C 
ATOM     29  C   UNL d   1     -46.010  29.726  35.671  0.00  0.00     0.019 C 
ATOM     30  C   UNL d   1     -46.848  30.079  36.780  0.00  0.00     0.019 C 
ENDBRANCH   3  28
TORSDOF 5
ENDMDL
