MODEL 1
REMARK VINA RESULT:     139.3      0.000      0.000
REMARK  6 active torsions:
REMARK  status: ('A' for Active; 'I' for Inactive)
REMARK    1  A    between atoms: N_13  and  C_2 
REMARK    2  A    between atoms: C_22  and  C_5 
REMARK    3  A    between atoms: C_23  and  C_6 
REMARK    4  A    between atoms: C_7  and  S_17 
REMARK       I    between atoms: C_16  and  N_13 
REMARK    5  A    between atoms: C_25  and  C_16 
REMARK    6  A    between atoms: S_17  and  C_25 
ROOT
ATOM      1  C   UNL d   1      61.199  48.935  51.323  0.00  0.00     0.092 A 
ATOM      2  C   UNL d   1      59.829  49.274  51.124  0.00  0.00     0.057 A 
ATOM      3  C   UNL d   1      60.474  49.190  51.624  0.00  0.00     0.016 A 
ATOM      4  C   UNL d   1      61.272  48.765  50.523  0.00  0.00     0.120 A 
ATOM      5  N   UNL d   1      60.626  48.848  50.017  0.00  0.00    -0.239 NA
ATOM      6  C   UNL d   1      59.901  49.104  50.318  0.00  0.00     0.081 A 
ATOM      7  C   UNL d   1      59.111  49.529  51.431  0.00  0.00     0.193 A 
ATOM      8  C   UNL d   1      61.845  48.852  51.829  0.00  0.00     0.103 C 
ATOM      9  N   UNL d   1      62.497  48.765  52.326  0.00  0.00    -0.191 NA
ATOM     10  C   UNL d   1      58.528  49.443  50.117  0.00  0.00     0.042 A 
ATOM     11  C   UNL d   1      58.449  49.616  50.926  0.00  0.00     0.019 A 
ATOM     12  C   UNL d   1      59.256  49.186  49.812  0.00  0.00    -0.003 A 
ATOM     13  O   UNL d   1      59.033  49.701  52.237  0.00  0.00    -0.287 OA
ATOM     14  C   UNL d   1      58.378  49.335  49.315  0.00  0.00     0.009 C 
ATOM     15  C   UNL d   1      57.801  49.701  50.428  0.00  0.00     0.009 C 
ENDROOT
BRANCH   4  16
ATOM     16  S   UNL d   1      61.996  48.510  50.221  0.00  0.00    -0.062 SA
BRANCH  16  17
ATOM     17  C   UNL d   1      62.032  48.138  49.483  0.00  0.00     0.100 C 
BRANCH  17  18
ATOM     18  C   UNL d   1      62.146  47.322  49.442  0.00  0.00     0.302 C 
ATOM     19  N   UNL d   1      61.516  46.809  49.542  0.00  0.00    -0.018 NA
ATOM     20  O   UNL d   1      62.896  47.020  49.299  0.00  0.00    -0.264 OA
BRANCH  19  21
ATOM     21  C   UNL d   1      61.634  45.980  49.500  0.00  0.00     0.760 A 
ATOM     22  N   UNL d   1      61.836  45.487  50.126  0.00  0.00    -0.051 NA
ATOM     23  C   UNL d   1      61.893  44.725  49.835  0.00  0.00     0.147 A 
ATOM     24  S   UNL d   1      61.727  44.747  49.036  0.00  0.00     0.052 SA
ATOM     25  N   UNL d   1      61.566  45.526  48.829  0.00  0.00    -0.019 NA
BRANCH  23  26
ATOM     26  C   UNL d   1      62.081  44.031  50.241  0.00  0.00     0.026 A 
ATOM     27  C   UNL d   1      61.684  43.842  50.938  0.00  0.00     0.002 A 
ATOM     28  C   UNL d   1      61.874  43.146  51.345  0.00  0.00     0.000 A 
ATOM     29  C   UNL d   1      62.453  42.642  51.061  0.00  0.00     0.000 A 
ATOM     30  C   UNL d   1      62.850  42.830  50.365  0.00  0.00     0.000 A 
ATOM     31  C   UNL d   1      62.664  43.530  49.950  0.00  0.00     0.002 A 
ENDBRANCH  23  26
ENDBRANCH  19  21
ENDBRANCH  17  18
ENDBRANCH  16  17
ENDBRANCH   4  16
BRANCH   3  32
ATOM     32  C   UNL d   1      60.402  49.360  52.424  0.00  0.00     0.001 A 
ATOM     33  C   UNL d   1      61.076  49.539  52.868  0.00  0.00     0.000 A 
ATOM     34  C   UNL d   1      61.005  49.708  53.667  0.00  0.00     0.000 A 
ATOM     35  C   UNL d   1      60.267  49.701  54.034  0.00  0.00     0.000 A 
ATOM     36  C   UNL d   1      59.593  49.522  53.591  0.00  0.00     0.000 A 
ATOM     37  C   UNL d   1      59.661  49.351  52.784  0.00  0.00     0.000 A 
ENDBRANCH   3  32
TORSDOF 6
ENDMDL
