MODEL 1
REMARK VINA RESULT:      94.1      0.000      0.000
REMARK  4 active torsions:
REMARK  status: ('A' for Active; 'I' for Inactive)
REMARK    1  A    between atoms: S_3  and  N_1 
REMARK    2  A    between atoms: C_9  and  S_3 
REMARK    3  A    between atoms: C_10  and  N_5 
REMARK    4  A    between atoms: C_15  and  C_10 
ROOT
ATOM      1  N   UNL d   1     -49.883  27.141  34.265  0.00  0.00    -0.195 N 
ATOM      2  C   UNL d   1     -50.125  27.090  35.049  0.00  0.00     0.193 A 
ATOM      3  C   UNL d   1     -49.541  27.410  35.526  0.00  0.00     0.185 A 
ATOM      4  N   UNL d   1     -48.923  27.667  35.041  0.00  0.00    -0.269 N 
ATOM      5  C   UNL d   1     -49.141  27.496  34.260  0.00  0.00     0.179 A 
ATOM      6  N   UNL d   1     -50.809  26.791  35.394  0.00  0.00    -0.223 NA
ATOM      7  N   UNL d   1     -49.633  27.435  36.347  0.00  0.00    -0.224 NA
ATOM      8  C   UNL d   1     -50.908  26.811  36.203  0.00  0.00     0.101 A 
ATOM      9  C   UNL d   1     -50.320  27.134  36.688  0.00  0.00     0.101 A 
ATOM     10  C   UNL d   1     -50.423  27.153  37.501  0.00  0.00     0.021 A 
ATOM     11  C   UNL d   1     -51.591  26.512  36.544  0.00  0.00     0.021 A 
ATOM     12  C   UNL d   1     -51.113  26.849  37.833  0.00  0.00     0.002 A 
ATOM     13  C   UNL d   1     -51.694  26.531  37.357  0.00  0.00     0.002 A 
ENDROOT
BRANCH   1  14
ATOM     14  S   UNL d   1     -50.544  26.782  33.776  0.00  0.00     0.274 S 
ATOM     15  O   UNL d   1     -51.042  27.342  33.306  0.00  0.00    -0.200 OA
ATOM     16  O   UNL d   1     -50.583  27.606  33.644  0.00  0.00    -0.200 OA
BRANCH  14  17
ATOM     17  C   UNL d   1     -50.805  26.009  33.660  0.00  0.00     0.104 A 
ATOM     18  C   UNL d   1     -50.259  25.402  33.548  0.00  0.00     0.015 A 
ATOM     19  C   UNL d   1     -50.521  24.620  33.431  0.00  0.00     0.030 A 
ATOM     20  C   UNL d   1     -51.328  24.459  33.427  0.00  0.00     0.140 A 
ATOM     21  C   UNL d   1     -51.882  25.075  33.541  0.00  0.00     0.030 A 
ATOM     22  F   UNL d   1     -51.528  23.663  33.306  0.00  0.00    -0.204 F 
ATOM     23  C   UNL d   1     -51.617  25.844  33.656  0.00  0.00     0.015 A 
ENDBRANCH  14  17
ENDBRANCH   1  14
BRANCH   4  24
ATOM     24  C   UNL d   1     -48.221  28.024  35.289  0.00  0.00     0.108 C 
BRANCH  24  25
ATOM     25  C   UNL d   1     -48.112  28.841  35.191  0.00  0.00     0.118 A 
ATOM     26  O   UNL d   1     -48.262  29.270  34.499  0.00  0.00    -0.304 OA
ATOM     27  C   UNL d   1     -48.077  30.076  34.643  0.00  0.00     0.123 A 
ATOM     28  C   UNL d   1     -47.813  30.135  35.428  0.00  0.00     0.029 A 
ATOM     29  C   UNL d   1     -47.837  29.371  35.762  0.00  0.00     0.028 A 
ENDBRANCH  24  25
ENDBRANCH   4  24
TORSDOF 4
ENDMDL
MODEL 2
REMARK VINA RESULT:      95.0      1.949      4.713
REMARK  4 active torsions:
REMARK  status: ('A' for Active; 'I' for Inactive)
REMARK    1  A    between atoms: S_3  and  N_1 
REMARK    2  A    between atoms: C_9  and  S_3 
REMARK    3  A    between atoms: C_10  and  N_5 
REMARK    4  A    between atoms: C_15  and  C_10 
ROOT
ATOM      1  N   UNL d   1     -50.546  26.793  33.884  0.00  0.00    -0.195 N 
ATOM      2  C   UNL d   1     -50.352  26.004  33.760  0.00  0.00     0.193 A 
ATOM      3  C   UNL d   1     -51.036  25.590  33.578  0.00  0.00     0.185 A 
ATOM      4  N   UNL d   1     -51.669  26.121  33.586  0.00  0.00    -0.269 N 
ATOM      5  C   UNL d   1     -51.359  26.865  33.776  0.00  0.00     0.179 A 
ATOM      6  N   UNL d   1     -49.634  25.604  33.790  0.00  0.00    -0.223 NA
ATOM      7  N   UNL d   1     -51.010  24.779  33.425  0.00  0.00    -0.224 NA
ATOM      8  C   UNL d   1     -49.600  24.803  33.640  0.00  0.00     0.101 A 
ATOM      9  C   UNL d   1     -50.288  24.382  33.456  0.00  0.00     0.101 A 
ATOM     10  C   UNL d   1     -50.250  23.577  33.306  0.00  0.00     0.021 A 
ATOM     11  C   UNL d   1     -48.882  24.407  33.670  0.00  0.00     0.021 A 
ATOM     12  C   UNL d   1     -49.523  23.189  33.339  0.00  0.00     0.002 A 
ATOM     13  C   UNL d   1     -48.843  23.602  33.520  0.00  0.00     0.002 A 
ENDROOT
BRANCH   1  14
ATOM     14  S   UNL d   1     -49.777  27.211  34.079  0.00  0.00     0.274 S 
ATOM     15  O   UNL d   1     -49.148  27.203  33.457  0.00  0.00    -0.200 OA
ATOM     16  O   UNL d   1     -49.681  26.907  33.307  0.00  0.00    -0.200 OA
BRANCH  14  17
ATOM     17  C   UNL d   1     -49.510  27.623  34.743  0.00  0.00     0.104 A 
ATOM     18  C   UNL d   1     -49.875  27.507  35.473  0.00  0.00     0.015 A 
ATOM     19  C   UNL d   1     -49.607  27.922  36.143  0.00  0.00     0.030 A 
ATOM     20  C   UNL d   1     -48.976  28.447  36.071  0.00  0.00     0.140 A 
ATOM     21  C   UNL d   1     -48.607  28.563  35.330  0.00  0.00     0.030 A 
ATOM     22  F   UNL d   1     -48.755  28.829  36.773  0.00  0.00    -0.204 F 
ATOM     23  C   UNL d   1     -48.876  28.151  34.673  0.00  0.00     0.015 A 
ENDBRANCH  14  17
ENDBRANCH   1  14
BRANCH   4  24
ATOM     24  C   UNL d   1     -52.461  25.942  33.433  0.00  0.00     0.108 C 
BRANCH  24  25
ATOM     25  C   UNL d   1     -52.797  25.247  33.737  0.00  0.00     0.118 A 
ATOM     26  O   UNL d   1     -53.000  25.112  34.529  0.00  0.00    -0.304 OA
ATOM     27  C   UNL d   1     -53.322  24.339  34.590  0.00  0.00     0.123 A 
ATOM     28  C   UNL d   1     -53.314  24.004  33.831  0.00  0.00     0.029 A 
ATOM     29  C   UNL d   1     -52.990  24.567  33.307  0.00  0.00     0.028 A 
ENDBRANCH  24  25
ENDBRANCH   4  24
TORSDOF 4
ENDMDL
