MODEL 1
REMARK VINA RESULT:      38.1      0.000      0.000
REMARK  1 active torsions:
REMARK  status: ('A' for Active; 'I' for Inactive)
REMARK    1  A    between atoms: C_7  and  C_4 
ROOT
ATOM      1  N   UNL d   1     -57.654 -99.355 -45.207  0.00  0.00    -0.211 NA
ATOM      2  C   UNL d   1     -58.464 -99.170 -45.136  0.00  0.00     0.140 A 
ATOM      3  C   UNL d   1     -58.800 -99.091 -44.387  0.00  0.00     0.051 A 
ATOM      4  C   UNL d   1     -57.194 -99.456 -44.519  0.00  0.00     0.183 A 
ATOM      5  C   UNL d   1     -58.339 -99.193 -43.705  0.00  0.00     0.104 A 
ATOM      6  O   UNL d   1     -57.538 -99.375 -43.776  0.00  0.00    -0.289 OA
ATOM      7  S   UNL d   1     -58.926 -99.068 -45.812  0.00  0.00    -0.057 SA
ATOM      8  C   UNL d   1     -59.611 -98.906 -44.310  0.00  0.00     0.004 A 
ATOM      9  C   UNL d   1     -58.675 -99.113 -42.966  0.00  0.00     0.025 A 
ATOM     10  C   UNL d   1     -59.945 -98.827 -43.559  0.00  0.00     0.000 A 
ATOM     11  C   UNL d   1     -59.477 -98.931 -42.890  0.00  0.00     0.002 A 
ENDROOT
BRANCH   4  12
ATOM     12  C   UNL d   1     -56.397 -99.638 -44.594  0.00  0.00     0.041 A 
ATOM     13  C   UNL d   1     -56.154-100.417 -44.674  0.00  0.00     0.004 A 
ATOM     14  C   UNL d   1     -55.353-100.588 -44.747  0.00  0.00     0.000 A 
ATOM     15  C   UNL d   1     -55.110-101.374 -44.828  0.00  0.00     0.000 C 
ATOM     16  C   UNL d   1     -54.792 -99.984 -44.741  0.00  0.00     0.000 A 
ATOM     17  C   UNL d   1     -55.041 -99.200 -44.660  0.00  0.00     0.000 A 
ATOM     18  C   UNL d   1     -55.844 -99.025 -44.586  0.00  0.00     0.004 A 
ENDBRANCH   4  12
TORSDOF 1
ENDMDL
