MODEL 1
REMARK VINA RESULT:      -2.9      0.000      0.000
REMARK  1 active torsions:
REMARK  status: ('A' for Active; 'I' for Inactive)
REMARK       I    between atoms: N_2  and  C_1 
REMARK       I    between atoms: N_4  and  C_1 
REMARK    1  A    between atoms: C_5  and  N_2 
ROOT
ATOM      1  N   UNL d   1      30.602  15.831 -24.441  0.00  0.00    -0.242 NA
ATOM      2  C   UNL d   1      30.839  17.222 -24.786  0.00  0.00     0.105 A 
ATOM      3  C   UNL d   1      29.565  16.835 -24.227  0.00  0.00     0.019 A 
ATOM      4  C   UNL d   1      29.831  16.040 -24.180  0.00  0.00     0.082 A 
ATOM      5  C   UNL d   1      30.077  17.423 -24.530  0.00  0.00     0.022 A 
ATOM      6  C   UNL d   1      31.099  16.425 -24.744  0.00  0.00     0.118 A 
ATOM      7  C   UNL d   1      28.804  17.034 -23.962  0.00  0.00     0.002 A 
ATOM      8  C   UNL d   1      29.331  15.453 -23.879  0.00  0.00     0.019 A 
ATOM      9  C   UNL d   1      28.300  16.439 -23.658  0.00  0.00     0.000 A 
ATOM     10  C   UNL d   1      28.558  15.653 -23.617  0.00  0.00     0.002 A 
ENDROOT
BRANCH   2  11
ATOM     11  N   UNL d   1      31.340  17.804 -25.097  0.00  0.00    -0.191 NA
ATOM     12  C   UNL d   1      31.990  18.077 -24.658  0.00  0.00     0.354 C 
ATOM     13  N   UNL d   1      32.147  17.760 -23.901  0.00  0.00    -0.253 N 
ATOM     14  O   UNL d   1      32.494  18.674 -24.970  0.00  0.00    -0.244 OA
ATOM     15  C   UNL d   1      31.642  17.178 -23.587  0.00  0.00     0.104 C 
ATOM     16  C   UNL d   1      32.795  18.042 -23.461  0.00  0.00     0.104 C 
ENDBRANCH   2  11
TORSDOF 1
ENDMDL
MODEL 2
REMARK VINA RESULT:      -2.7      1.325      3.426
REMARK  1 active torsions:
REMARK  status: ('A' for Active; 'I' for Inactive)
REMARK       I    between atoms: N_2  and  C_1 
REMARK       I    between atoms: N_4  and  C_1 
REMARK    1  A    between atoms: C_5  and  N_2 
ROOT
ATOM      1  N   UNL d   1      31.804  17.885 -25.097  0.00  0.00    -0.242 NA
ATOM      2  C   UNL d   1      31.255  16.731 -24.405  0.00  0.00     0.105 A 
ATOM      3  C   UNL d   1      32.190  17.593 -23.721  0.00  0.00     0.019 A 
ATOM      4  C   UNL d   1      32.243  18.075 -24.406  0.00  0.00     0.082 A 
ATOM      5  C   UNL d   1      31.691  16.921 -23.726  0.00  0.00     0.022 A 
ATOM      6  C   UNL d   1      31.315  17.212 -25.091  0.00  0.00     0.118 A 
ATOM      7  C   UNL d   1      32.623  17.791 -23.041  0.00  0.00     0.002 A 
ATOM      8  C   UNL d   1      32.732  18.742 -24.407  0.00  0.00     0.019 A 
ATOM      9  C   UNL d   1      33.117  18.466 -23.043  0.00  0.00     0.000 A 
ATOM     10  C   UNL d   1      33.175  18.940 -23.720  0.00  0.00     0.002 A 
ENDROOT
BRANCH   2  11
ATOM     11  N   UNL d   1      30.770  16.059 -24.413  0.00  0.00    -0.191 NA
ATOM     12  C   UNL d   1      29.944  16.137 -24.387  0.00  0.00     0.354 C 
ATOM     13  N   UNL d   1      29.595  16.895 -24.361  0.00  0.00    -0.253 N 
ATOM     14  O   UNL d   1      29.452  15.454 -24.387  0.00  0.00    -0.244 OA
ATOM     15  C   UNL d   1      30.082  17.571 -24.349  0.00  0.00     0.104 C 
ATOM     16  C   UNL d   1      28.767  16.969 -24.328  0.00  0.00     0.104 C 
ENDBRANCH   2  11
TORSDOF 1
ENDMDL
MODEL 3
REMARK VINA RESULT:      -2.5      1.812      4.203
REMARK  1 active torsions:
REMARK  status: ('A' for Active; 'I' for Inactive)
REMARK       I    between atoms: N_2  and  C_1 
REMARK       I    between atoms: N_4  and  C_1 
REMARK    1  A    between atoms: C_5  and  N_2 
ROOT
ATOM      1  N   UNL d   1      33.220  19.175 -24.020  0.00  0.00    -0.242 NA
ATOM      2  C   UNL d   1      33.219  17.872 -23.378  0.00  0.00     0.105 A 
ATOM      3  C   UNL d   1      33.234  19.065 -22.565  0.00  0.00     0.019 A 
ATOM      4  C   UNL d   1      33.227  19.535 -23.260  0.00  0.00     0.082 A 
ATOM      5  C   UNL d   1      33.228  18.231 -22.631  0.00  0.00     0.022 A 
ATOM      6  C   UNL d   1      33.218  18.345 -24.071  0.00  0.00     0.118 A 
ATOM      7  C   UNL d   1      33.236  19.429 -21.819  0.00  0.00     0.002 A 
ATOM      8  C   UNL d   1      33.230  20.361 -23.203  0.00  0.00     0.019 A 
ATOM      9  C   UNL d   1      33.239  20.264 -21.762  0.00  0.00     0.000 A 
ATOM     10  C   UNL d   1      33.238  20.730 -22.448  0.00  0.00     0.002 A 
ENDROOT
BRANCH   2  11
ATOM     11  N   UNL d   1      33.224  17.046 -23.441  0.00  0.00    -0.191 NA
ATOM     12  C   UNL d   1      32.532  16.635 -23.643  0.00  0.00     0.354 C 
ATOM     13  N   UNL d   1      31.824  17.054 -23.791  0.00  0.00    -0.253 N 
ATOM     14  O   UNL d   1      32.535  15.796 -23.700  0.00  0.00    -0.244 OA
ATOM     15  C   UNL d   1      31.817  17.884 -23.724  0.00  0.00     0.104 C 
ATOM     16  C   UNL d   1      31.130  16.638 -23.986  0.00  0.00     0.104 C 
ENDBRANCH   2  11
TORSDOF 1
ENDMDL
MODEL 4
REMARK VINA RESULT:      -2.5      1.436      2.040
REMARK  1 active torsions:
REMARK  status: ('A' for Active; 'I' for Inactive)
REMARK       I    between atoms: N_2  and  C_1 
REMARK       I    between atoms: N_4  and  C_1 
REMARK    1  A    between atoms: C_5  and  N_2 
ROOT
ATOM      1  N   UNL d   1      32.818  16.632 -23.451  0.00  0.00    -0.242 NA
ATOM      2  C   UNL d   1      32.555  17.853 -24.194  0.00  0.00     0.105 A 
ATOM      3  C   UNL d   1      31.490  16.899 -23.992  0.00  0.00     0.019 A 
ATOM      4  C   UNL d   1      32.016  16.406 -23.563  0.00  0.00     0.082 A 
ATOM      5  C   UNL d   1      31.766  17.625 -24.304  0.00  0.00     0.022 A 
ATOM      6  C   UNL d   1      33.081  17.353 -23.769  0.00  0.00     0.118 A 
ATOM      7  C   UNL d   1      30.699  16.671 -24.094  0.00  0.00     0.002 A 
ATOM      8  C   UNL d   1      31.749  15.688 -23.250  0.00  0.00     0.019 A 
ATOM      9  C   UNL d   1      30.430  15.944 -23.777  0.00  0.00     0.000 A 
ATOM     10  C   UNL d   1      30.950  15.453 -23.358  0.00  0.00     0.002 A 
ENDROOT
BRANCH   2  11
ATOM     11  N   UNL d   1      32.830  18.566 -24.513  0.00  0.00    -0.191 NA
ATOM     12  C   UNL d   1      32.956  19.225 -24.023  0.00  0.00     0.354 C 
ATOM     13  N   UNL d   1      32.811  19.170 -23.202  0.00  0.00    -0.253 N 
ATOM     14  O   UNL d   1      33.227  19.952 -24.348  0.00  0.00    -0.244 OA
ATOM     15  C   UNL d   1      32.531  18.455 -22.881  0.00  0.00     0.104 C 
ATOM     16  C   UNL d   1      32.931  19.835 -22.716  0.00  0.00     0.104 C 
ENDBRANCH   2  11
TORSDOF 1
ENDMDL
