MODEL 1
REMARK VINA RESULT:      -8.9      0.000      0.000
REMARK  2 active torsions:
REMARK  status: ('A' for Active; 'I' for Inactive)
REMARK       I    between atoms: N_4  and  C_1 
REMARK    1  A    between atoms: C_5  and  C_1 
REMARK       I    between atoms: C_2  and  N_3 
REMARK    2  A    between atoms: C_6  and  C_2 
ROOT
ATOM      1  C   UNL d   1      51.881  34.332  52.808  0.00  0.00     0.265 C 
ATOM      2  C   UNL d   1      53.526  31.317  53.495  0.00  0.00     0.265 C 
ATOM      3  N   UNL d   1      52.900  31.810  53.326  0.00  0.00    -0.270 N 
ATOM      4  N   UNL d   1      52.141  33.470  52.971  0.00  0.00    -0.270 N 
ATOM      5  C   UNL d   1      53.283  32.563  53.280  0.00  0.00     0.102 A 
ATOM      6  C   UNL d   1      52.925  33.331  53.114  0.00  0.00     0.102 A 
ATOM      7  O   UNL d   1      52.512  34.992  52.813  0.00  0.00    -0.267 OA
ATOM      8  O   UNL d   1      54.268  31.618  53.569  0.00  0.00    -0.267 OA
ATOM      9  C   UNL d   1      51.628  32.145  53.079  0.00  0.00     0.038 A 
ATOM     10  C   UNL d   1      51.623  32.962  52.962  0.00  0.00     0.085 A 
ATOM     11  C   UNL d   1      52.107  31.670  53.221  0.00  0.00     0.085 A 
ENDROOT
BRANCH   2  12
ATOM     12  C   UNL d   1      53.388  30.520  53.586  0.00  0.00     0.057 A 
ATOM     13  C   UNL d   1      53.431  30.203  54.321  0.00  0.00     0.005 A 
ATOM     14  C   UNL d   1      53.295  29.406  54.422  0.00  0.00     0.000 A 
ATOM     15  C   UNL d   1      53.335  29.070  55.160  0.00  0.00     0.000 C 
ATOM     16  C   UNL d   1      53.116  28.943  53.780  0.00  0.00     0.000 A 
ATOM     17  C   UNL d   1      53.074  29.273  53.041  0.00  0.00     0.000 A 
ATOM     18  C   UNL d   1      53.210  30.062  52.945  0.00  0.00     0.005 A 
ENDBRANCH   2  12
BRANCH   1  19
ATOM     19  C   UNL d   1      50.991  34.470  52.648  0.00  0.00     0.057 A 
ATOM     20  C   UNL d   1      50.658  34.350  51.817  0.00  0.00     0.005 A 
ATOM     21  C   UNL d   1      49.774  34.487  51.656  0.00  0.00     0.000 A 
ATOM     22  C   UNL d   1      49.419  34.372  50.830  0.00  0.00     0.000 C 
ATOM     23  C   UNL d   1      49.220  34.746  52.335  0.00  0.00     0.000 A 
ATOM     24  C   UNL d   1      49.563  34.866  53.174  0.00  0.00     0.000 A 
ATOM     25  C   UNL d   1      50.451  34.728  53.332  0.00  0.00     0.005 A 
ENDBRANCH   1  19
TORSDOF 2
ENDMDL
MODEL 2
REMARK VINA RESULT:      -8.4      0.389      5.054
REMARK  2 active torsions:
REMARK  status: ('A' for Active; 'I' for Inactive)
REMARK       I    between atoms: N_4  and  C_1 
REMARK    1  A    between atoms: C_5  and  C_1 
REMARK       I    between atoms: C_2  and  N_3 
REMARK    2  A    between atoms: C_6  and  C_2 
ROOT
ATOM      1  C   UNL d   1      53.616  31.775  53.475  0.00  0.00     0.265 C 
ATOM      2  C   UNL d   1      51.382  34.401  52.855  0.00  0.00     0.265 C 
ATOM      3  N   UNL d   1      51.624  33.632  52.970  0.00  0.00    -0.270 N 
ATOM      4  N   UNL d   1      52.905  32.326  53.306  0.00  0.00    -0.270 N 
ATOM      5  C   UNL d   1      52.455  33.731  53.095  0.00  0.00     0.102 A 
ATOM      6  C   UNL d   1      53.045  33.121  53.251  0.00  0.00     0.102 A 
ATOM      7  O   UNL d   1      54.446  32.143  53.574  0.00  0.00    -0.267 OA
ATOM      8  O   UNL d   1      51.917  35.001  52.883  0.00  0.00    -0.267 OA
ATOM      9  C   UNL d   1      51.498  32.304  53.080  0.00  0.00     0.038 A 
ATOM     10  C   UNL d   1      52.255  32.012  53.232  0.00  0.00     0.085 A 
ATOM     11  C   UNL d   1      51.221  32.926  52.974  0.00  0.00     0.085 A 
ENDROOT
BRANCH   2  12
ATOM     12  C   UNL d   1      50.594  34.550  52.713  0.00  0.00     0.057 A 
ATOM     13  C   UNL d   1      50.313  34.459  51.968  0.00  0.00     0.005 A 
ATOM     14  C   UNL d   1      49.527  34.606  51.816  0.00  0.00     0.000 A 
ATOM     15  C   UNL d   1      49.226  34.519  51.067  0.00  0.00     0.000 C 
ATOM     16  C   UNL d   1      49.037  34.841  52.420  0.00  0.00     0.000 A 
ATOM     17  C   UNL d   1      49.330  34.930  53.169  0.00  0.00     0.000 A 
ATOM     18  C   UNL d   1      50.110  34.784  53.316  0.00  0.00     0.005 A 
ENDBRANCH   2  12
BRANCH   1  19
ATOM     19  C   UNL d   1      53.438  30.880  53.535  0.00  0.00     0.057 A 
ATOM     20  C   UNL d   1      53.446  30.471  54.340  0.00  0.00     0.005 A 
ATOM     21  C   UNL d   1      53.270  29.581  54.401  0.00  0.00     0.000 A 
ATOM     22  C   UNL d   1      53.273  29.151  55.198  0.00  0.00     0.000 C 
ATOM     23  C   UNL d   1      53.084  29.099  53.647  0.00  0.00     0.000 A 
ATOM     24  C   UNL d   1      53.076  29.518  52.835  0.00  0.00     0.000 A 
ATOM     25  C   UNL d   1      53.254  30.411  52.777  0.00  0.00     0.005 A 
ENDBRANCH   1  19
TORSDOF 2
ENDMDL
MODEL 3
REMARK VINA RESULT:      -6.9      2.611      6.120
REMARK  2 active torsions:
REMARK  status: ('A' for Active; 'I' for Inactive)
REMARK       I    between atoms: N_4  and  C_1 
REMARK    1  A    between atoms: C_5  and  C_1 
REMARK       I    between atoms: C_2  and  N_3 
REMARK    2  A    between atoms: C_6  and  C_2 
ROOT
ATOM      1  C   UNL d   1      51.109  34.103  52.022  0.00  0.00     0.265 C 
ATOM      2  C   UNL d   1      47.844  35.327  51.698  0.00  0.00     0.265 C 
ATOM      3  N   UNL d   1      48.540  35.135  52.074  0.00  0.00    -0.270 N 
ATOM      4  N   UNL d   1      50.271  34.457  52.120  0.00  0.00    -0.270 N 
ATOM      5  C   UNL d   1      48.994  34.811  51.438  0.00  0.00     0.102 A 
ATOM      6  C   UNL d   1      49.798  34.498  51.465  0.00  0.00     0.102 A 
ATOM      7  O   UNL d   1      51.373  33.812  51.198  0.00  0.00    -0.267 OA
ATOM      8  O   UNL d   1      47.756  35.184  50.912  0.00  0.00    -0.267 OA
ATOM      9  C   UNL d   1      49.399  35.023  53.094  0.00  0.00     0.038 A 
ATOM     10  C   UNL d   1      50.083  34.681  52.783  0.00  0.00     0.085 A 
ATOM     11  C   UNL d   1      48.784  35.211  52.845  0.00  0.00     0.085 A 
ENDROOT
BRANCH   2  12
ATOM     12  C   UNL d   1      47.241  35.663  52.131  0.00  0.00     0.057 A 
ATOM     13  C   UNL d   1      46.546  35.270  52.195  0.00  0.00     0.005 A 
ATOM     14  C   UNL d   1      45.938  35.599  52.625  0.00  0.00     0.000 A 
ATOM     15  C   UNL d   1      45.227  35.214  52.699  0.00  0.00     0.000 C 
ATOM     16  C   UNL d   1      46.042  36.320  52.984  0.00  0.00     0.000 A 
ATOM     17  C   UNL d   1      46.749  36.710  52.914  0.00  0.00     0.000 A 
ATOM     18  C   UNL d   1      47.349  36.381  52.487  0.00  0.00     0.005 A 
ENDBRANCH   2  12
BRANCH   1  19
ATOM     19  C   UNL d   1      51.630  34.065  52.774  0.00  0.00     0.057 A 
ATOM     20  C   UNL d   1      52.160  34.763  52.990  0.00  0.00     0.005 A 
ATOM     21  C   UNL d   1      52.678  34.728  53.736  0.00  0.00     0.000 A 
ATOM     22  C   UNL d   1      53.217  35.417  53.972  0.00  0.00     0.000 C 
ATOM     23  C   UNL d   1      52.664  33.985  54.269  0.00  0.00     0.000 A 
ATOM     24  C   UNL d   1      52.125  33.281  54.044  0.00  0.00     0.000 A 
ATOM     25  C   UNL d   1      51.606  33.320  53.295  0.00  0.00     0.005 A 
ENDBRANCH   1  19
TORSDOF 2
ENDMDL
MODEL 4
REMARK VINA RESULT:      -6.9      2.596      4.376
REMARK  2 active torsions:
REMARK  status: ('A' for Active; 'I' for Inactive)
REMARK       I    between atoms: N_4  and  C_1 
REMARK    1  A    between atoms: C_5  and  C_1 
REMARK       I    between atoms: C_2  and  N_3 
REMARK    2  A    between atoms: C_6  and  C_2 
ROOT
ATOM      1  C   UNL d   1      47.724  35.328  51.568  0.00  0.00     0.265 C 
ATOM      2  C   UNL d   1      50.977  34.172  52.155  0.00  0.00     0.265 C 
ATOM      3  N   UNL d   1      50.245  34.479  52.336  0.00  0.00    -0.270 N 
ATOM      4  N   UNL d   1      48.536  35.067  51.899  0.00  0.00    -0.270 N 
ATOM      5  C   UNL d   1      49.878  34.506  51.574  0.00  0.00     0.102 A 
ATOM      6  C   UNL d   1      49.084  34.780  51.377  0.00  0.00     0.102 A 
ATOM      7  O   UNL d   1      47.567  35.254  50.672  0.00  0.00    -0.267 OA
ATOM      8  O   UNL d   1      51.162  33.988  51.394  0.00  0.00    -0.267 OA
ATOM      9  C   UNL d   1      49.272  34.967  53.115  0.00  0.00     0.038 A 
ATOM     10  C   UNL d   1      48.638  35.135  52.614  0.00  0.00     0.085 A 
ATOM     11  C   UNL d   1      49.908  34.712  53.038  0.00  0.00     0.085 A 
ENDROOT
BRANCH   2  12
ATOM     12  C   UNL d   1      51.516  34.056  52.755  0.00  0.00     0.057 A 
ATOM     13  C   UNL d   1      52.029  34.644  52.932  0.00  0.00     0.005 A 
ATOM     14  C   UNL d   1      52.572  34.537  53.530  0.00  0.00     0.000 A 
ATOM     15  C   UNL d   1      53.099  35.124  53.721  0.00  0.00     0.000 C 
ATOM     16  C   UNL d   1      52.586  33.836  53.940  0.00  0.00     0.000 A 
ATOM     17  C   UNL d   1      52.062  33.247  53.754  0.00  0.00     0.000 A 
ATOM     18  C   UNL d   1      51.527  33.357  53.161  0.00  0.00     0.005 A 
ENDBRANCH   2  12
BRANCH   1  19
ATOM     19  C   UNL d   1      47.117  35.650  52.173  0.00  0.00     0.057 A 
ATOM     20  C   UNL d   1      46.321  35.237  52.276  0.00  0.00     0.005 A 
ATOM     21  C   UNL d   1      45.717  35.555  52.876  0.00  0.00     0.000 A 
ATOM     22  C   UNL d   1      44.913  35.156  52.997  0.00  0.00     0.000 C 
ATOM     23  C   UNL d   1      45.914  36.295  53.376  0.00  0.00     0.000 A 
ATOM     24  C   UNL d   1      46.722  36.709  53.266  0.00  0.00     0.000 A 
ATOM     25  C   UNL d   1      47.326  36.387  52.663  0.00  0.00     0.005 A 
ENDBRANCH   1  19
TORSDOF 2
ENDMDL
MODEL 5
REMARK VINA RESULT:      -6.1      1.773      5.128
REMARK  2 active torsions:
REMARK  status: ('A' for Active; 'I' for Inactive)
REMARK       I    between atoms: N_4  and  C_1 
REMARK    1  A    between atoms: C_5  and  C_1 
REMARK       I    between atoms: C_2  and  N_3 
REMARK    2  A    between atoms: C_6  and  C_2 
ROOT
ATOM      1  C   UNL d   1      53.574  32.333  53.880  0.00  0.00     0.265 C 
ATOM      2  C   UNL d   1      50.397  33.358  52.820  0.00  0.00     0.265 C 
ATOM      3  N   UNL d   1      51.169  33.438  53.068  0.00  0.00    -0.270 N 
ATOM      4  N   UNL d   1      52.814  32.772  53.621  0.00  0.00    -0.270 N 
ATOM      5  C   UNL d   1      51.402  32.631  53.167  0.00  0.00     0.102 A 
ATOM      6  C   UNL d   1      52.168  32.328  53.424  0.00  0.00     0.102 A 
ATOM      7  O   UNL d   1      53.570  31.421  53.906  0.00  0.00    -0.267 OA
ATOM      8  O   UNL d   1      50.074  32.626  52.737  0.00  0.00    -0.267 OA
ATOM      9  C   UNL d   1      52.291  34.081  53.413  0.00  0.00     0.038 A 
ATOM     10  C   UNL d   1      52.841  33.497  53.608  0.00  0.00     0.085 A 
ATOM     11  C   UNL d   1      51.635  34.090  53.200  0.00  0.00     0.085 A 
ENDROOT
BRANCH   2  12
ATOM     12  C   UNL d   1      49.962  34.027  52.660  0.00  0.00     0.057 A 
ATOM     13  C   UNL d   1      49.668  34.128  51.921  0.00  0.00     0.005 A 
ATOM     14  C   UNL d   1      49.231  34.794  51.751  0.00  0.00     0.000 A 
ATOM     15  C   UNL d   1      48.927  34.911  51.008  0.00  0.00     0.000 C 
ATOM     16  C   UNL d   1      49.099  35.348  52.330  0.00  0.00     0.000 A 
ATOM     17  C   UNL d   1      49.400  35.237  53.074  0.00  0.00     0.000 A 
ATOM     18  C   UNL d   1      49.832  34.576  53.239  0.00  0.00     0.005 A 
ENDBRANCH   2  12
BRANCH   1  19
ATOM     19  C   UNL d   1      54.295  32.853  54.099  0.00  0.00     0.057 A 
ATOM     20  C   UNL d   1      54.387  33.165  54.941  0.00  0.00     0.005 A 
ATOM     21  C   UNL d   1      55.102  33.681  55.160  0.00  0.00     0.000 A 
ATOM     22  C   UNL d   1      55.214  34.005  55.999  0.00  0.00     0.000 C 
ATOM     23  C   UNL d   1      55.731  33.884  54.529  0.00  0.00     0.000 A 
ATOM     24  C   UNL d   1      55.633  33.565  53.677  0.00  0.00     0.000 A 
ATOM     25  C   UNL d   1      54.913  33.047  53.461  0.00  0.00     0.005 A 
ENDBRANCH   1  19
TORSDOF 2
ENDMDL
MODEL 6
REMARK VINA RESULT:      -5.9      1.299      5.182
REMARK  2 active torsions:
REMARK  status: ('A' for Active; 'I' for Inactive)
REMARK       I    between atoms: N_4  and  C_1 
REMARK    1  A    between atoms: C_5  and  C_1 
REMARK       I    between atoms: C_2  and  N_3 
REMARK    2  A    between atoms: C_6  and  C_2 
ROOT
ATOM      1  C   UNL d   1      52.754  33.624  54.177  0.00  0.00     0.265 C 
ATOM      2  C   UNL d   1      49.851  34.868  52.665  0.00  0.00     0.265 C 
ATOM      3  N   UNL d   1      50.517  34.408  52.746  0.00  0.00    -0.270 N 
ATOM      4  N   UNL d   1      52.037  33.828  53.646  0.00  0.00    -0.270 N 
ATOM      5  C   UNL d   1      50.816  34.669  53.493  0.00  0.00     0.102 A 
ATOM      6  C   UNL d   1      51.523  34.396  53.906  0.00  0.00     0.102 A 
ATOM      7  O   UNL d   1      52.858  34.066  54.969  0.00  0.00    -0.267 OA
ATOM      8  O   UNL d   1      49.653  35.398  53.237  0.00  0.00    -0.267 OA
ATOM      9  C   UNL d   1      51.425  33.484  52.407  0.00  0.00     0.038 A 
ATOM     10  C   UNL d   1      51.975  33.465  53.022  0.00  0.00     0.085 A 
ATOM     11  C   UNL d   1      50.849  33.838  52.270  0.00  0.00     0.085 A 
ENDROOT
BRANCH   2  12
ATOM     12  C   UNL d   1      49.391  34.784  51.998  0.00  0.00     0.057 A 
ATOM     13  C   UNL d   1      48.630  35.033  52.020  0.00  0.00     0.005 A 
ATOM     14  C   UNL d   1      48.162  34.953  51.359  0.00  0.00     0.000 A 
ATOM     15  C   UNL d   1      47.389  35.201  51.365  0.00  0.00     0.000 C 
ATOM     16  C   UNL d   1      48.471  34.622  50.684  0.00  0.00     0.000 A 
ATOM     17  C   UNL d   1      49.242  34.373  50.672  0.00  0.00     0.000 A 
ATOM     18  C   UNL d   1      49.702  34.454  51.329  0.00  0.00     0.005 A 
ENDBRANCH   2  12
BRANCH   1  19
ATOM     19  C   UNL d   1      53.325  32.980  53.867  0.00  0.00     0.057 A 
ATOM     20  C   UNL d   1      53.100  32.108  53.934  0.00  0.00     0.005 A 
ATOM     21  C   UNL d   1      53.666  31.466  53.627  0.00  0.00     0.000 A 
ATOM     22  C   UNL d   1      53.460  30.586  53.684  0.00  0.00     0.000 C 
ATOM     23  C   UNL d   1      54.464  31.702  53.249  0.00  0.00     0.000 A 
ATOM     24  C   UNL d   1      54.687  32.587  53.184  0.00  0.00     0.000 A 
ATOM     25  C   UNL d   1      54.116  33.228  53.493  0.00  0.00     0.005 A 
ENDBRANCH   1  19
TORSDOF 2
ENDMDL
