MODEL 1
REMARK VINA RESULT:      -5.1      0.000      0.000
REMARK  5 active torsions:
REMARK  status: ('A' for Active; 'I' for Inactive)
REMARK    1  A    between atoms: N_9  and  C_2 
REMARK    2  A    between atoms: N_8  and  C_3 
REMARK    3  A    between atoms: N_10  and  C_6 
REMARK    4  A    between atoms: C_7  and  C_11 
REMARK    5  A    between atoms: C_13  and  N_10 
ROOT
ATOM      1  N   UNL d   1     -39.567  14.462  21.623  0.00  0.00     0.133 NA
ATOM      2  C   UNL d   1     -38.769  14.245  21.681  0.00  0.00     0.765 A 
ATOM      3  C   UNL d   1     -39.877  14.702  20.896  0.00  0.00     0.765 A 
ATOM      4  N   UNL d   1     -38.284  14.272  21.011  0.00  0.00     0.134 NA
ATOM      5  N   UNL d   1     -39.393  14.729  20.227  0.00  0.00     0.134 NA
ATOM      6  C   UNL d   1     -38.598  14.514  20.282  0.00  0.00     0.780 A 
ENDROOT
BRANCH   6   7
ATOM      7  N   UNL d   1     -38.112  14.538  19.619  0.00  0.00    -0.058 NA
BRANCH   7   8
ATOM      8  C   UNL d   1     -38.208  13.986  19.015  0.00  0.00     0.100 A 
ATOM      9  C   UNL d   1     -38.577  14.216  18.306  0.00  0.00     0.024 A 
ATOM     10  C   UNL d   1     -38.674  13.663  17.699  0.00  0.00     0.073 A 
ATOM     11  C   UNL d   1     -38.404  12.887  17.802  0.00  0.00     0.004 A 
ATOM     12  C   UNL d   1     -38.039  12.668  18.510  0.00  0.00     0.002 A 
ATOM     13  C   UNL d   1     -37.940  13.213  19.114  0.00  0.00     0.020 A 
BRANCH  10  14
ATOM     14  C   UNL d   1     -39.036  13.883  17.000  0.00  0.00     0.419 C 
ATOM     15  F   UNL d   1     -39.836  13.726  16.888  0.00  0.00    -0.166 F 
ATOM     16  F   UNL d   1     -38.605  14.258  16.416  0.00  0.00    -0.166 F 
ATOM     17  F   UNL d   1     -39.633  13.528  17.445  0.00  0.00    -0.166 F 
ENDBRANCH  10  14
ENDBRANCH   7   8
ENDBRANCH   6   7
BRANCH   3  18
ATOM     18  N   UNL d   1     -40.676  14.919  20.838  0.00  0.00    -0.137 N 
ATOM     19  C   UNL d   1     -41.253  14.328  20.777  0.00  0.00     0.098 A 
ATOM     20  C   UNL d   1     -42.045  14.550  20.720  0.00  0.00     0.021 A 
ATOM     21  C   UNL d   1     -41.675  15.920  20.783  0.00  0.00     0.021 A 
ATOM     22  C   UNL d   1     -40.883  15.716  20.841  0.00  0.00     0.098 A 
ENDBRANCH   3  18
BRANCH   2  23
ATOM     23  N   UNL d   1     -38.455  14.003  22.410  0.00  0.00    -0.137 N 
ATOM     24  C   UNL d   1     -38.345  13.204  22.555  0.00  0.00     0.098 A 
ATOM     25  C   UNL d   1     -38.037  12.968  23.273  0.00  0.00     0.021 A 
ATOM     26  C   UNL d   1     -37.948  14.323  23.696  0.00  0.00     0.021 A 
ATOM     27  C   UNL d   1     -38.259  14.571  22.974  0.00  0.00     0.098 A 
ENDBRANCH   2  23
TORSDOF 5
ENDMDL
MODEL 2
REMARK VINA RESULT:      -4.9      0.263      2.700
REMARK  5 active torsions:
REMARK  status: ('A' for Active; 'I' for Inactive)
REMARK    1  A    between atoms: N_9  and  C_2 
REMARK    2  A    between atoms: N_8  and  C_3 
REMARK    3  A    between atoms: N_10  and  C_6 
REMARK    4  A    between atoms: C_7  and  C_11 
REMARK    5  A    between atoms: C_13  and  N_10 
ROOT
ATOM      1  N   UNL d   1     -39.578  14.552  21.614  0.00  0.00     0.133 NA
ATOM      2  C   UNL d   1     -39.909  14.762  20.882  0.00  0.00     0.765 A 
ATOM      3  C   UNL d   1     -38.776  14.364  21.664  0.00  0.00     0.765 A 
ATOM      4  N   UNL d   1     -39.435  14.783  20.205  0.00  0.00     0.134 NA
ATOM      5  N   UNL d   1     -38.302  14.385  20.987  0.00  0.00     0.134 NA
ATOM      6  C   UNL d   1     -38.629  14.593  20.258  0.00  0.00     0.780 A 
ENDROOT
BRANCH   6   7
ATOM      7  N   UNL d   1     -38.161  14.615  19.582  0.00  0.00    -0.058 NA
BRANCH   7   8
ATOM      8  C   UNL d   1     -38.265  14.053  18.988  0.00  0.00     0.100 A 
ATOM      9  C   UNL d   1     -38.664  14.266  18.290  0.00  0.00     0.024 A 
ATOM     10  C   UNL d   1     -38.769  13.703  17.693  0.00  0.00     0.073 A 
ATOM     11  C   UNL d   1     -38.478  12.934  17.797  0.00  0.00     0.004 A 
ATOM     12  C   UNL d   1     -38.084  12.733  18.493  0.00  0.00     0.002 A 
ATOM     13  C   UNL d   1     -37.977  13.287  19.087  0.00  0.00     0.020 A 
BRANCH  10  14
ATOM     14  C   UNL d   1     -39.160  13.906  17.005  0.00  0.00     0.419 C 
ATOM     15  F   UNL d   1     -38.833  13.707  16.276  0.00  0.00    -0.166 F 
ATOM     16  F   UNL d   1     -39.872  14.304  17.040  0.00  0.00    -0.166 F 
ATOM     17  F   UNL d   1     -38.476  13.518  16.754  0.00  0.00    -0.166 F 
ENDBRANCH  10  14
ENDBRANCH   7   8
ENDBRANCH   6   7
BRANCH   3  18
ATOM     18  N   UNL d   1     -38.445  14.154  22.395  0.00  0.00    -0.137 N 
ATOM     19  C   UNL d   1     -38.269  14.747  22.946  0.00  0.00     0.098 A 
ATOM     20  C   UNL d   1     -37.940  14.531  23.671  0.00  0.00     0.021 A 
ATOM     21  C   UNL d   1     -37.969  13.164  23.287  0.00  0.00     0.021 A 
ATOM     22  C   UNL d   1     -38.297  13.361  22.562  0.00  0.00     0.098 A 
ENDBRANCH   3  18
BRANCH   2  23
ATOM     23  N   UNL d   1     -40.716  14.952  20.829  0.00  0.00    -0.137 N 
ATOM     24  C   UNL d   1     -40.944  15.739  20.825  0.00  0.00     0.098 A 
ATOM     25  C   UNL d   1     -41.738  15.922  20.773  0.00  0.00     0.021 A 
ATOM     26  C   UNL d   1     -42.070  14.540  20.729  0.00  0.00     0.021 A 
ATOM     27  C   UNL d   1     -41.270  14.344  20.782  0.00  0.00     0.098 A 
ENDBRANCH   2  23
TORSDOF 5
ENDMDL
MODEL 3
REMARK VINA RESULT:      -4.6      2.345      4.882
REMARK  5 active torsions:
REMARK  status: ('A' for Active; 'I' for Inactive)
REMARK    1  A    between atoms: N_9  and  C_2 
REMARK    2  A    between atoms: N_8  and  C_3 
REMARK    3  A    between atoms: N_10  and  C_6 
REMARK    4  A    between atoms: C_7  and  C_11 
REMARK    5  A    between atoms: C_13  and  N_10 
ROOT
ATOM      1  N   UNL d   1     -39.653  14.406  17.388  0.00  0.00     0.133 NA
ATOM      2  C   UNL d   1     -40.008  15.118  17.624  0.00  0.00     0.765 A 
ATOM      3  C   UNL d   1     -39.036  14.086  17.833  0.00  0.00     0.765 A 
ATOM      4  N   UNL d   1     -39.742  15.506  18.304  0.00  0.00     0.134 NA
ATOM      5  N   UNL d   1     -38.771  14.474  18.514  0.00  0.00     0.134 NA
ATOM      6  C   UNL d   1     -39.122  15.182  18.750  0.00  0.00     0.780 A 
ENDROOT
BRANCH   6   7
ATOM      7  N   UNL d   1     -38.861  15.572  19.427  0.00  0.00    -0.058 NA
BRANCH   7   8
ATOM      8  C   UNL d   1     -39.256  15.467  20.142  0.00  0.00     0.100 A 
ATOM      9  C   UNL d   1     -38.953  14.928  20.699  0.00  0.00     0.024 A 
ATOM     10  C   UNL d   1     -39.348  14.821  21.418  0.00  0.00     0.073 A 
ATOM     11  C   UNL d   1     -40.038  15.251  21.577  0.00  0.00     0.004 A 
ATOM     12  C   UNL d   1     -40.330  15.783  21.017  0.00  0.00     0.002 A 
ATOM     13  C   UNL d   1     -39.943  15.892  20.303  0.00  0.00     0.020 A 
BRANCH  10  14
ATOM     14  C   UNL d   1     -39.055  14.294  21.970  0.00  0.00     0.419 C 
ATOM     15  F   UNL d   1     -39.461  13.593  22.119  0.00  0.00    -0.166 F 
ATOM     16  F   UNL d   1     -38.364  14.460  22.370  0.00  0.00    -0.166 F 
ATOM     17  F   UNL d   1     -39.747  13.943  21.687  0.00  0.00    -0.166 F 
ENDBRANCH  10  14
ENDBRANCH   7   8
ENDBRANCH   6   7
BRANCH   3  18
ATOM     18  N   UNL d   1     -38.682  13.374  17.598  0.00  0.00    -0.137 N 
ATOM     19  C   UNL d   1     -38.731  12.713  18.094  0.00  0.00     0.098 A 
ATOM     20  C   UNL d   1     -38.376  12.008  17.853  0.00  0.00     0.021 A 
ATOM     21  C   UNL d   1     -37.940  12.628  16.652  0.00  0.00     0.021 A 
ATOM     22  C   UNL d   1     -38.287  13.336  16.876  0.00  0.00     0.098 A 
ENDBRANCH   3  18
BRANCH   2  23
ATOM     23  N   UNL d   1     -40.628  15.442  17.178  0.00  0.00    -0.137 N 
ATOM     24  C   UNL d   1     -40.511  15.603  16.383  0.00  0.00     0.098 A 
ATOM     25  C   UNL d   1     -41.123  15.922  15.947  0.00  0.00     0.021 A 
ATOM     26  C   UNL d   1     -41.963  15.918  17.094  0.00  0.00     0.021 A 
ATOM     27  C   UNL d   1     -41.350  15.596  17.544  0.00  0.00     0.098 A 
ENDBRANCH   2  23
TORSDOF 5
ENDMDL
MODEL 4
REMARK VINA RESULT:      -4.0      6.997      9.095
REMARK  5 active torsions:
REMARK  status: ('A' for Active; 'I' for Inactive)
REMARK    1  A    between atoms: N_9  and  C_2 
REMARK    2  A    between atoms: N_8  and  C_3 
REMARK    3  A    between atoms: N_10  and  C_6 
REMARK    4  A    between atoms: C_7  and  C_11 
REMARK    5  A    between atoms: C_13  and  N_10 
ROOT
ATOM      1  N   UNL d   1     -48.771  13.430  22.972  0.00  0.00     0.133 NA
ATOM      2  C   UNL d   1     -48.403  12.717  23.181  0.00  0.00     0.765 A 
ATOM      3  C   UNL d   1     -48.337  14.131  22.964  0.00  0.00     0.765 A 
ATOM      4  N   UNL d   1     -47.600  12.710  23.381  0.00  0.00     0.134 NA
ATOM      5  N   UNL d   1     -47.534  14.125  23.163  0.00  0.00     0.134 NA
ATOM      6  C   UNL d   1     -47.165  13.416  23.371  0.00  0.00     0.780 A 
ENDROOT
BRANCH   6   7
ATOM      7  N   UNL d   1     -46.367  13.404  23.571  0.00  0.00    -0.058 NA
BRANCH   7   8
ATOM      8  C   UNL d   1     -45.816  13.075  23.054  0.00  0.00     0.100 A 
ATOM      9  C   UNL d   1     -45.439  12.363  23.260  0.00  0.00     0.024 A 
ATOM     10  C   UNL d   1     -44.886  12.031  22.742  0.00  0.00     0.073 A 
ATOM     11  C   UNL d   1     -44.714  12.409  22.026  0.00  0.00     0.004 A 
ATOM     12  C   UNL d   1     -45.094  13.115  21.831  0.00  0.00     0.002 A 
ATOM     13  C   UNL d   1     -45.643  13.448  22.340  0.00  0.00     0.020 A 
BRANCH  10  14
ATOM     14  C   UNL d   1     -44.511  11.332  22.939  0.00  0.00     0.419 C 
ATOM     15  F   UNL d   1     -43.699  11.257  22.824  0.00  0.00    -0.166 F 
ATOM     16  F   UNL d   1     -44.940  10.710  23.249  0.00  0.00    -0.166 F 
ATOM     17  F   UNL d   1     -43.911  11.819  22.650  0.00  0.00    -0.166 F 
ENDBRANCH  10  14
ENDBRANCH   7   8
ENDBRANCH   6   7
BRANCH   3  18
ATOM     18  N   UNL d   1     -48.705  14.845  22.754  0.00  0.00    -0.137 N 
ATOM     19  C   UNL d   1     -48.501  15.213  22.041  0.00  0.00     0.098 A 
ATOM     20  C   UNL d   1     -48.872  15.922  21.840  0.00  0.00     0.021 A 
ATOM     21  C   UNL d   1     -49.625  15.880  23.043  0.00  0.00     0.021 A 
ATOM     22  C   UNL d   1     -49.267  15.175  23.258  0.00  0.00     0.098 A 
ENDBRANCH   3  18
BRANCH   2  23
ATOM     23  N   UNL d   1     -48.838  12.010  23.191  0.00  0.00    -0.137 N 
ATOM     24  C   UNL d   1     -48.614  11.393  22.700  0.00  0.00     0.098 A 
ATOM     25  C   UNL d   1     -49.044  10.699  22.711  0.00  0.00     0.021 A 
ATOM     26  C   UNL d   1     -49.915  11.238  23.698  0.00  0.00     0.021 A 
ATOM     27  C   UNL d   1     -49.487  11.943  23.694  0.00  0.00     0.098 A 
ENDBRANCH   2  23
TORSDOF 5
ENDMDL
MODEL 5
REMARK VINA RESULT:      -3.6      2.245      3.314
REMARK  5 active torsions:
REMARK  status: ('A' for Active; 'I' for Inactive)
REMARK    1  A    between atoms: N_9  and  C_2 
REMARK    2  A    between atoms: N_8  and  C_3 
REMARK    3  A    between atoms: N_10  and  C_6 
REMARK    4  A    between atoms: C_7  and  C_11 
REMARK    5  A    between atoms: C_13  and  N_10 
ROOT
ATOM      1  N   UNL d   1     -40.686  15.119  18.422  0.00  0.00     0.133 NA
ATOM      2  C   UNL d   1     -40.287  14.807  19.079  0.00  0.00     0.765 A 
ATOM      3  C   UNL d   1     -40.312  15.145  17.687  0.00  0.00     0.765 A 
ATOM      4  N   UNL d   1     -39.515  14.523  18.997  0.00  0.00     0.134 NA
ATOM      5  N   UNL d   1     -39.540  14.861  17.604  0.00  0.00     0.134 NA
ATOM      6  C   UNL d   1     -39.141  14.550  18.256  0.00  0.00     0.780 A 
ENDROOT
BRANCH   6   7
ATOM      7  N   UNL d   1     -38.372  14.267  18.179  0.00  0.00    -0.058 NA
BRANCH   7   8
ATOM      8  C   UNL d   1     -38.228  13.572  17.759  0.00  0.00     0.100 A 
ATOM      9  C   UNL d   1     -38.180  12.851  18.170  0.00  0.00     0.024 A 
ATOM     10  C   UNL d   1     -38.036  12.152  17.750  0.00  0.00     0.073 A 
ATOM     11  C   UNL d   1     -37.940  12.178  16.928  0.00  0.00     0.004 A 
ATOM     12  C   UNL d   1     -37.989  12.900  16.531  0.00  0.00     0.002 A 
ATOM     13  C   UNL d   1     -38.133  13.594  16.941  0.00  0.00     0.020 A 
BRANCH  10  14
ATOM     14  C   UNL d   1     -37.987  11.440  18.148  0.00  0.00     0.419 C 
ATOM     15  F   UNL d   1     -37.987  10.735  17.723  0.00  0.00    -0.166 F 
ATOM     16  F   UNL d   1     -37.940  11.427  18.963  0.00  0.00    -0.166 F 
ATOM     17  F   UNL d   1     -38.027  11.234  17.350  0.00  0.00    -0.166 F 
ENDBRANCH  10  14
ENDBRANCH   7   8
ENDBRANCH   6   7
BRANCH   3  18
ATOM     18  N   UNL d   1     -40.711  15.457  17.030  0.00  0.00    -0.137 N 
ATOM     19  C   UNL d   1     -40.289  15.612  16.335  0.00  0.00     0.098 A 
ATOM     20  C   UNL d   1     -40.693  15.922  15.685  0.00  0.00     0.021 A 
ATOM     21  C   UNL d   1     -41.905  15.917  16.425  0.00  0.00     0.021 A 
ATOM     22  C   UNL d   1     -41.520  15.608  17.080  0.00  0.00     0.098 A 
ENDBRANCH   3  18
BRANCH   2  23
ATOM     23  N   UNL d   1     -40.661  14.779  19.820  0.00  0.00    -0.137 N 
ATOM     24  C   UNL d   1     -40.667  15.449  20.293  0.00  0.00     0.098 A 
ATOM     25  C   UNL d   1     -41.035  15.419  21.021  0.00  0.00     0.021 A 
ATOM     26  C   UNL d   1     -41.390  14.059  20.802  0.00  0.00     0.021 A 
ATOM     27  C   UNL d   1     -41.020  14.079  20.064  0.00  0.00     0.098 A 
ENDBRANCH   2  23
TORSDOF 5
ENDMDL
MODEL 6
REMARK VINA RESULT:      -3.1      7.543      9.398
REMARK  5 active torsions:
REMARK  status: ('A' for Active; 'I' for Inactive)
REMARK    1  A    between atoms: N_9  and  C_2 
REMARK    2  A    between atoms: N_8  and  C_3 
REMARK    3  A    between atoms: N_10  and  C_6 
REMARK    4  A    between atoms: C_7  and  C_11 
REMARK    5  A    between atoms: C_13  and  N_10 
ROOT
ATOM      1  N   UNL d   1     -45.503  12.211  23.057  0.00  0.00     0.133 NA
ATOM      2  C   UNL d   1     -45.613  11.425  23.300  0.00  0.00     0.765 A 
ATOM      3  C   UNL d   1     -46.146  12.728  23.028  0.00  0.00     0.765 A 
ATOM      4  N   UNL d   1     -46.367  11.161  23.513  0.00  0.00     0.134 NA
ATOM      5  N   UNL d   1     -46.900  12.464  23.242  0.00  0.00     0.134 NA
ATOM      6  C   UNL d   1     -47.012  11.683  23.484  0.00  0.00     0.780 A 
ENDROOT
BRANCH   6   7
ATOM      7  N   UNL d   1     -47.761  11.415  23.698  0.00  0.00    -0.058 NA
BRANCH   7   8
ATOM      8  C   UNL d   1     -48.408  11.567  23.212  0.00  0.00     0.100 A 
ATOM      9  C   UNL d   1     -49.027  12.046  23.495  0.00  0.00     0.024 A 
ATOM     10  C   UNL d   1     -49.678  12.199  23.008  0.00  0.00     0.073 A 
ATOM     11  C   UNL d   1     -49.708  11.877  22.246  0.00  0.00     0.004 A 
ATOM     12  C   UNL d   1     -49.088  11.403  21.975  0.00  0.00     0.002 A 
ATOM     13  C   UNL d   1     -48.441  11.248  22.453  0.00  0.00     0.020 A 
BRANCH  10  14
ATOM     14  C   UNL d   1     -50.290  12.669  23.281  0.00  0.00     0.419 C 
ATOM     15  F   UNL d   1     -50.120  13.381  23.657  0.00  0.00    -0.166 F 
ATOM     16  F   UNL d   1     -51.064  12.432  23.180  0.00  0.00    -0.166 F 
ATOM     17  F   UNL d   1     -49.602  13.081  23.478  0.00  0.00    -0.166 F 
ENDBRANCH  10  14
ENDBRANCH   7   8
ENDBRANCH   6   7
BRANCH   3  18
ATOM     18  N   UNL d   1     -46.036  13.513  22.785  0.00  0.00    -0.137 N 
ATOM     19  C   UNL d   1     -45.708  13.665  22.040  0.00  0.00     0.098 A 
ATOM     20  C   UNL d   1     -45.601  14.448  21.805  0.00  0.00     0.021 A 
ATOM     21  C   UNL d   1     -46.141  14.901  23.038  0.00  0.00     0.021 A 
ATOM     22  C   UNL d   1     -46.253  14.129  23.288  0.00  0.00     0.098 A 
ENDBRANCH   3  18
BRANCH   2  23
ATOM     23  N   UNL d   1     -44.968  10.904  23.329  0.00  0.00    -0.137 N 
ATOM     24  C   UNL d   1     -45.064  10.164  23.669  0.00  0.00     0.098 A 
ATOM     25  C   UNL d   1     -44.428   9.653  23.696  0.00  0.00     0.021 A 
ATOM     26  C   UNL d   1     -43.607  10.616  23.047  0.00  0.00     0.021 A 
ATOM     27  C   UNL d   1     -44.244  11.140  23.015  0.00  0.00     0.098 A 
ENDBRANCH   2  23
TORSDOF 5
ENDMDL
MODEL 7
REMARK VINA RESULT:      -2.5      1.163      1.704
REMARK  5 active torsions:
REMARK  status: ('A' for Active; 'I' for Inactive)
REMARK    1  A    between atoms: N_9  and  C_2 
REMARK    2  A    between atoms: N_8  and  C_3 
REMARK    3  A    between atoms: N_10  and  C_6 
REMARK    4  A    between atoms: C_7  and  C_11 
REMARK    5  A    between atoms: C_13  and  N_10 
ROOT
ATOM      1  N   UNL d   1     -40.262  14.568  21.556  0.00  0.00     0.133 NA
ATOM      2  C   UNL d   1     -39.579  15.027  21.450  0.00  0.00     0.765 A 
ATOM      3  C   UNL d   1     -40.783  14.453  20.927  0.00  0.00     0.765 A 
ATOM      4  N   UNL d   1     -39.423  15.370  20.714  0.00  0.00     0.134 NA
ATOM      5  N   UNL d   1     -40.627  14.796  20.190  0.00  0.00     0.134 NA
ATOM      6  C   UNL d   1     -39.949  15.254  20.083  0.00  0.00     0.780 A 
ENDROOT
BRANCH   6   7
ATOM      7  N   UNL d   1     -39.789  15.597  19.352  0.00  0.00    -0.058 NA
BRANCH   7   8
ATOM      8  C   UNL d   1     -39.255  15.240  18.835  0.00  0.00     0.100 A 
ATOM      9  C   UNL d   1     -39.500  14.587  18.383  0.00  0.00     0.024 A 
ATOM     10  C   UNL d   1     -38.966  14.227  17.864  0.00  0.00     0.073 A 
ATOM     11  C   UNL d   1     -38.194  14.521  17.800  0.00  0.00     0.004 A 
ATOM     12  C   UNL d   1     -37.961  15.170  18.253  0.00  0.00     0.002 A 
ATOM     13  C   UNL d   1     -38.486  15.530  18.768  0.00  0.00     0.020 A 
BRANCH  10  14
ATOM     14  C   UNL d   1     -39.200  13.584  17.417  0.00  0.00     0.419 C 
ATOM     15  F   UNL d   1     -39.347  13.678  16.613  0.00  0.00    -0.166 F 
ATOM     16  F   UNL d   1     -39.290  12.852  17.767  0.00  0.00    -0.166 F 
ATOM     17  F   UNL d   1     -39.172  14.214  16.884  0.00  0.00    -0.166 F 
ENDBRANCH  10  14
ENDBRANCH   7   8
ENDBRANCH   6   7
BRANCH   3  18
ATOM     18  N   UNL d   1     -41.466  13.994  21.032  0.00  0.00    -0.137 N 
ATOM     19  C   UNL d   1     -42.196  14.286  20.773  0.00  0.00     0.098 A 
ATOM     20  C   UNL d   1     -42.870  13.823  20.881  0.00  0.00     0.021 A 
ATOM     21  C   UNL d   1     -42.087  12.809  21.493  0.00  0.00     0.021 A 
ATOM     22  C   UNL d   1     -41.407  13.255  21.393  0.00  0.00     0.098 A 
ENDBRANCH   3  18
BRANCH   2  23
ATOM     23  N   UNL d   1     -39.054  15.144  22.081  0.00  0.00    -0.137 N 
ATOM     24  C   UNL d   1     -39.135  15.807  22.555  0.00  0.00     0.098 A 
ATOM     25  C   UNL d   1     -38.616  15.919  23.176  0.00  0.00     0.021 A 
ATOM     26  C   UNL d   1     -37.940  14.712  22.848  0.00  0.00     0.021 A 
ATOM     27  C   UNL d   1     -38.460  14.590  22.219  0.00  0.00     0.098 A 
ENDBRANCH   2  23
TORSDOF 5
ENDMDL
