MODEL 1
REMARK VINA RESULT:      56.5      0.000      0.000
REMARK  4 active torsions:
REMARK  status: ('A' for Active; 'I' for Inactive)
REMARK    1  A    between atoms: S_4  and  C_3 
REMARK    2  A    between atoms: C_12  and  S_4 
REMARK    3  A    between atoms: C_23  and  N_6 
REMARK    4  A    between atoms: C_27  and  C_23 
ROOT
ATOM      1  C   UNL d   1      46.390 -18.788  42.125  0.00  0.00     0.155 A 
ATOM      2  C   UNL d   1      46.224 -18.119  41.681  0.00  0.00     0.092 A 
ATOM      3  C   UNL d   1      46.135 -17.355  42.879  0.00  0.00     0.124 A 
ATOM      4  N   UNL d   1      46.518 -19.510  41.751  0.00  0.00    -0.210 NA
ATOM      5  N   UNL d   1      46.428 -18.742  42.942  0.00  0.00    -0.273 N 
ATOM      6  C   UNL d   1      46.300 -18.021  43.321  0.00  0.00     0.181 A 
ATOM      7  C   UNL d   1      46.185 -18.164  40.857  0.00  0.00     0.269 A 
ATOM      8  N   UNL d   1      46.314 -18.886  40.483  0.00  0.00    -0.258 N 
ATOM      9  C   UNL d   1      46.095 -17.396  42.054  0.00  0.00     0.022 A 
ATOM     10  C   UNL d   1      46.480 -19.559  40.930  0.00  0.00     0.152 A 
ATOM     11  N   UNL d   1      46.340 -17.978  44.147  0.00  0.00    -0.128 N 
ATOM     12  C   UNL d   1      46.274 -18.929  39.657  0.00  0.00     0.084 A 
ATOM     13  O   UNL d   1      46.018 -17.487  40.417  0.00  0.00    -0.266 OA
ATOM     14  C   UNL d   1      46.607 -20.274  40.551  0.00  0.00     0.038 A 
ATOM     15  C   UNL d   1      46.404 -19.652  39.295  0.00  0.00     0.019 A 
ATOM     16  C   UNL d   1      46.570 -20.325  39.741  0.00  0.00     0.005 A 
ENDROOT
BRANCH   3  17
ATOM     17  S   UNL d   1      46.006 -16.628  43.260  0.00  0.00     0.213 S 
ATOM     18  O   UNL d   1      46.399 -16.244  42.652  0.00  0.00    -0.217 OA
ATOM     19  O   UNL d   1      45.608 -17.028  43.874  0.00  0.00    -0.217 OA
BRANCH  17  20
ATOM     20  C   UNL d   1      45.872 -15.908  43.647  0.00  0.00     0.088 A 
ATOM     21  C   UNL d   1      45.774 -15.220  43.204  0.00  0.00     0.011 A 
ATOM     22  C   UNL d   1      45.642 -14.507  43.584  0.00  0.00     0.001 A 
ATOM     23  C   UNL d   1      45.544 -13.818  43.142  0.00  0.00     0.000 C 
ATOM     24  C   UNL d   1      45.607 -14.477  44.413  0.00  0.00     0.000 A 
ATOM     25  C   UNL d   1      45.705 -15.166  44.856  0.00  0.00     0.001 A 
ATOM     26  C   UNL d   1      45.472 -13.753  44.797  0.00  0.00     0.000 C 
ATOM     27  C   UNL d   1      45.839 -15.889  44.472  0.00  0.00     0.011 A 
ENDBRANCH  17  20
ENDBRANCH   3  17
BRANCH   5  28
ATOM     28  C   UNL d   1      46.595 -19.420  43.382  0.00  0.00     0.083 C 
BRANCH  28  29
ATOM     29  C   UNL d   1      46.132 -19.605  44.039  0.00  0.00     0.019 C 
ATOM     30  C   UNL d   1      45.434 -20.035  43.948  0.00  0.00     0.002 C 
ENDBRANCH  28  29
ENDBRANCH   5  28
TORSDOF 4
ENDMDL
