MODEL 1
REMARK VINA RESULT:      61.1      0.000      0.000
REMARK  5 active torsions:
REMARK  status: ('A' for Active; 'I' for Inactive)
REMARK    1  A    between atoms: N_7  and  C_1 
REMARK    2  A    between atoms: C_4  and  C_3 
REMARK       I    between atoms: C_8  and  N_7 
REMARK    3  A    between atoms: C_15  and  C_8 
REMARK    4  A    between atoms: O_20  and  C_15 
REMARK    5  A    between atoms: C_22  and  O_20 
ROOT
ATOM      1  C   UNL d   1     -55.332-101.461 -42.527  0.00  0.00     0.204 A 
ATOM      2  S   UNL d   1     -55.226-101.382 -41.716  0.00  0.00    -0.031 SA
ATOM      3  C   UNL d   1     -55.407-102.115 -41.360  0.00  0.00     0.119 A 
ATOM      4  N   UNL d   1     -55.578-102.236 -42.685  0.00  0.00    -0.123 NA
ATOM      5  N   UNL d   1     -55.618-102.624 -41.957  0.00  0.00    -0.143 NA
ENDROOT
BRANCH   1   6
ATOM      6  N   UNL d   1     -55.229-100.906 -43.131  0.00  0.00    -0.248 N 
ATOM      7  C   UNL d   1     -55.692-101.012 -43.856  0.00  0.00     0.291 C 
ATOM      8  O   UNL d   1     -56.229-101.674 -43.920  0.00  0.00    -0.264 OA
ATOM      9  C   UNL d   1     -54.713-100.284 -43.048  0.00  0.00     0.104 C 
BRANCH   7  10
ATOM     10  C   UNL d   1     -55.610-100.473 -44.477  0.00  0.00     0.184 C 
BRANCH  10  11
ATOM     11  O   UNL d   1     -55.721 -99.658 -44.319  0.00  0.00    -0.300 OA
BRANCH  11  12
ATOM     12  C   UNL d   1     -56.503 -99.375 -44.353  0.00  0.00     0.100 A 
ATOM     13  C   UNL d   1     -56.948 -99.341 -45.047  0.00  0.00     0.025 A 
ATOM     14  C   UNL d   1     -57.711 -99.060 -45.053  0.00  0.00     0.002 A 
ATOM     15  C   UNL d   1     -58.088 -98.790 -44.353  0.00  0.00     0.000 A 
ATOM     16  C   UNL d   1     -57.637 -98.821 -43.629  0.00  0.00     0.002 A 
ATOM     17  C   UNL d   1     -56.838 -99.116 -43.630  0.00  0.00     0.025 A 
ENDBRANCH  11  12
ENDBRANCH  10  11
ENDBRANCH   7  10
ENDBRANCH   1   6
BRANCH   3  18
ATOM     18  C   UNL d   1     -55.397-102.355 -40.570  0.00  0.00     0.081 A 
ATOM     19  C   UNL d   1     -54.917-102.501 -39.938  0.00  0.00    -0.017 A 
ATOM     20  C   UNL d   1     -55.242-102.737 -39.264  0.00  0.00    -0.008 A 
ATOM     21  C   UNL d   1     -54.718-102.879 -38.634  0.00  0.00    -0.001 A 
ATOM     22  C   UNL d   1     -56.047-102.787 -39.351  0.00  0.00    -0.022 A 
ATOM     23  C   UNL d   1     -55.363-102.792 -39.119  0.00  0.00    -0.008 A 
ATOM     24  C   UNL d   1     -55.157-102.557 -39.829  0.00  0.00    -0.017 A 
ATOM     25  C   UNL d   1     -56.335-102.860 -39.200  0.00  0.00    -0.022 A 
ATOM     26  C   UNL d   1     -56.632-102.662 -39.943  0.00  0.00     0.045 A 
ATOM     27  C   UNL d   1     -56.214-102.421 -40.604  0.00  0.00     0.023 A 
ENDBRANCH   3  18
TORSDOF 5
ENDMDL
