MODEL 1
REMARK VINA RESULT:      26.0      0.000      0.000
REMARK  4 active torsions:
REMARK  status: ('A' for Active; 'I' for Inactive)
REMARK    1  A    between atoms: C_7  and  C_3 
REMARK       I    between atoms: N_13  and  C_7 
REMARK    2  A    between atoms: C_14  and  N_13 
REMARK    3  A    between atoms: C_16  and  C_14 
REMARK    4  A    between atoms: C_15  and  C_16 
ROOT
ATOM      1  C   UNL d   1     -56.535 -98.916 -43.973  0.00  0.00     0.285 C 
ATOM      2  O   UNL d   1     -56.111 -98.755 -43.295  0.00  0.00    -0.265 OA
ATOM      3  N   UNL d   1     -56.145 -99.118 -44.667  0.00  0.00    -0.206 NA
ENDROOT
BRANCH   1   4
ATOM      4  C   UNL d   1     -57.361 -98.877 -43.970  0.00  0.00     0.133 A 
ATOM      5  C   UNL d   1     -57.766 -98.857 -44.689  0.00  0.00     0.272 A 
ATOM      6  N   UNL d   1     -58.594 -98.819 -44.701  0.00  0.00    -0.265 N 
ATOM      7  O   UNL d   1     -57.354 -98.875 -45.401  0.00  0.00    -0.266 OA
ATOM      8  C   UNL d   1     -59.006 -98.801 -43.989  0.00  0.00     0.181 A 
ATOM      9  C   UNL d   1     -59.134 -98.793 -45.313  0.00  0.00     0.123 A 
ATOM     10  N   UNL d   1     -58.604 -98.821 -43.273  0.00  0.00    -0.220 NA
ATOM     11  S   UNL d   1     -59.811 -98.763 -44.162  0.00  0.00    -0.049 SA
ATOM     12  C   UNL d   1     -57.781 -98.859 -43.262  0.00  0.00     0.111 A 
ATOM     13  C   UNL d   1     -59.886 -98.758 -44.990  0.00  0.00     0.043 A 
ENDBRANCH   1   4
BRANCH   3  14
ATOM     14  C   UNL d   1     -55.325 -99.159 -44.680  0.00  0.00     0.102 C 
BRANCH  14  15
ATOM     15  C   UNL d   1     -54.916 -99.675 -44.181  0.00  0.00     0.021 C 
BRANCH  15  16
ATOM     16  C   UNL d   1     -54.883-100.484 -44.353  0.00  0.00     0.002 A 
ATOM     17  C   UNL d   1     -54.991-101.036 -43.748  0.00  0.00     0.000 A 
ATOM     18  C   UNL d   1     -54.958-101.835 -43.919  0.00  0.00     0.000 A 
ATOM     19  C   UNL d   1     -54.817-102.098 -44.699  0.00  0.00     0.000 A 
ATOM     20  C   UNL d   1     -54.711-101.542 -45.293  0.00  0.00     0.000 A 
ATOM     21  C   UNL d   1     -54.743-100.736 -45.130  0.00  0.00     0.000 A 
ENDBRANCH  15  16
ENDBRANCH  14  15
ENDBRANCH   3  14
TORSDOF 4
ENDMDL
