MODEL 1
REMARK VINA RESULT:      68.6      0.000      0.000
REMARK  4 active torsions:
REMARK  status: ('A' for Active; 'I' for Inactive)
REMARK    1  A    between atoms: C_2  and  S_1 
REMARK    2  A    between atoms: N_3  and  S_1 
REMARK    3  A    between atoms: C_4  and  C_6 
REMARK       I    between atoms: N_7  and  C_4 
REMARK    4  A    between atoms: C_14  and  N_7 
ROOT
ATOM      1  C   UNL d   1     -51.024  24.614  33.573  0.00  0.00     0.104 A 
ATOM      2  C   UNL d   1     -50.851  25.407  33.724  0.00  0.00     0.018 A 
ATOM      3  C   UNL d   1     -50.061  25.657  33.761  0.00  0.00     0.059 A 
ATOM      4  C   UNL d   1     -50.418  24.078  33.458  0.00  0.00     0.012 A 
ATOM      5  C   UNL d   1     -49.449  25.113  33.645  0.00  0.00     0.005 A 
ATOM      6  C   UNL d   1     -49.628  24.328  33.495  0.00  0.00     0.001 A 
ATOM      7  C   UNL d   1     -50.591  23.285  33.307  0.00  0.00     0.001 C 
ENDROOT
BRANCH   3   8
ATOM      8  C   UNL d   1     -49.881  26.452  33.913  0.00  0.00     0.279 C 
ATOM      9  N   UNL d   1     -49.215  26.648  34.354  0.00  0.00    -0.208 NA
ATOM     10  O   UNL d   1     -50.371  27.049  33.621  0.00  0.00    -0.265 OA
BRANCH   9  11
ATOM     11  C   UNL d   1     -49.035  27.436  34.505  0.00  0.00     0.087 A 
ATOM     12  C   UNL d   1     -48.263  27.652  34.664  0.00  0.00     0.045 A 
ATOM     13  C   UNL d   1     -48.078  28.434  34.815  0.00  0.00     0.121 A 
ATOM     14  O   UNL d   1     -47.363  28.820  34.991  0.00  0.00    -0.299 OA
ATOM     15  C   UNL d   1     -48.674  29.011  34.808  0.00  0.00     0.119 A 
ATOM     16  C   UNL d   1     -47.511  29.626  35.092  0.00  0.00     0.304 A 
ATOM     17  O   UNL d   1     -48.332  29.748  34.978  0.00  0.00    -0.300 OA
ATOM     18  C   UNL d   1     -49.457  28.789  34.646  0.00  0.00     0.028 A 
ATOM     19  C   UNL d   1     -49.637  28.004  34.495  0.00  0.00     0.021 A 
ENDBRANCH   9  11
ENDBRANCH   3   8
BRANCH   1  20
ATOM     20  S   UNL d   1     -51.805  24.367  33.537  0.00  0.00     0.271 S 
ATOM     21  O   UNL d   1     -51.551  23.594  33.338  0.00  0.00    -0.200 OA
ATOM     22  O   UNL d   1     -52.092  25.240  33.761  0.00  0.00    -0.200 OA
BRANCH  20  23
ATOM     23  N   UNL d   1     -52.611  24.166  33.513  0.00  0.00    -0.229 N 
ATOM     24  C   UNL d   1     -52.848  23.392  33.676  0.00  0.00     0.092 A 
ATOM     25  C   UNL d   1     -53.640  23.189  33.654  0.00  0.00     0.020 A 
ATOM     26  C   UNL d   1     -54.208  23.755  33.471  0.00  0.00     0.003 A 
ATOM     27  C   UNL d   1     -53.972  24.529  33.308  0.00  0.00     0.020 A 
ATOM     28  C   UNL d   1     -53.175  24.736  33.329  0.00  0.00     0.092 A 
ENDBRANCH  20  23
ENDBRANCH   1  20
TORSDOF 4
ENDMDL
