MODEL 1
REMARK VINA RESULT:     110.2      0.000      0.000
REMARK  7 active torsions:
REMARK  status: ('A' for Active; 'I' for Inactive)
REMARK    1  A    between atoms: C_19  and  N_5 
REMARK    2  A    between atoms: C_12  and  C_6 
REMARK       I    between atoms: N_20  and  C_12 
REMARK    3  A    between atoms: C_21  and  C_19 
REMARK    4  A    between atoms: C_26  and  N_20 
REMARK    5  A    between atoms: C_23  and  C_26 
REMARK    6  A    between atoms: C_27  and  C_23 
REMARK    7  A    between atoms: O_24  and  C_27 
ROOT
ATOM      1  C   UNL d   1      61.426  45.558  50.366  0.00  0.00     0.155 A 
ATOM      2  C   UNL d   1      61.180  45.771  51.124  0.00  0.00     0.091 A 
ATOM      3  N   UNL d   1      61.606  44.773  50.196  0.00  0.00    -0.210 NA
ATOM      4  N   UNL d   1      61.291  44.417  51.554  0.00  0.00    -0.258 N 
ATOM      5  N   UNL d   1      61.492  46.131  49.777  0.00  0.00    -0.274 N 
ATOM      6  C   UNL d   1      61.068  47.139  50.694  0.00  0.00     0.094 A 
ATOM      7  C   UNL d   1      61.111  45.203  51.724  0.00  0.00     0.269 A 
ATOM      8  C   UNL d   1      61.314  46.921  49.937  0.00  0.00     0.175 A 
ATOM      9  C   UNL d   1      61.541  44.197  50.786  0.00  0.00     0.152 A 
ATOM     10  C   UNL d   1      60.998  46.569  51.294  0.00  0.00     0.016 A 
ATOM     11  C   UNL d   1      61.225  43.841  52.144  0.00  0.00     0.084 A 
ATOM     12  C   UNL d   1      61.719  43.412  50.620  0.00  0.00     0.038 A 
ATOM     13  N   UNL d   1      61.381  47.496  49.344  0.00  0.00    -0.128 N 
ATOM     14  C   UNL d   1      61.405  43.056  51.973  0.00  0.00     0.018 A 
ATOM     15  C   UNL d   1      61.655  42.840  51.204  0.00  0.00     0.005 A 
ATOM     16  O   UNL d   1      60.864  45.423  52.480  0.00  0.00    -0.266 OA
ATOM     17  C   UNL d   1      61.343  42.473  52.556  0.00  0.00     0.002 C 
ENDROOT
BRANCH   6  18
ATOM     18  C   UNL d   1      60.889  47.922  50.861  0.00  0.00     0.282 C 
ATOM     19  O   UNL d   1      61.489  48.486  50.913  0.00  0.00    -0.265 OA
ATOM     20  N   UNL d   1      60.106  48.151  50.977  0.00  0.00    -0.206 NA
BRANCH  20  21
ATOM     21  C   UNL d   1      59.914  48.935  51.146  0.00  0.00     0.104 C 
BRANCH  21  22
ATOM     22  C   UNL d   1      59.273  49.301  50.782  0.00  0.00     0.047 C 
BRANCH  22  23
ATOM     23  C   UNL d   1      58.656  49.594  51.245  0.00  0.00     0.118 C 
BRANCH  23  24
ATOM     24  O   UNL d   1      57.899  49.688  50.924  0.00  0.00    -0.326 OA
ATOM     25  C   UNL d   1      57.579  49.111  50.429  0.00  0.00     0.181 C 
ENDBRANCH  23  24
ENDBRANCH  22  23
ENDBRANCH  21  22
ENDBRANCH  20  21
ENDBRANCH   6  18
BRANCH   5  26
ATOM     26  C   UNL d   1      61.738  45.918  49.019  0.00  0.00     0.083 C 
BRANCH  26  27
ATOM     27  C   UNL d   1      62.470  45.553  48.902  0.00  0.00     0.019 C 
ATOM     28  C   UNL d   1      63.157  46.008  48.839  0.00  0.00     0.002 C 
ENDBRANCH  26  27
ENDBRANCH   5  26
TORSDOF 7
ENDMDL
MODEL 2
REMARK VINA RESULT:     110.3      1.247      1.685
REMARK  7 active torsions:
REMARK  status: ('A' for Active; 'I' for Inactive)
REMARK    1  A    between atoms: C_19  and  N_5 
REMARK    2  A    between atoms: C_12  and  C_6 
REMARK       I    between atoms: N_20  and  C_12 
REMARK    3  A    between atoms: C_21  and  C_19 
REMARK    4  A    between atoms: C_26  and  N_20 
REMARK    5  A    between atoms: C_23  and  C_26 
REMARK    6  A    between atoms: C_27  and  C_23 
REMARK    7  A    between atoms: O_24  and  C_27 
ROOT
ATOM      1  C   UNL d   1      61.944  44.430  50.207  0.00  0.00     0.155 A 
ATOM      2  C   UNL d   1      61.602  44.412  50.958  0.00  0.00     0.091 A 
ATOM      3  N   UNL d   1      62.362  43.779  49.928  0.00  0.00    -0.210 NA
ATOM      4  N   UNL d   1      62.093  43.090  51.162  0.00  0.00    -0.258 N 
ATOM      5  N   UNL d   1      61.867  45.101  49.734  0.00  0.00    -0.274 N 
ATOM      6  C   UNL d   1      61.106  45.746  50.754  0.00  0.00     0.094 A 
ATOM      7  C   UNL d   1      61.674  43.742  51.441  0.00  0.00     0.269 A 
ATOM      8  C   UNL d   1      61.449  45.760  50.004  0.00  0.00     0.175 A 
ATOM      9  C   UNL d   1      62.441  43.105  50.401  0.00  0.00     0.152 A 
ATOM     10  C   UNL d   1      61.178  45.076  51.238  0.00  0.00     0.016 A 
ATOM     11  C   UNL d   1      62.171  42.416  51.636  0.00  0.00     0.084 A 
ATOM     12  C   UNL d   1      62.858  42.452  50.127  0.00  0.00     0.038 A 
ATOM     13  N   UNL d   1      61.372  46.434  49.528  0.00  0.00    -0.128 N 
ATOM     14  C   UNL d   1      62.590  41.764  51.357  0.00  0.00     0.018 A 
ATOM     15  C   UNL d   1      62.936  41.783  50.595  0.00  0.00     0.005 A 
ATOM     16  O   UNL d   1      61.329  43.732  52.191  0.00  0.00    -0.266 OA
ATOM     17  C   UNL d   1      62.673  41.087  51.822  0.00  0.00     0.002 C 
ENDROOT
BRANCH   6  18
ATOM     18  C   UNL d   1      60.689  46.398  51.030  0.00  0.00     0.282 C 
ATOM     19  O   UNL d   1      60.052  46.299  51.545  0.00  0.00    -0.265 OA
ATOM     20  N   UNL d   1      60.905  47.157  50.792  0.00  0.00    -0.206 NA
BRANCH  20  21
ATOM     21  C   UNL d   1      60.494  47.818  51.062  0.00  0.00     0.104 C 
BRANCH  21  22
ATOM     22  C   UNL d   1      60.886  48.523  51.224  0.00  0.00     0.047 C 
BRANCH  22  23
ATOM     23  C   UNL d   1      60.647  49.217  50.847  0.00  0.00     0.118 C 
BRANCH  23  24
ATOM     24  O   UNL d   1      60.815  49.338  50.046  0.00  0.00    -0.326 OA
ATOM     25  C   UNL d   1      60.264  49.708  49.555  0.00  0.00     0.181 C 
ENDBRANCH  23  24
ENDBRANCH  22  23
ENDBRANCH  21  22
ENDBRANCH  20  21
ENDBRANCH   6  18
BRANCH   5  26
ATOM     26  C   UNL d   1      62.208  45.119  48.984  0.00  0.00     0.083 C 
BRANCH  26  27
ATOM     27  C   UNL d   1      62.968  45.427  48.875  0.00  0.00     0.019 C 
ATOM     28  C   UNL d   1      63.082  46.244  48.828  0.00  0.00     0.002 C 
ENDBRANCH  26  27
ENDBRANCH   5  26
TORSDOF 7
ENDMDL
MODEL 3
REMARK VINA RESULT:     112.4      1.466      2.420
REMARK  7 active torsions:
REMARK  status: ('A' for Active; 'I' for Inactive)
REMARK    1  A    between atoms: C_19  and  N_5 
REMARK    2  A    between atoms: C_12  and  C_6 
REMARK       I    between atoms: N_20  and  C_12 
REMARK    3  A    between atoms: C_21  and  C_19 
REMARK    4  A    between atoms: C_26  and  N_20 
REMARK    5  A    between atoms: C_23  and  C_26 
REMARK    6  A    between atoms: C_27  and  C_23 
REMARK    7  A    between atoms: O_24  and  C_27 
ROOT
ATOM      1  C   UNL d   1      61.261  46.680  50.937  0.00  0.00     0.155 A 
ATOM      2  C   UNL d   1      60.974  46.792  50.172  0.00  0.00     0.091 A 
ATOM      3  N   UNL d   1      61.621  45.968  51.142  0.00  0.00    -0.210 NA
ATOM      4  N   UNL d   1      61.401  45.484  49.805  0.00  0.00    -0.258 N 
ATOM      5  N   UNL d   1      61.189  47.279  51.498  0.00  0.00    -0.274 N 
ATOM      6  C   UNL d   1      60.541  48.114  50.540  0.00  0.00     0.094 A 
ATOM      7  C   UNL d   1      61.041  46.196  49.600  0.00  0.00     0.269 A 
ATOM      8  C   UNL d   1      60.830  47.996  51.303  0.00  0.00     0.175 A 
ATOM      9  C   UNL d   1      61.695  45.365  50.580  0.00  0.00     0.152 A 
ATOM     10  C   UNL d   1      60.609  47.516  49.968  0.00  0.00     0.016 A 
ATOM     11  C   UNL d   1      61.475  44.881  49.243  0.00  0.00     0.084 A 
ATOM     12  C   UNL d   1      62.053  44.654  50.780  0.00  0.00     0.038 A 
ATOM     13  N   UNL d   1      60.758  48.598  51.868  0.00  0.00    -0.128 N 
ATOM     14  C   UNL d   1      61.835  44.170  49.448  0.00  0.00     0.018 A 
ATOM     15  C   UNL d   1      62.127  44.055  50.224  0.00  0.00     0.005 A 
ATOM     16  O   UNL d   1      60.751  46.316  48.837  0.00  0.00    -0.266 OA
ATOM     17  C   UNL d   1      61.912  43.562  48.893  0.00  0.00     0.002 C 
ENDROOT
BRANCH   6  18
ATOM     18  C   UNL d   1      60.182  48.824  50.339  0.00  0.00     0.282 C 
ATOM     19  O   UNL d   1      60.616  49.422  49.971  0.00  0.00    -0.265 OA
ATOM     20  N   UNL d   1      59.384  48.945  50.504  0.00  0.00    -0.206 NA
BRANCH  20  21
ATOM     21  C   UNL d   1      59.013  49.654  50.306  0.00  0.00     0.104 C 
BRANCH  21  22
ATOM     22  C   UNL d   1      58.212  49.676  50.121  0.00  0.00     0.047 C 
BRANCH  22  23
ATOM     23  C   UNL d   1      57.674  49.270  50.598  0.00  0.00     0.118 C 
BRANCH  23  24
ATOM     24  O   UNL d   1      56.999  48.923  50.268  0.00  0.00    -0.326 OA
ATOM     25  C   UNL d   1      56.284  49.334  50.249  0.00  0.00     0.181 C 
ENDBRANCH  23  24
ENDBRANCH  22  23
ENDBRANCH  21  22
ENDBRANCH  20  21
ENDBRANCH   6  18
BRANCH   5  26
ATOM     26  C   UNL d   1      61.477  47.166  52.263  0.00  0.00     0.083 C 
BRANCH  26  27
ATOM     27  C   UNL d   1      61.038  47.415  52.918  0.00  0.00     0.019 C 
ATOM     28  C   UNL d   1      61.330  47.301  53.682  0.00  0.00     0.002 C 
ENDBRANCH  26  27
ENDBRANCH   5  26
TORSDOF 7
ENDMDL
