MODEL 1
REMARK VINA RESULT:      73.7      0.000      0.000
REMARK  6 active torsions:
REMARK  status: ('A' for Active; 'I' for Inactive)
REMARK    1  A    between atoms: C_5  and  N_1 
REMARK    2  A    between atoms: C_2  and  C_4 
REMARK       I    between atoms: N_3  and  C_2 
REMARK    3  A    between atoms: C_7  and  N_3 
REMARK       I    between atoms: C_4  and  N_8 
REMARK    4  A    between atoms: C_10  and  C_5 
REMARK    5  A    between atoms: C_14  and  C_5 
REMARK    6  A    between atoms: N_8  and  C_10 
ROOT
ATOM      1  C   UNL d   1      59.347  49.695  51.334  0.00  0.00     0.085 C 
ENDROOT
BRANCH   1   2
ATOM      2  N   UNL d   1      58.552  49.682  51.061  0.00  0.00    -0.302 N 
ATOM      3  C   UNL d   1      58.388  49.647  50.253  0.00  0.00     0.080 A 
ATOM      4  C   UNL d   1      57.608  49.634  49.991  0.00  0.00     0.018 A 
ATOM      5  C   UNL d   1      57.443  49.600  49.179  0.00  0.00     0.002 A 
ATOM      6  C   UNL d   1      56.992  49.656  50.536  0.00  0.00     0.003 A 
ATOM      7  C   UNL d   1      56.662  49.586  48.909  0.00  0.00     0.000 A 
ATOM      8  C   UNL d   1      56.043  49.608  49.462  0.00  0.00     0.000 A 
ATOM      9  C   UNL d   1      56.207  49.643  50.275  0.00  0.00     0.000 A 
ATOM     10  C   UNL d   1      57.155  49.691  51.344  0.00  0.00     0.019 A 
ATOM     11  C   UNL d   1      57.935  49.704  51.607  0.00  0.00     0.080 A 
ENDBRANCH   1   2
BRANCH   1  12
ATOM     12  C   UNL d   1      59.970  49.705  50.793  0.00  0.00     0.120 C 
BRANCH  12  13
ATOM     13  N   UNL d   1      60.174  49.021  50.381  0.00  0.00    -0.201 NA
ATOM     14  C   UNL d   1      60.920  48.669  50.498  0.00  0.00     0.337 C 
ATOM     15  O   UNL d   1      61.455  49.008  51.030  0.00  0.00    -0.260 OA
BRANCH  14  16
ATOM     16  C   UNL d   1      61.123  47.987  50.087  0.00  0.00     0.337 C 
ATOM     17  N   UNL d   1      61.333  47.299  50.501  0.00  0.00    -0.202 NA
ATOM     18  O   UNL d   1      61.119  47.983  49.256  0.00  0.00    -0.260 OA
BRANCH  17  19
ATOM     19  C   UNL d   1      61.537  46.612  50.082  0.00  0.00     0.112 A 
ATOM     20  C   UNL d   1      61.176  45.894  50.270  0.00  0.00     0.160 A 
ATOM     21  C   UNL d   1      61.371  45.214  49.863  0.00  0.00     0.061 A 
ATOM     22  F   UNL d   1      60.603  45.855  50.883  0.00  0.00    -0.203 F 
ATOM     23  C   UNL d   1      61.937  45.245  49.255  0.00  0.00     0.142 A 
ATOM     24  C   UNL d   1      62.298  45.962  49.067  0.00  0.00     0.031 A 
ATOM     25  F   UNL d   1      62.134  44.548  48.842  0.00  0.00    -0.204 F 
ATOM     26  C   UNL d   1      62.094  46.649  49.486  0.00  0.00     0.024 A 
ENDBRANCH  17  19
ENDBRANCH  14  16
ENDBRANCH  12  13
ENDBRANCH   1  12
BRANCH   1  27
ATOM     27  C   UNL d   1      59.499  49.699  52.142  0.00  0.00     0.037 A 
ATOM     28  C   UNL d   1      58.874  49.703  52.678  0.00  0.00     0.100 A 
ATOM     29  N   UNL d   1      59.026  49.707  53.486  0.00  0.00    -0.242 NA
ATOM     30  C   UNL d   1      59.807  49.707  53.762  0.00  0.00     0.099 A 
ATOM     31  C   UNL d   1      60.434  49.703  53.227  0.00  0.00     0.021 A 
ATOM     32  C   UNL d   1      60.281  49.699  52.418  0.00  0.00     0.005 A 
ENDBRANCH   1  27
TORSDOF 6
ENDMDL
