MODEL 1
REMARK VINA RESULT:      77.0      0.000      0.000
REMARK  5 active torsions:
REMARK  status: ('A' for Active; 'I' for Inactive)
REMARK    1  A    between atoms: C_3  and  C_1 
REMARK    2  A    between atoms: C_7  and  C_3 
REMARK    3  A    between atoms: N_9  and  C_3 
REMARK    4  A    between atoms: C_17  and  C_8 
REMARK    5  A    between atoms: C_10  and  N_9 
ROOT
ATOM      1  C   UNL d   1     -55.575-100.205 -44.311  0.00  0.00     0.111 C 
ENDROOT
BRANCH   1   2
ATOM      2  C   UNL d   1     -56.281 -99.779 -44.443  0.00  0.00     0.160 A 
ATOM      3  C   UNL d   1     -56.457 -99.480 -45.191  0.00  0.00     0.258 A 
ATOM      4  C   UNL d   1     -57.165 -99.058 -45.302  0.00  0.00     0.238 A 
ATOM      5  O   UNL d   1     -55.938 -99.592 -45.845  0.00  0.00    -0.281 OA
ATOM      6  O   UNL d   1     -57.344 -98.755 -46.060  0.00  0.00    -0.283 OA
ATOM      7  C   UNL d   1     -57.693 -98.932 -44.680  0.00  0.00     0.073 A 
ATOM      8  C   UNL d   1     -57.517 -99.231 -43.933  0.00  0.00     0.146 A 
ATOM      9  O   UNL d   1     -56.815 -99.651 -43.819  0.00  0.00    -0.299 OA
BRANCH   8  10
ATOM     10  C   UNL d   1     -58.068 -99.091 -43.317  0.00  0.00     0.259 C 
ATOM     11  O   UNL d   1     -58.486 -99.715 -42.984  0.00  0.00    -0.281 OA
ENDBRANCH   8  10
ENDBRANCH   1   2
BRANCH   1  12
ATOM     12  C   UNL d   1     -55.557-101.023 -44.495  0.00  0.00     0.047 A 
ATOM     13  C   UNL d   1     -55.034-101.306 -45.066  0.00  0.00     0.142 A 
ATOM     14  F   UNL d   1     -54.711-101.010 -45.324  0.00  0.00    -0.204 F 
ATOM     15  C   UNL d   1     -55.005-102.108 -45.257  0.00  0.00     0.030 A 
ATOM     16  C   UNL d   1     -55.507-102.635 -44.871  0.00  0.00     0.002 A 
ATOM     17  C   UNL d   1     -56.029-102.352 -44.299  0.00  0.00     0.000 A 
ATOM     18  C   UNL d   1     -56.059-101.551 -44.108  0.00  0.00     0.004 A 
ENDBRANCH   1  12
BRANCH   1  19
ATOM     19  N   UNL d   1     -54.912 -99.832 -44.006  0.00  0.00    -0.225 NA
BRANCH  19  20
ATOM     20  C   UNL d   1     -54.845 -99.688 -43.182  0.00  0.00     0.163 A 
ATOM     21  N   UNL d   1     -54.844-100.309 -42.652  0.00  0.00    -0.225 NA
ATOM     22  C   UNL d   1     -54.779-100.170 -41.852  0.00  0.00     0.101 A 
ATOM     23  C   UNL d   1     -54.711 -99.381 -41.564  0.00  0.00     0.021 A 
ATOM     24  C   UNL d   1     -54.712 -98.760 -42.094  0.00  0.00     0.005 A 
ATOM     25  C   UNL d   1     -54.779 -98.900 -42.915  0.00  0.00     0.039 A 
ENDBRANCH  19  20
ENDBRANCH   1  19
TORSDOF 5
ENDMDL
