MODEL 1
REMARK VINA RESULT:       0.0      0.000      0.000
REMARK  5 active torsions:
REMARK  status: ('A' for Active; 'I' for Inactive)
REMARK    1  A    between atoms: C_11  and  N_1 
REMARK    2  A    between atoms: C_2  and  S_13 
REMARK       I    between atoms: C_12  and  N_14 
REMARK    3  A    between atoms: C_18  and  C_12 
REMARK    4  A    between atoms: S_13  and  C_18 
REMARK    5  A    between atoms: N_14  and  C_19 
ROOT
ATOM      1  C   UNL d   1      33.089  19.556 -24.335  0.00  0.00     0.286 C 
ATOM      2  N   UNL d   1      33.238  20.348 -24.158  0.00  0.00    -0.208 NA
ATOM      3  O   UNL d   1      33.233  19.270 -25.096  0.00  0.00    -0.265 OA
ENDROOT
BRANCH   1   4
ATOM      4  C   UNL d   1      32.794  19.051 -23.746  0.00  0.00     0.101 C 
BRANCH   4   5
ATOM      5  S   UNL d   1      32.842  18.230 -23.854  0.00  0.00    -0.037 SA
BRANCH   5   6
ATOM      6  C   UNL d   1      32.138  17.782 -23.886  0.00  0.00     0.215 A 
ATOM      7  N   UNL d   1      32.053  16.997 -23.634  0.00  0.00    -0.214 NA
ATOM      8  C   UNL d   1      31.268  16.771 -23.766  0.00  0.00     0.107 A 
ATOM      9  C   UNL d   1      30.871  16.065 -23.625  0.00  0.00     0.021 A 
ATOM     10  C   UNL d   1      30.875  17.410 -24.095  0.00  0.00     0.120 A 
ATOM     11  C   UNL d   1      30.071  15.999 -23.817  0.00  0.00     0.002 A 
ATOM     12  C   UNL d   1      29.671  16.641 -24.150  0.00  0.00     0.002 A 
ATOM     13  C   UNL d   1      30.076  17.352 -24.290  0.00  0.00     0.026 A 
ATOM     14  O   UNL d   1      31.406  18.040 -24.173  0.00  0.00    -0.283 OA
ENDBRANCH   5   6
ENDBRANCH   4   5
ENDBRANCH   1   4
BRANCH   2  15
ATOM     15  C   UNL d   1      33.096  20.636 -23.402  0.00  0.00     0.085 A 
ATOM     16  C   UNL d   1      32.989  21.458 -23.282  0.00  0.00     0.021 A 
ATOM     17  C   UNL d   1      32.848  21.741 -22.534  0.00  0.00     0.021 A 
ATOM     18  C   UNL d   1      32.808  21.231 -21.884  0.00  0.00     0.086 A 
ATOM     19  C   UNL d   1      32.914  20.422 -22.004  0.00  0.00     0.021 A 
ATOM     20  C   UNL d   1      33.058  20.125 -22.765  0.00  0.00     0.021 A 
BRANCH  18  21
ATOM     21  N   UNL d   1      32.666  21.518 -21.128  0.00  0.00    -0.189 N 
ATOM     22  N   UNL d   1      31.933  21.583 -20.758  0.00  0.00    -0.038 NA
ATOM     23  N   UNL d   1      32.055  21.898 -20.008  0.00  0.00    -0.022 NA
ATOM     24  N   UNL d   1      32.859  22.030 -19.907  0.00  0.00    -0.104 NA
ATOM     25  C   UNL d   1      33.239  21.794 -20.603  0.00  0.00     0.226 A 
ENDBRANCH  18  21
ENDBRANCH   2  15
TORSDOF 5
ENDMDL
MODEL 2
REMARK VINA RESULT:       0.1      2.247      4.855
REMARK  5 active torsions:
REMARK  status: ('A' for Active; 'I' for Inactive)
REMARK    1  A    between atoms: C_11  and  N_1 
REMARK    2  A    between atoms: C_2  and  S_13 
REMARK       I    between atoms: C_12  and  N_14 
REMARK    3  A    between atoms: C_18  and  C_12 
REMARK    4  A    between atoms: S_13  and  C_18 
REMARK    5  A    between atoms: N_14  and  C_19 
ROOT
ATOM      1  C   UNL d   1      33.029  21.833 -24.618  0.00  0.00     0.286 C 
ATOM      2  N   UNL d   1      32.831  21.190 -25.097  0.00  0.00    -0.208 NA
ATOM      3  O   UNL d   1      33.164  22.573 -24.959  0.00  0.00    -0.265 OA
ENDROOT
BRANCH   1   4
ATOM      4  C   UNL d   1      33.092  21.732 -23.797  0.00  0.00     0.101 C 
BRANCH   4   5
ATOM      5  S   UNL d   1      33.239  22.391 -23.317  0.00  0.00    -0.037 SA
BRANCH   5   6
ATOM      6  C   UNL d   1      33.050  22.354 -22.504  0.00  0.00     0.215 A 
ATOM      7  N   UNL d   1      32.649  22.937 -22.074  0.00  0.00    -0.214 NA
ATOM      8  C   UNL d   1      32.580  22.676 -21.292  0.00  0.00     0.107 A 
ATOM      9  C   UNL d   1      32.239  23.019 -20.629  0.00  0.00     0.021 A 
ATOM     10  C   UNL d   1      32.936  21.939 -21.243  0.00  0.00     0.120 A 
ATOM     11  C   UNL d   1      32.254  22.620 -19.906  0.00  0.00     0.002 A 
ATOM     12  C   UNL d   1      32.612  21.876 -19.852  0.00  0.00     0.002 A 
ATOM     13  C   UNL d   1      32.955  21.534 -20.525  0.00  0.00     0.026 A 
ATOM     14  O   UNL d   1      33.230  21.733 -21.988  0.00  0.00    -0.283 OA
ENDBRANCH   5   6
ENDBRANCH   4   5
ENDBRANCH   1   4
BRANCH   2  15
ATOM     15  C   UNL d   1      32.696  20.453 -24.761  0.00  0.00     0.085 A 
ATOM     16  C   UNL d   1      31.995  20.317 -24.323  0.00  0.00     0.021 A 
ATOM     17  C   UNL d   1      31.862  19.588 -23.991  0.00  0.00     0.021 A 
ATOM     18  C   UNL d   1      32.409  18.972 -24.078  0.00  0.00     0.086 A 
ATOM     19  C   UNL d   1      33.097  19.109 -24.510  0.00  0.00     0.021 A 
ATOM     20  C   UNL d   1      33.241  19.851 -24.852  0.00  0.00     0.021 A 
BRANCH  18  21
ATOM     21  N   UNL d   1      32.274  18.235 -23.743  0.00  0.00    -0.189 N 
ATOM     22  N   UNL d   1      31.540  17.893 -23.590  0.00  0.00    -0.038 NA
ATOM     23  N   UNL d   1      31.671  17.155 -23.253  0.00  0.00    -0.022 NA
ATOM     24  N   UNL d   1      32.481  17.033 -23.194  0.00  0.00    -0.104 NA
ATOM     25  C   UNL d   1      32.855  17.704 -23.498  0.00  0.00     0.226 A 
ENDBRANCH  18  21
ENDBRANCH   2  15
TORSDOF 5
ENDMDL
