MODEL 1
REMARK VINA RESULT:       3.6      0.000      0.000
REMARK  6 active torsions:
REMARK  status: ('A' for Active; 'I' for Inactive)
REMARK    1  A    between atoms: N_15  and  C_1 
REMARK    2  A    between atoms: C_21  and  N_6 
REMARK    3  A    between atoms: C_16  and  C_8 
REMARK    4  A    between atoms: C_9  and  S_17 
REMARK       I    between atoms: C_20  and  N_15 
REMARK    5  A    between atoms: S_17  and  C_23 
REMARK    6  A    between atoms: C_23  and  C_20 
ROOT
ATOM      1  C   UNL d   1      58.146  -5.660  29.101  0.00  0.00     0.099 C 
ENDROOT
BRANCH   1   2
ATOM      2  S   UNL d   1      58.051  -6.293  28.489  0.00  0.00    -0.064 SA
BRANCH   2   3
ATOM      3  C   UNL d   1      57.701  -7.078  28.483  0.00  0.00     0.096 A 
ATOM      4  N   UNL d   1      58.192  -7.740  28.484  0.00  0.00    -0.285 N 
ATOM      5  C   UNL d   1      57.850  -8.509  28.479  0.00  0.00     0.150 A 
ATOM      6  C   UNL d   1      59.509  -8.336  28.492  0.00  0.00     0.084 A 
ATOM      7  N   UNL d   1      58.339  -9.184  28.480  0.00  0.00    -0.227 NA
ATOM      8  C   UNL d   1      57.030  -8.592  28.472  0.00  0.00     0.056 A 
ATOM      9  C   UNL d   1      59.168  -9.104  28.487  0.00  0.00     0.099 A 
ATOM     10  C   UNL d   1      59.658  -9.766  28.488  0.00  0.00     0.021 A 
ATOM     11  C   UNL d   1      60.479  -9.683  28.495  0.00  0.00     0.002 A 
ATOM     12  C   UNL d   1      60.814  -8.926  28.500  0.00  0.00     0.002 A 
ATOM     13  C   UNL d   1      60.331  -8.252  28.499  0.00  0.00     0.019 A 
ATOM     14  C   UNL d   1      56.537  -7.915  28.471  0.00  0.00     0.006 A 
ATOM     15  C   UNL d   1      56.880  -7.162  28.476  0.00  0.00     0.025 A 
ATOM     16  C   UNL d   1      55.724  -8.002  28.464  0.00  0.00     0.000 C 
BRANCH   8  17
ATOM     17  C   UNL d   1      56.686  -9.345  28.466  0.00  0.00     0.125 C 
ATOM     18  N   UNL d   1      56.250  -9.566  29.136  0.00  0.00    -0.146 N 
ENDBRANCH   8  17
ENDBRANCH   2   3
ENDBRANCH   1   2
BRANCH   1  19
ATOM     19  C   UNL d   1      58.709  -5.001  28.958  0.00  0.00     0.286 C 
ATOM     20  N   UNL d   1      58.554  -4.208  29.314  0.00  0.00    -0.201 NA
ATOM     21  O   UNL d   1      59.429  -5.125  28.462  0.00  0.00    -0.265 OA
BRANCH  20  22
ATOM     22  C   UNL d   1      59.118  -3.539  29.173  0.00  0.00     0.160 A 
ATOM     23  C   UNL d   1      59.058  -2.733  29.176  0.00  0.00     0.298 A 
ATOM     24  N   UNL d   1      59.713  -2.284  29.017  0.00  0.00    -0.209 N 
ATOM     25  O   UNL d   1      58.356  -2.384  29.334  0.00  0.00    -0.263 OA
ATOM     26  N   UNL d   1      60.418  -2.630  28.857  0.00  0.00    -0.238 N 
ATOM     27  C   UNL d   1      60.475  -3.439  28.855  0.00  0.00     0.104 A 
ATOM     28  C   UNL d   1      61.066  -2.184  28.700  0.00  0.00     0.120 C 
ATOM     29  C   UNL d   1      61.127  -4.012  28.711  0.00  0.00     0.022 C 
BRANCH  24  30
ATOM     30  C   UNL d   1      59.652  -1.477  29.020  0.00  0.00     0.085 A 
ATOM     31  C   UNL d   1      60.047  -1.051  29.576  0.00  0.00     0.019 A 
ATOM     32  C   UNL d   1      59.987  -0.246  29.579  0.00  0.00     0.002 A 
ATOM     33  C   UNL d   1      59.529   0.122  29.021  0.00  0.00     0.000 A 
ATOM     34  C   UNL d   1      59.142  -0.319  28.473  0.00  0.00     0.002 A 
ATOM     35  C   UNL d   1      59.205  -1.117  28.474  0.00  0.00     0.019 A 
ENDBRANCH  24  30
ENDBRANCH  20  22
ENDBRANCH   1  19
TORSDOF 6
ENDMDL
