MODEL 1
REMARK VINA RESULT:      42.6      0.000      0.000
REMARK  4 active torsions:
REMARK  status: ('A' for Active; 'I' for Inactive)
REMARK    1  A    between atoms: S_2  and  N_1 
REMARK    2  A    between atoms: N_6  and  S_2 
REMARK    3  A    between atoms: C_10  and  C_3 
REMARK    4  A    between atoms: C_11  and  C_10 
ROOT
ATOM      1  N   UNL d   1      13.798  13.194  -2.872  0.00  0.00    -0.201 N 
ATOM      2  C   UNL d   1      13.856  14.010  -3.058  0.00  0.00     0.158 A 
ATOM      3  N   UNL d   1      13.564  14.113  -3.827  0.00  0.00    -0.226 NA
ATOM      4  C   UNL d   1      13.473  12.814  -3.524  0.00  0.00     0.095 A 
ATOM      5  C   UNL d   1      13.329  13.377  -4.112  0.00  0.00     0.100 A 
ATOM      6  C   UNL d   1      13.292  12.021  -3.653  0.00  0.00     0.020 A 
ATOM      7  C   UNL d   1      13.001  13.139  -4.830  0.00  0.00     0.021 A 
ATOM      8  C   UNL d   1      12.964  11.782  -4.371  0.00  0.00     0.002 A 
ATOM      9  C   UNL d   1      12.817  12.343  -4.964  0.00  0.00     0.002 A 
ENDROOT
BRANCH   1  10
ATOM     10  S   UNL d   1      14.024  12.845  -2.170  0.00  0.00     0.338 S 
ATOM     11  O   UNL d   1      13.249  12.883  -1.893  0.00  0.00    -0.181 OA
ATOM     12  O   UNL d   1      14.800  12.806  -2.444  0.00  0.00    -0.181 OA
BRANCH  10  13
ATOM     13  N   UNL d   1      14.263  12.492  -1.466  0.00  0.00    -0.216 N 
ATOM     14  C   UNL d   1      15.038  12.218  -1.385  0.00  0.00     0.093 A 
ATOM     15  C   UNL d   1      15.276  11.867  -0.685  0.00  0.00     0.020 A 
ATOM     16  C   UNL d   1      14.755  11.784  -0.061  0.00  0.00     0.003 A 
ATOM     17  C   UNL d   1      13.978  12.055  -0.133  0.00  0.00     0.020 A 
ATOM     18  C   UNL d   1      13.732  12.413  -0.843  0.00  0.00     0.093 A 
ENDBRANCH  10  13
ENDBRANCH   1  10
BRANCH   2  19
ATOM     19  C   UNL d   1      14.153  14.600  -2.560  0.00  0.00     0.038 C 
BRANCH  19  20
ATOM     20  C   UNL d   1      14.408  15.312  -2.885  0.00  0.00     0.003 A 
ATOM     21  C   UNL d   1      14.725  15.894  -2.390  0.00  0.00     0.000 A 
ATOM     22  C   UNL d   1      14.980  16.605  -2.713  0.00  0.00     0.000 A 
ATOM     23  C   UNL d   1      14.924  16.741  -3.517  0.00  0.00     0.000 A 
ATOM     24  C   UNL d   1      14.606  16.155  -4.015  0.00  0.00     0.000 A 
ATOM     25  C   UNL d   1      14.349  15.440  -3.692  0.00  0.00     0.000 A 
ENDBRANCH  19  20
ENDBRANCH   2  19
TORSDOF 4
ENDMDL
