MODEL 1
REMARK VINA RESULT:      24.3      0.000      0.000
REMARK  4 active torsions:
REMARK  status: ('A' for Active; 'I' for Inactive)
REMARK    1  A    between atoms: C_3  and  S_1 
REMARK    2  A    between atoms: N_5  and  S_1 
REMARK    3  A    between atoms: C_11  and  N_5 
REMARK    4  A    between atoms: C_21  and  N_5 
ROOT
ATOM      1  N   UNL d   1      46.343 -18.902  43.144  0.00  0.00    -0.273 N 
ATOM      2  C   UNL d   1      46.084 -16.589  43.953  0.00  0.00     0.104 A 
ATOM      3  C   UNL d   1      46.257 -18.134  43.410  0.00  0.00     0.067 A 
ATOM      4  C   UNL d   1      46.250 -17.984  44.218  0.00  0.00     0.017 A 
ATOM      5  C   UNL d   1      46.178 -17.513  42.873  0.00  0.00     0.017 A 
ATOM      6  C   UNL d   1      46.422 -19.523  43.682  0.00  0.00     0.265 A 
ATOM      7  C   UNL d   1      46.163 -17.210  44.491  0.00  0.00     0.014 A 
ATOM      8  C   UNL d   1      46.092 -16.743  43.143  0.00  0.00     0.014 A 
ATOM      9  C   UNL d   1      46.329 -18.605  44.756  0.00  0.00     0.006 A 
ATOM     10  C   UNL d   1      46.415 -19.375  44.486  0.00  0.00     0.061 A 
ATOM     11  O   UNL d   1      46.510 -20.309  43.407  0.00  0.00    -0.267 OA
ATOM     12  C   UNL d   1      46.351 -19.055  42.333  0.00  0.00     0.083 A 
ATOM     13  C   UNL d   1      46.186 -17.661  42.069  0.00  0.00     0.003 A 
ATOM     14  C   UNL d   1      46.272 -18.435  41.795  0.00  0.00     0.019 A 
ENDROOT
BRANCH   2  15
ATOM     15  S   UNL d   1      45.997 -15.812  44.231  0.00  0.00     0.271 S 
ATOM     16  O   UNL d   1      46.483 -15.529  43.621  0.00  0.00    -0.200 OA
ATOM     17  O   UNL d   1      45.509 -16.091  44.844  0.00  0.00    -0.200 OA
BRANCH  15  18
ATOM     18  N   UNL d   1      45.908 -15.030  44.513  0.00  0.00    -0.231 N 
BRANCH  18  19
ATOM     19  C   UNL d   1      45.224 -14.605  44.353  0.00  0.00     0.075 A 
ATOM     20  C   UNL d   1      45.278 -13.882  43.958  0.00  0.00     0.018 A 
ATOM     21  C   UNL d   1      44.603 -13.451  43.794  0.00  0.00     0.002 A 
ATOM     22  C   UNL d   1      44.658 -12.720  43.395  0.00  0.00     0.000 C 
ATOM     23  C   UNL d   1      43.865 -13.740  44.025  0.00  0.00     0.000 A 
ATOM     24  C   UNL d   1      43.811 -14.463  44.419  0.00  0.00     0.002 A 
ATOM     25  C   UNL d   1      44.495 -14.888  44.579  0.00  0.00     0.018 A 
ENDBRANCH  18  19
BRANCH  18  26
ATOM     26  C   UNL d   1      46.508 -14.680  44.955  0.00  0.00     0.092 C 
ATOM     27  C   UNL d   1      46.647 -13.869  44.894  0.00  0.00     0.021 C 
ENDBRANCH  18  26
ENDBRANCH  15  18
ENDBRANCH   2  15
TORSDOF 4
ENDMDL
