MODEL 1
REMARK VINA RESULT:      31.5      0.000      0.000
REMARK  1 active torsions:
REMARK  status: ('A' for Active; 'I' for Inactive)
REMARK    1  A    between atoms: C_7  and  N_1 
ROOT
ATOM      1  N   UNL d   1      14.215  13.101  -2.116  0.00  0.00    -0.259 N 
ATOM      2  C   UNL d   1      14.365  13.923  -2.057  0.00  0.00     0.267 A 
ATOM      3  C   UNL d   1      14.425  12.588  -1.502  0.00  0.00     0.150 A 
ATOM      4  N   UNL d   1      14.790  12.892  -0.817  0.00  0.00    -0.228 NA
ATOM      5  C   UNL d   1      14.728  14.217  -1.373  0.00  0.00     0.074 A 
ATOM      6  C   UNL d   1      14.941  13.698  -0.753  0.00  0.00     0.088 A 
ATOM      7  O   UNL d   1      14.153  14.428  -2.672  0.00  0.00    -0.267 OA
ATOM      8  C   UNL d   1      14.275  11.779  -1.563  0.00  0.00     0.041 C 
ATOM      9  C   UNL d   1      14.877  15.024  -1.314  0.00  0.00     0.006 A 
ATOM     10  C   UNL d   1      15.303  14.009  -0.077  0.00  0.00     0.019 A 
ATOM     11  C   UNL d   1      15.239  15.320  -0.634  0.00  0.00     0.000 A 
ATOM     12  C   UNL d   1      15.451  14.815  -0.018  0.00  0.00     0.002 A 
ENDROOT
BRANCH   1  13
ATOM     13  C   UNL d   1      13.854  12.800  -2.790  0.00  0.00     0.068 A 
ATOM     14  C   UNL d   1      13.450  12.076  -2.759  0.00  0.00     0.020 A 
ATOM     15  C   UNL d   1      13.091  11.780  -3.441  0.00  0.00     0.031 A 
ATOM     16  C   UNL d   1      13.130  12.195  -4.150  0.00  0.00     0.140 A 
ATOM     17  C   UNL d   1      13.533  12.915  -4.175  0.00  0.00     0.031 A 
ATOM     18  F   UNL d   1      12.769  11.894  -4.824  0.00  0.00    -0.204 F 
ATOM     19  C   UNL d   1      13.893  13.214  -3.497  0.00  0.00     0.020 A 
ENDBRANCH   1  13
TORSDOF 1
ENDMDL
