MODEL 1
REMARK VINA RESULT:      -6.8      0.000      0.000
REMARK  6 active torsions:
REMARK  status: ('A' for Active; 'I' for Inactive)
REMARK    1  A    between atoms: C_2  and  S_1 
REMARK    2  A    between atoms: C_13  and  S_1 
REMARK    3  A    between atoms: C_5  and  C_3 
REMARK    4  A    between atoms: C_16  and  C_5 
REMARK    5  A    between atoms: O_30  and  C_24 
REMARK    6  A    between atoms: C_33  and  O_30 
ROOT
ATOM      1  C   UNL d   1      52.641  33.424  53.395  0.00  0.00     0.094 A 
ATOM      2  C   UNL d   1      52.989  32.681  53.324  0.00  0.00     0.069 A 
ATOM      3  C   UNL d   1      52.978  33.989  53.889  0.00  0.00     0.031 A 
ATOM      4  C   UNL d   1      53.664  33.811  54.314  0.00  0.00     0.084 A 
ATOM      5  C   UNL d   1      52.630  34.732  53.961  0.00  0.00     0.029 A 
ATOM      6  N   UNL d   1      54.011  33.069  54.243  0.00  0.00    -0.244 NA
ATOM      7  C   UNL d   1      53.674  32.503  53.749  0.00  0.00     0.103 A 
ATOM      8  C   UNL d   1      54.000  34.377  54.808  0.00  0.00     0.046 A 
ATOM      9  C   UNL d   1      52.967  35.297  54.455  0.00  0.00     0.123 A 
ATOM     10  C   UNL d   1      53.653  35.119  54.879  0.00  0.00     0.124 A 
ATOM     11  O   UNL d   1      52.619  36.040  54.526  0.00  0.00    -0.301 OA
ATOM     12  O   UNL d   1      53.990  35.685  55.374  0.00  0.00    -0.301 OA
ATOM     13  C   UNL d   1      52.956  36.617  55.025  0.00  0.00     0.149 A 
ATOM     14  C   UNL d   1      53.642  36.439  55.450  0.00  0.00     0.149 A 
ENDROOT
BRANCH   1  15
ATOM     15  S   UNL d   1      51.956  33.606  52.973  0.00  0.00     0.210 S 
ATOM     16  O   UNL d   1      52.411  33.828  52.322  0.00  0.00    -0.217 OA
ATOM     17  O   UNL d   1      51.501  33.383  53.624  0.00  0.00    -0.217 OA
BRANCH  15  18
ATOM     18  C   UNL d   1      51.266  33.785  52.557  0.00  0.00     0.088 A 
ATOM     19  C   UNL d   1      50.532  33.668  52.907  0.00  0.00     0.013 A 
ATOM     20  C   UNL d   1      49.841  33.849  52.485  0.00  0.00     0.025 A 
ATOM     21  C   UNL d   1      49.892  34.145  51.718  0.00  0.00     0.100 A 
ATOM     22  C   UNL d   1      50.622  34.262  51.367  0.00  0.00     0.025 A 
ATOM     23  C   UNL d   1      51.317  34.080  51.791  0.00  0.00     0.013 A 
BRANCH  21  24
ATOM     24  O   UNL d   1      49.198  34.327  51.295  0.00  0.00    -0.305 OA
BRANCH  24  25
ATOM     25  C   UNL d   1      48.701  34.930  51.555  0.00  0.00     0.123 C 
ATOM     26  C   UNL d   1      48.004  35.092  51.147  0.00  0.00     0.029 C 
ENDBRANCH  24  25
ENDBRANCH  21  24
ENDBRANCH  15  18
ENDBRANCH   1  15
BRANCH   2  27
ATOM     27  C   UNL d   1      52.652  32.104  52.825  0.00  0.00     0.198 C 
ATOM     28  O   UNL d   1      52.285  32.337  52.123  0.00  0.00    -0.286 OA
BRANCH  27  29
ATOM     29  C   UNL d   1      52.687  31.307  53.033  0.00  0.00     0.039 A 
ATOM     30  C   UNL d   1      52.043  30.941  53.409  0.00  0.00     0.003 A 
ATOM     31  C   UNL d   1      52.077  30.143  53.618  0.00  0.00     0.000 A 
ATOM     32  C   UNL d   1      52.752  29.699  53.455  0.00  0.00     0.000 A 
ATOM     33  C   UNL d   1      53.404  30.073  53.073  0.00  0.00     0.000 A 
ATOM     34  C   UNL d   1      52.792  28.902  53.661  0.00  0.00     0.000 C 
ATOM     35  C   UNL d   1      53.374  30.868  52.863  0.00  0.00     0.003 A 
ENDBRANCH  27  29
ENDBRANCH   2  27
TORSDOF 6
ENDMDL
MODEL 2
REMARK VINA RESULT:      -5.5      1.111      3.900
REMARK  6 active torsions:
REMARK  status: ('A' for Active; 'I' for Inactive)
REMARK    1  A    between atoms: C_2  and  S_1 
REMARK    2  A    between atoms: C_13  and  S_1 
REMARK    3  A    between atoms: C_5  and  C_3 
REMARK    4  A    between atoms: C_16  and  C_5 
REMARK    5  A    between atoms: O_30  and  C_24 
REMARK    6  A    between atoms: C_33  and  O_30 
ROOT
ATOM      1  C   UNL d   1      52.650  33.488  53.303  0.00  0.00     0.094 A 
ATOM      2  C   UNL d   1      52.138  33.952  52.855  0.00  0.00     0.069 A 
ATOM      3  C   UNL d   1      53.194  33.846  53.806  0.00  0.00     0.031 A 
ATOM      4  C   UNL d   1      53.227  34.669  53.861  0.00  0.00     0.084 A 
ATOM      5  C   UNL d   1      53.705  33.382  54.255  0.00  0.00     0.029 A 
ATOM      6  N   UNL d   1      52.716  35.133  53.413  0.00  0.00    -0.244 NA
ATOM      7  C   UNL d   1      52.172  34.775  52.909  0.00  0.00     0.103 A 
ATOM      8  C   UNL d   1      53.772  35.027  54.364  0.00  0.00     0.046 A 
ATOM      9  C   UNL d   1      54.249  33.740  54.757  0.00  0.00     0.123 A 
ATOM     10  C   UNL d   1      54.283  34.563  54.812  0.00  0.00     0.124 A 
ATOM     11  O   UNL d   1      54.761  33.276  55.206  0.00  0.00    -0.301 OA
ATOM     12  O   UNL d   1      54.827  34.921  55.316  0.00  0.00    -0.301 OA
ATOM     13  C   UNL d   1      55.315  33.633  55.718  0.00  0.00     0.149 A 
ATOM     14  C   UNL d   1      55.348  34.457  55.772  0.00  0.00     0.149 A 
ENDROOT
BRANCH   1  15
ATOM     15  S   UNL d   1      52.620  32.665  53.251  0.00  0.00     0.210 S 
ATOM     16  O   UNL d   1      53.132  32.683  52.605  0.00  0.00    -0.217 OA
ATOM     17  O   UNL d   1      52.107  32.647  53.897  0.00  0.00    -0.217 OA
BRANCH  15  18
ATOM     18  C   UNL d   1      52.584  31.842  53.205  0.00  0.00     0.088 A 
ATOM     19  C   UNL d   1      51.979  31.435  53.582  0.00  0.00     0.013 A 
ATOM     20  C   UNL d   1      51.946  30.607  53.533  0.00  0.00     0.025 A 
ATOM     21  C   UNL d   1      52.521  30.196  53.109  0.00  0.00     0.100 A 
ATOM     22  C   UNL d   1      53.126  30.600  52.733  0.00  0.00     0.025 A 
ATOM     23  C   UNL d   1      53.158  31.432  52.782  0.00  0.00     0.013 A 
BRANCH  21  24
ATOM     24  O   UNL d   1      52.488  29.365  53.061  0.00  0.00    -0.305 OA
BRANCH  24  25
ATOM     25  C   UNL d   1      52.554  28.909  53.743  0.00  0.00     0.123 C 
ATOM     26  C   UNL d   1      53.153  28.347  53.804  0.00  0.00     0.029 C 
ENDBRANCH  24  25
ENDBRANCH  21  24
ENDBRANCH  15  18
ENDBRANCH   1  15
BRANCH   2  27
ATOM     27  C   UNL d   1      51.585  33.595  52.343  0.00  0.00     0.198 C 
ATOM     28  O   UNL d   1      51.783  32.896  51.952  0.00  0.00    -0.286 OA
BRANCH  27  29
ATOM     29  C   UNL d   1      50.844  33.941  52.231  0.00  0.00     0.039 A 
ATOM     30  C   UNL d   1      50.346  34.091  52.878  0.00  0.00     0.003 A 
ATOM     31  C   UNL d   1      49.605  34.436  52.767  0.00  0.00     0.000 A 
ATOM     32  C   UNL d   1      49.349  34.637  52.008  0.00  0.00     0.000 A 
ATOM     33  C   UNL d   1      49.857  34.483  51.353  0.00  0.00     0.000 A 
ATOM     34  C   UNL d   1      48.611  34.982  51.891  0.00  0.00     0.000 C 
ATOM     35  C   UNL d   1      50.596  34.139  51.460  0.00  0.00     0.003 A 
ENDBRANCH  27  29
ENDBRANCH   2  27
TORSDOF 6
ENDMDL
MODEL 3
REMARK VINA RESULT:      -4.7      0.892      3.825
REMARK  6 active torsions:
REMARK  status: ('A' for Active; 'I' for Inactive)
REMARK    1  A    between atoms: C_2  and  S_1 
REMARK    2  A    between atoms: C_13  and  S_1 
REMARK    3  A    between atoms: C_5  and  C_3 
REMARK    4  A    between atoms: C_16  and  C_5 
REMARK    5  A    between atoms: O_30  and  C_24 
REMARK    6  A    between atoms: C_33  and  O_30 
ROOT
ATOM      1  C   UNL d   1      52.884  33.028  53.265  0.00  0.00     0.094 A 
ATOM      2  C   UNL d   1      53.466  33.568  53.486  0.00  0.00     0.069 A 
ATOM      3  C   UNL d   1      53.025  32.221  53.337  0.00  0.00     0.031 A 
ATOM      4  C   UNL d   1      53.748  31.952  53.630  0.00  0.00     0.084 A 
ATOM      5  C   UNL d   1      52.443  31.681  53.116  0.00  0.00     0.029 A 
ATOM      6  N   UNL d   1      54.330  32.490  53.851  0.00  0.00    -0.244 NA
ATOM      7  C   UNL d   1      54.189  33.299  53.779  0.00  0.00     0.103 A 
ATOM      8  C   UNL d   1      53.889  31.144  53.702  0.00  0.00     0.046 A 
ATOM      9  C   UNL d   1      52.584  30.874  53.188  0.00  0.00     0.123 A 
ATOM     10  C   UNL d   1      53.308  30.605  53.481  0.00  0.00     0.124 A 
ATOM     11  O   UNL d   1      52.003  30.334  52.967  0.00  0.00    -0.301 OA
ATOM     12  O   UNL d   1      53.448  29.797  53.553  0.00  0.00    -0.301 OA
ATOM     13  C   UNL d   1      52.139  29.515  53.037  0.00  0.00     0.149 A 
ATOM     14  C   UNL d   1      52.863  29.246  53.331  0.00  0.00     0.149 A 
ENDROOT
BRANCH   1  15
ATOM     15  S   UNL d   1      52.160  33.293  52.971  0.00  0.00     0.210 S 
ATOM     16  O   UNL d   1      52.485  33.357  52.215  0.00  0.00    -0.217 OA
ATOM     17  O   UNL d   1      51.835  33.230  53.727  0.00  0.00    -0.217 OA
BRANCH  15  18
ATOM     18  C   UNL d   1      51.433  33.558  52.685  0.00  0.00     0.088 A 
ATOM     19  C   UNL d   1      51.366  33.816  51.908  0.00  0.00     0.013 A 
ATOM     20  C   UNL d   1      50.633  34.081  51.623  0.00  0.00     0.025 A 
ATOM     21  C   UNL d   1      49.976  34.086  52.119  0.00  0.00     0.100 A 
ATOM     22  C   UNL d   1      50.039  33.829  52.894  0.00  0.00     0.025 A 
ATOM     23  C   UNL d   1      50.776  33.562  53.180  0.00  0.00     0.013 A 
BRANCH  21  24
ATOM     24  O   UNL d   1      49.240  34.352  51.833  0.00  0.00    -0.305 OA
BRANCH  24  25
ATOM     25  C   UNL d   1      49.125  34.460  51.026  0.00  0.00     0.123 C 
ATOM     26  C   UNL d   1      48.386  34.692  50.745  0.00  0.00     0.029 C 
ENDBRANCH  24  25
ENDBRANCH  21  24
ENDBRANCH  15  18
ENDBRANCH   1  15
BRANCH   2  27
ATOM     27  C   UNL d   1      53.329  34.388  53.415  0.00  0.00     0.198 C 
ATOM     28  O   UNL d   1      53.211  34.718  52.668  0.00  0.00    -0.286 OA
BRANCH  27  29
ATOM     29  C   UNL d   1      53.312  34.863  54.089  0.00  0.00     0.039 A 
ATOM     30  C   UNL d   1      53.525  34.553  54.829  0.00  0.00     0.003 A 
ATOM     31  C   UNL d   1      53.509  35.028  55.504  0.00  0.00     0.000 A 
ATOM     32  C   UNL d   1      53.280  35.819  55.451  0.00  0.00     0.000 A 
ATOM     33  C   UNL d   1      53.064  36.131  54.698  0.00  0.00     0.000 A 
ATOM     34  C   UNL d   1      53.261  36.298  56.121  0.00  0.00     0.000 C 
ATOM     35  C   UNL d   1      53.080  35.660  54.023  0.00  0.00     0.003 A 
ENDBRANCH  27  29
ENDBRANCH   2  27
TORSDOF 6
ENDMDL
MODEL 4
REMARK VINA RESULT:      -4.4      1.533      4.326
REMARK  6 active torsions:
REMARK  status: ('A' for Active; 'I' for Inactive)
REMARK    1  A    between atoms: C_2  and  S_1 
REMARK    2  A    between atoms: C_13  and  S_1 
REMARK    3  A    between atoms: C_5  and  C_3 
REMARK    4  A    between atoms: C_16  and  C_5 
REMARK    5  A    between atoms: O_30  and  C_24 
REMARK    6  A    between atoms: C_33  and  O_30 
ROOT
ATOM      1  C   UNL d   1      52.800  33.196  53.218  0.00  0.00     0.094 A 
ATOM      2  C   UNL d   1      53.490  33.618  53.367  0.00  0.00     0.069 A 
ATOM      3  C   UNL d   1      52.112  33.595  53.006  0.00  0.00     0.031 A 
ATOM      4  C   UNL d   1      52.114  34.418  52.944  0.00  0.00     0.084 A 
ATOM      5  C   UNL d   1      51.421  33.172  52.857  0.00  0.00     0.029 A 
ATOM      6  N   UNL d   1      52.804  34.841  53.093  0.00  0.00    -0.244 NA
ATOM      7  C   UNL d   1      53.492  34.442  53.305  0.00  0.00     0.103 A 
ATOM      8  C   UNL d   1      51.425  34.817  52.732  0.00  0.00     0.046 A 
ATOM      9  C   UNL d   1      50.734  33.571  52.645  0.00  0.00     0.123 A 
ATOM     10  C   UNL d   1      50.736  34.394  52.583  0.00  0.00     0.124 A 
ATOM     11  O   UNL d   1      50.043  33.148  52.496  0.00  0.00    -0.301 OA
ATOM     12  O   UNL d   1      50.047  34.793  52.371  0.00  0.00    -0.301 OA
ATOM     13  C   UNL d   1      49.343  33.546  52.281  0.00  0.00     0.149 A 
ATOM     14  C   UNL d   1      49.345  34.370  52.218  0.00  0.00     0.149 A 
ENDROOT
BRANCH   1  15
ATOM     15  S   UNL d   1      52.794  32.373  53.279  0.00  0.00     0.210 S 
ATOM     16  O   UNL d   1      53.049  32.309  52.497  0.00  0.00    -0.217 OA
ATOM     17  O   UNL d   1      52.539  32.437  54.061  0.00  0.00    -0.217 OA
BRANCH  15  18
ATOM     18  C   UNL d   1      52.785  31.551  53.348  0.00  0.00     0.088 A 
ATOM     19  C   UNL d   1      52.950  31.081  52.694  0.00  0.00     0.013 A 
ATOM     20  C   UNL d   1      52.940  30.255  52.767  0.00  0.00     0.025 A 
ATOM     21  C   UNL d   1      52.767  29.907  53.493  0.00  0.00     0.100 A 
ATOM     22  C   UNL d   1      52.603  30.373  54.147  0.00  0.00     0.025 A 
ATOM     23  C   UNL d   1      52.612  31.203  54.073  0.00  0.00     0.013 A 
BRANCH  21  24
ATOM     24  O   UNL d   1      52.757  29.078  53.567  0.00  0.00    -0.305 OA
BRANCH  24  25
ATOM     25  C   UNL d   1      52.970  28.724  54.279  0.00  0.00     0.123 C 
ATOM     26  C   UNL d   1      53.458  28.060  54.276  0.00  0.00     0.029 C 
ENDBRANCH  24  25
ENDBRANCH  21  24
ENDBRANCH  15  18
ENDBRANCH   1  15
BRANCH   2  27
ATOM     27  C   UNL d   1      54.191  33.220  53.582  0.00  0.00     0.198 C 
ATOM     28  O   UNL d   1      54.464  32.596  53.116  0.00  0.00    -0.286 OA
BRANCH  27  29
ATOM     29  C   UNL d   1      54.606  33.449  54.257  0.00  0.00     0.039 A 
ATOM     30  C   UNL d   1      54.275  33.347  55.011  0.00  0.00     0.003 A 
ATOM     31  C   UNL d   1      54.689  33.577  55.687  0.00  0.00     0.000 A 
ATOM     32  C   UNL d   1      55.441  33.911  55.620  0.00  0.00     0.000 A 
ATOM     33  C   UNL d   1      55.775  34.014  54.853  0.00  0.00     0.000 A 
ATOM     34  C   UNL d   1      55.860  34.142  56.291  0.00  0.00     0.000 C 
ATOM     35  C   UNL d   1      55.364  33.786  54.178  0.00  0.00     0.003 A 
ENDBRANCH  27  29
ENDBRANCH   2  27
TORSDOF 6
ENDMDL
