MODEL 1
REMARK VINA RESULT:      24.7      0.000      0.000
REMARK  5 active torsions:
REMARK  status: ('A' for Active; 'I' for Inactive)
REMARK    1  A    between atoms: N_2  and  S_1 
REMARK    2  A    between atoms: C_4  and  S_1 
REMARK    3  A    between atoms: C_3  and  N_2 
REMARK    4  A    between atoms: N_7  and  C_3 
REMARK    5  A    between atoms: C_12  and  N_7 
ROOT
ATOM      1  S   UNL d   1      13.790  11.820  -2.824  0.00  0.00     0.287 S 
ATOM      2  O   UNL d   1      14.498  11.791  -3.253  0.00  0.00    -0.198 OA
ATOM      3  O   UNL d   1      13.088  11.849  -2.379  0.00  0.00    -0.198 OA
ENDROOT
BRANCH   1   4
ATOM      4  N   UNL d   1      13.353  11.798  -3.526  0.00  0.00    -0.128 NA
BRANCH   4   5
ATOM      5  C   UNL d   1      13.106  12.180  -4.216  0.00  0.00     0.232 C 
ATOM      6  S   UNL d   1      13.198  11.816  -4.948  0.00  0.00    -0.036 SA
BRANCH   5   7
ATOM      7  N   UNL d   1      12.769  12.928  -4.164  0.00  0.00    -0.217 NA
BRANCH   7   8
ATOM      8  C   UNL d   1      13.124  13.563  -4.550  0.00  0.00     0.084 A 
ATOM      9  C   UNL d   1      13.200  13.547  -5.366  0.00  0.00     0.019 A 
ATOM     10  C   UNL d   1      13.553  14.176  -5.756  0.00  0.00     0.002 A 
ATOM     11  C   UNL d   1      13.830  14.821  -5.327  0.00  0.00     0.000 A 
ATOM     12  C   UNL d   1      13.748  14.825  -4.505  0.00  0.00     0.002 A 
ATOM     13  C   UNL d   1      13.400  14.204  -4.123  0.00  0.00     0.019 A 
ENDBRANCH   7   8
ENDBRANCH   5   7
ENDBRANCH   4   5
ENDBRANCH   1   4
BRANCH   1  14
ATOM     14  C   UNL d   1      14.231  11.842  -2.114  0.00  0.00     0.105 A 
ATOM     15  C   UNL d   1      15.053  11.924  -2.145  0.00  0.00     0.015 A 
ATOM     16  C   UNL d   1      15.491  11.946  -1.448  0.00  0.00     0.030 A 
ATOM     17  C   UNL d   1      15.115  11.887  -0.701  0.00  0.00     0.140 A 
ATOM     18  C   UNL d   1      14.287  11.805  -0.679  0.00  0.00     0.030 A 
ATOM     19  F   UNL d   1      15.556  11.910  -0.014  0.00  0.00    -0.204 F 
ATOM     20  C   UNL d   1      13.847  11.782  -1.381  0.00  0.00     0.015 A 
ENDBRANCH   1  14
TORSDOF 5
ENDMDL
