MODEL 1
REMARK VINA RESULT:      -3.6      0.000      0.000
REMARK  3 active torsions:
REMARK  status: ('A' for Active; 'I' for Inactive)
REMARK    1  A    between atoms: C_6  and  C_1 
REMARK    2  A    between atoms: C_12  and  C_6 
REMARK    3  A    between atoms: C_9  and  C_10 
ROOT
ATOM      1  C   UNL d   1      32.546  17.898 -23.658  0.00  0.00     0.139 A 
ATOM      2  C   UNL d   1      31.651  16.942 -23.892  0.00  0.00     0.064 A 
ATOM      3  C   UNL d   1      32.419  17.082 -23.631  0.00  0.00     0.220 A 
ATOM      4  C   UNL d   1      31.301  17.664 -24.081  0.00  0.00     0.106 A 
ATOM      5  O   UNL d   1      31.858  18.258 -23.935  0.00  0.00    -0.304 OA
ATOM      6  C   UNL d   1      30.532  17.682 -24.356  0.00  0.00     0.067 A 
ATOM      7  C   UNL d   1      31.227  16.241 -23.981  0.00  0.00     0.009 A 
ATOM      8  O   UNL d   1      32.969  16.518 -23.385  0.00  0.00    -0.284 OA
ATOM      9  C   UNL d   1      30.108  16.981 -24.445  0.00  0.00     0.198 A 
ATOM     10  C   UNL d   1      30.455  16.266 -24.258  0.00  0.00     0.042 A 
ATOM     11  O   UNL d   1      29.332  17.004 -24.723  0.00  0.00    -0.286 OA
ENDROOT
BRANCH   1  12
ATOM     12  C   UNL d   1      33.241  18.290 -23.446  0.00  0.00     0.028 C 
BRANCH  12  13
ATOM     13  C   UNL d   1      33.211  19.007 -23.032  0.00  0.00     0.002 A 
ATOM     14  C   UNL d   1      33.241  19.712 -23.450  0.00  0.00    -0.000 A 
ATOM     15  C   UNL d   1      33.212  20.429 -23.054  0.00  0.00    -0.004 A 
ATOM     16  C   UNL d   1      33.152  20.441 -22.222  0.00  0.00    -0.023 A 
ATOM     17  C   UNL d   1      33.121  19.728 -21.804  0.00  0.00    -0.004 A 
ATOM     18  C   UNL d   1      33.151  19.011 -22.217  0.00  0.00    -0.000 A 
BRANCH  16  19
ATOM     19  C   UNL d   1      33.122  21.167 -21.817  0.00  0.00     0.019 C 
ATOM     20  C   UNL d   1      33.093  21.880 -21.415  0.00  0.00     0.004 C 
ATOM     21  C   UNL d   1      33.235  21.568 -22.532  0.00  0.00     0.004 C 
ATOM     22  C   UNL d   1      33.010  20.756 -21.111  0.00  0.00     0.004 C 
ENDBRANCH  16  19
ENDBRANCH  12  13
ENDBRANCH   1  12
TORSDOF 3
ENDMDL
MODEL 2
REMARK VINA RESULT:      -3.4      1.407      4.550
REMARK  3 active torsions:
REMARK  status: ('A' for Active; 'I' for Inactive)
REMARK    1  A    between atoms: C_6  and  C_1 
REMARK    2  A    between atoms: C_12  and  C_6 
REMARK    3  A    between atoms: C_9  and  C_10 
ROOT
ATOM      1  C   UNL d   1      33.241  19.286 -23.311  0.00  0.00     0.139 A 
ATOM      2  C   UNL d   1      33.241  20.418 -22.612  0.00  0.00     0.064 A 
ATOM      3  C   UNL d   1      33.241  20.110 -23.375  0.00  0.00     0.220 A 
ATOM      4  C   UNL d   1      33.241  19.792 -22.075  0.00  0.00     0.106 A 
ATOM      5  O   UNL d   1      33.241  19.089 -22.510  0.00  0.00    -0.304 OA
ATOM      6  C   UNL d   1      33.241  19.947 -21.273  0.00  0.00     0.067 A 
ATOM      7  C   UNL d   1      33.241  21.196 -22.340  0.00  0.00     0.009 A 
ATOM      8  O   UNL d   1      33.241  20.536 -24.082  0.00  0.00    -0.284 OA
ATOM      9  C   UNL d   1      33.241  20.724 -21.001  0.00  0.00     0.198 A 
ATOM     10  C   UNL d   1      33.241  21.344 -21.533  0.00  0.00     0.042 A 
ATOM     11  O   UNL d   1      33.241  20.875 -20.191  0.00  0.00    -0.286 OA
ENDROOT
BRANCH   1  12
ATOM     12  C   UNL d   1      33.241  18.748 -23.937  0.00  0.00     0.028 C 
BRANCH  12  13
ATOM     13  C   UNL d   1      32.748  18.083 -23.922  0.00  0.00     0.002 A 
ATOM     14  C   UNL d   1      31.984  18.144 -24.214  0.00  0.00    -0.000 A 
ATOM     15  C   UNL d   1      31.485  17.494 -24.206  0.00  0.00    -0.004 A 
ATOM     16  C   UNL d   1      31.756  16.768 -23.898  0.00  0.00    -0.023 A 
ATOM     17  C   UNL d   1      32.527  16.709 -23.604  0.00  0.00    -0.004 A 
ATOM     18  C   UNL d   1      33.020  17.374 -23.619  0.00  0.00    -0.000 A 
BRANCH  16  19
ATOM     19  C   UNL d   1      31.252  16.106 -23.888  0.00  0.00     0.019 C 
ATOM     20  C   UNL d   1      30.757  15.453 -23.881  0.00  0.00     0.004 C 
ATOM     21  C   UNL d   1      30.845  16.429 -23.244  0.00  0.00     0.004 C 
ATOM     22  C   UNL d   1      31.665  15.795 -24.531  0.00  0.00     0.004 C 
ENDBRANCH  16  19
ENDBRANCH  12  13
ENDBRANCH   1  12
TORSDOF 3
ENDMDL
MODEL 3
REMARK VINA RESULT:      -3.3      0.692      1.354
REMARK  3 active torsions:
REMARK  status: ('A' for Active; 'I' for Inactive)
REMARK    1  A    between atoms: C_6  and  C_1 
REMARK    2  A    between atoms: C_12  and  C_6 
REMARK    3  A    between atoms: C_9  and  C_10 
ROOT
ATOM      1  C   UNL d   1      31.897  17.049 -23.999  0.00  0.00     0.139 A 
ATOM      2  C   UNL d   1      30.891  16.181 -23.928  0.00  0.00     0.064 A 
ATOM      3  C   UNL d   1      31.700  16.269 -23.810  0.00  0.00     0.220 A 
ATOM      4  C   UNL d   1      30.582  16.900 -24.188  0.00  0.00     0.106 A 
ATOM      5  O   UNL d   1      31.208  17.439 -24.232  0.00  0.00    -0.304 OA
ATOM      6  C   UNL d   1      29.784  16.965 -24.348  0.00  0.00     0.067 A 
ATOM      7  C   UNL d   1      30.394  15.531 -23.829  0.00  0.00     0.009 A 
ATOM      8  O   UNL d   1      32.229  15.690 -23.551  0.00  0.00    -0.284 OA
ATOM      9  C   UNL d   1      29.288  16.315 -24.249  0.00  0.00     0.198 A 
ATOM     10  C   UNL d   1      29.593  15.603 -23.991  0.00  0.00     0.042 A 
ATOM     11  O   UNL d   1      28.483  16.385 -24.411  0.00  0.00    -0.286 OA
ENDROOT
BRANCH   1  12
ATOM     12  C   UNL d   1      32.649  17.385 -23.962  0.00  0.00     0.028 C 
BRANCH  12  13
ATOM     13  C   UNL d   1      32.765  18.123 -23.604  0.00  0.00     0.002 A 
ATOM     14  C   UNL d   1      32.895  18.158 -22.795  0.00  0.00    -0.000 A 
ATOM     15  C   UNL d   1      33.011  18.881 -22.427  0.00  0.00    -0.004 A 
ATOM     16  C   UNL d   1      32.998  19.583 -22.877  0.00  0.00    -0.023 A 
ATOM     17  C   UNL d   1      32.867  19.543 -23.693  0.00  0.00    -0.004 A 
ATOM     18  C   UNL d   1      32.751  18.806 -24.052  0.00  0.00    -0.000 A 
BRANCH  16  19
ATOM     19  C   UNL d   1      33.116  20.318 -22.507  0.00  0.00     0.019 C 
ATOM     20  C   UNL d   1      33.232  21.044 -22.145  0.00  0.00     0.004 C 
ATOM     21  C   UNL d   1      32.988  19.964 -21.770  0.00  0.00     0.004 C 
ATOM     22  C   UNL d   1      33.241  20.659 -23.247  0.00  0.00     0.004 C 
ENDBRANCH  16  19
ENDBRANCH  12  13
ENDBRANCH   1  12
TORSDOF 3
ENDMDL
MODEL 4
REMARK VINA RESULT:      -1.8      1.082      1.847
REMARK  3 active torsions:
REMARK  status: ('A' for Active; 'I' for Inactive)
REMARK    1  A    between atoms: C_6  and  C_1 
REMARK    2  A    between atoms: C_12  and  C_6 
REMARK    3  A    between atoms: C_9  and  C_10 
ROOT
ATOM      1  C   UNL d   1      32.896  19.240 -23.632  0.00  0.00     0.139 A 
ATOM      2  C   UNL d   1      32.346  18.161 -24.185  0.00  0.00     0.064 A 
ATOM      3  C   UNL d   1      32.660  18.904 -24.350  0.00  0.00     0.220 A 
ATOM      4  C   UNL d   1      32.385  18.033 -23.371  0.00  0.00     0.106 A 
ATOM      5  O   UNL d   1      32.726  18.704 -23.028  0.00  0.00    -0.304 OA
ATOM      6  C   UNL d   1      32.107  17.333 -23.057  0.00  0.00     0.067 A 
ATOM      7  C   UNL d   1      32.029  17.583 -24.679  0.00  0.00     0.009 A 
ATOM      8  O   UNL d   1      32.732  19.257 -25.092  0.00  0.00    -0.284 OA
ATOM      9  C   UNL d   1      31.789  16.755 -23.551  0.00  0.00     0.198 A 
ATOM     10  C   UNL d   1      31.751  16.881 -24.357  0.00  0.00     0.042 A 
ATOM     11  O   UNL d   1      31.510  16.049 -23.230  0.00  0.00    -0.286 OA
ENDROOT
BRANCH   1  12
ATOM     12  C   UNL d   1      33.241  19.982 -23.532  0.00  0.00     0.028 C 
BRANCH  12  13
ATOM     13  C   UNL d   1      33.072  20.440 -22.862  0.00  0.00     0.002 A 
ATOM     14  C   UNL d   1      33.231  20.132 -22.118  0.00  0.00    -0.000 A 
ATOM     15  C   UNL d   1      33.069  20.573 -21.447  0.00  0.00    -0.004 A 
ATOM     16  C   UNL d   1      32.742  21.337 -21.521  0.00  0.00    -0.023 A 
ATOM     17  C   UNL d   1      32.583  21.643 -22.273  0.00  0.00    -0.004 A 
ATOM     18  C   UNL d   1      32.751  21.187 -22.943  0.00  0.00    -0.000 A 
BRANCH  16  19
ATOM     19  C   UNL d   1      32.576  21.786 -20.841  0.00  0.00     0.019 C 
ATOM     20  C   UNL d   1      32.415  22.232 -20.172  0.00  0.00     0.004 C 
ATOM     21  C   UNL d   1      32.044  21.205 -20.589  0.00  0.00     0.004 C 
ATOM     22  C   UNL d   1      33.109  22.358 -21.103  0.00  0.00     0.004 C 
ENDBRANCH  16  19
ENDBRANCH  12  13
ENDBRANCH   1  12
TORSDOF 3
ENDMDL
MODEL 5
REMARK VINA RESULT:      -0.8      2.210      5.054
REMARK  3 active torsions:
REMARK  status: ('A' for Active; 'I' for Inactive)
REMARK    1  A    between atoms: C_6  and  C_1 
REMARK    2  A    between atoms: C_12  and  C_6 
REMARK    3  A    between atoms: C_9  and  C_10 
ROOT
ATOM      1  C   UNL d   1      33.094  21.606 -22.449  0.00  0.00     0.139 A 
ATOM      2  C   UNL d   1      32.856  22.605 -21.602  0.00  0.00     0.064 A 
ATOM      3  C   UNL d   1      32.987  22.424 -22.394  0.00  0.00     0.220 A 
ATOM      4  C   UNL d   1      32.882  21.906 -21.164  0.00  0.00     0.106 A 
ATOM      5  O   UNL d   1      33.029  21.286 -21.691  0.00  0.00    -0.304 OA
ATOM      6  C   UNL d   1      32.768  21.930 -20.356  0.00  0.00     0.067 A 
ATOM      7  C   UNL d   1      32.717  23.324 -21.225  0.00  0.00     0.009 A 
ATOM      8  O   UNL d   1      33.009  22.954 -23.026  0.00  0.00    -0.284 OA
ATOM      9  C   UNL d   1      32.628  22.649 -19.979  0.00  0.00     0.198 A 
ATOM     10  C   UNL d   1      32.604  23.341 -20.412  0.00  0.00     0.042 A 
ATOM     11  O   UNL d   1      32.514  22.668 -19.163  0.00  0.00    -0.286 OA
ENDROOT
BRANCH   1  12
ATOM     12  C   UNL d   1      33.241  21.179 -23.139  0.00  0.00     0.028 C 
BRANCH  12  13
ATOM     13  C   UNL d   1      33.109  20.361 -23.166  0.00  0.00     0.002 A 
ATOM     14  C   UNL d   1      33.207  19.918 -22.483  0.00  0.00    -0.000 A 
ATOM     15  C   UNL d   1      33.080  19.108 -22.494  0.00  0.00    -0.004 A 
ATOM     16  C   UNL d   1      32.849  18.735 -23.203  0.00  0.00    -0.023 A 
ATOM     17  C   UNL d   1      32.751  19.185 -23.890  0.00  0.00    -0.004 A 
ATOM     18  C   UNL d   1      32.883  20.002 -23.864  0.00  0.00    -0.000 A 
BRANCH  16  19
ATOM     19  C   UNL d   1      32.719  17.913 -23.218  0.00  0.00     0.019 C 
ATOM     20  C   UNL d   1      32.593  17.104 -23.230  0.00  0.00     0.004 C 
ATOM     21  C   UNL d   1      32.198  18.010 -23.853  0.00  0.00     0.004 C 
ATOM     22  C   UNL d   1      33.240  17.830 -22.584  0.00  0.00     0.004 C 
ENDBRANCH  16  19
ENDBRANCH  12  13
ENDBRANCH   1  12
TORSDOF 3
ENDMDL
MODEL 6
REMARK VINA RESULT:      -0.7      3.292      6.158
REMARK  3 active torsions:
REMARK  status: ('A' for Active; 'I' for Inactive)
REMARK    1  A    between atoms: C_6  and  C_1 
REMARK    2  A    between atoms: C_12  and  C_6 
REMARK    3  A    between atoms: C_9  and  C_10 
ROOT
ATOM      1  C   UNL d   1      32.732  22.731 -20.317  0.00  0.00     0.139 A 
ATOM      2  C   UNL d   1      32.340  23.276 -19.168  0.00  0.00     0.064 A 
ATOM      3  C   UNL d   1      32.199  23.265 -19.979  0.00  0.00     0.220 A 
ATOM      4  C   UNL d   1      32.956  22.754 -19.000  0.00  0.00     0.106 A 
ATOM      5  O   UNL d   1      33.199  22.415 -19.714  0.00  0.00    -0.304 OA
ATOM      6  C   UNL d   1      33.208  22.659 -18.229  0.00  0.00     0.067 A 
ATOM      7  C   UNL d   1      31.982  23.701 -18.560  0.00  0.00     0.009 A 
ATOM      8  O   UNL d   1      31.632  23.702 -20.389  0.00  0.00    -0.284 OA
ATOM      9  C   UNL d   1      32.850  23.084 -17.621  0.00  0.00     0.198 A 
ATOM     10  C   UNL d   1      32.240  23.601 -17.787  0.00  0.00     0.042 A 
ATOM     11  O   UNL d   1      33.107  22.985 -16.845  0.00  0.00    -0.286 OA
ENDROOT
BRANCH   1  12
ATOM     12  C   UNL d   1      32.790  22.542 -21.118  0.00  0.00     0.028 C 
BRANCH  12  13
ATOM     13  C   UNL d   1      32.876  21.755 -21.361  0.00  0.00     0.002 A 
ATOM     14  C   UNL d   1      32.869  21.581 -22.163  0.00  0.00    -0.000 A 
ATOM     15  C   UNL d   1      32.953  20.807 -22.418  0.00  0.00    -0.004 A 
ATOM     16  C   UNL d   1      33.046  20.194 -21.860  0.00  0.00    -0.023 A 
ATOM     17  C   UNL d   1      33.052  20.373 -21.052  0.00  0.00    -0.004 A 
ATOM     18  C   UNL d   1      32.967  21.160 -20.808  0.00  0.00    -0.000 A 
BRANCH  16  19
ATOM     19  C   UNL d   1      33.132  19.407 -22.116  0.00  0.00     0.019 C 
ATOM     20  C   UNL d   1      33.215  18.633 -22.371  0.00  0.00     0.004 C 
ATOM     21  C   UNL d   1      33.225  19.165 -21.330  0.00  0.00     0.004 C 
ATOM     22  C   UNL d   1      33.037  19.661 -22.894  0.00  0.00     0.004 C 
ENDBRANCH  16  19
ENDBRANCH  12  13
ENDBRANCH   1  12
TORSDOF 3
ENDMDL
