MODEL 1
REMARK VINA RESULT:      88.3      0.000      0.000
REMARK  9 active torsions:
REMARK  status: ('A' for Active; 'I' for Inactive)
REMARK    1  A    between atoms: C_19  and  N_1 
REMARK    2  A    between atoms: S_10  and  C_2 
REMARK    3  A    between atoms: N_8  and  C_9 
REMARK    4  A    between atoms: C_20  and  S_10 
REMARK    5  A    between atoms: C_11  and  C_20 
REMARK       I    between atoms: N_13  and  C_11 
REMARK    6  A    between atoms: C_15  and  N_13 
REMARK    7  A    between atoms: C_32  and  C_19 
REMARK    8  A    between atoms: O_25  and  C_22 
REMARK    9  A    between atoms: C_33  and  C_32 
ROOT
ATOM      1  N   UNL d   1      59.022  49.590  51.399  0.00  0.00    -0.253 N 
ATOM      2  C   UNL d   1      59.841  49.629  51.508  0.00  0.00     0.182 A 
ATOM      3  C   UNL d   1      58.519  49.589  52.040  0.00  0.00     0.268 A 
ATOM      4  C   UNL d   1      58.838  49.629  52.803  0.00  0.00     0.076 A 
ATOM      5  N   UNL d   1      60.158  49.668  52.258  0.00  0.00    -0.222 NA
ATOM      6  C   UNL d   1      59.653  49.669  52.912  0.00  0.00     0.088 A 
ATOM      7  C   UNL d   1      58.335  49.629  53.440  0.00  0.00     0.024 A 
ATOM      8  C   UNL d   1      58.644  49.669  54.214  0.00  0.00     0.065 A 
ATOM      9  O   UNL d   1      57.699  49.550  51.931  0.00  0.00    -0.267 OA
ATOM     10  C   UNL d   1      59.969  49.708  53.666  0.00  0.00     0.021 A 
ATOM     11  C   UNL d   1      59.465  49.708  54.311  0.00  0.00     0.019 A 
ENDROOT
BRANCH   2  12
ATOM     12  S   UNL d   1      60.353  49.629  50.842  0.00  0.00    -0.044 SA
BRANCH  12  13
ATOM     13  C   UNL d   1      61.076  49.239  50.880  0.00  0.00     0.101 C 
BRANCH  13  14
ATOM     14  C   UNL d   1      61.121  48.440  50.703  0.00  0.00     0.286 C 
ATOM     15  N   UNL d   1      61.640  48.177  50.132  0.00  0.00    -0.207 NA
ATOM     16  O   UNL d   1      60.642  47.900  51.101  0.00  0.00    -0.265 OA
BRANCH  15  17
ATOM     17  C   UNL d   1      61.691  47.369  49.947  0.00  0.00     0.087 A 
ATOM     18  C   UNL d   1      61.101  46.864  50.220  0.00  0.00     0.043 A 
ATOM     19  C   UNL d   1      61.151  46.057  50.035  0.00  0.00     0.096 A 
ATOM     20  C   UNL d   1      61.777  45.769  49.590  0.00  0.00     0.024 A 
ATOM     21  C   UNL d   1      62.364  46.285  49.322  0.00  0.00     0.004 A 
ATOM     22  C   UNL d   1      62.317  47.082  49.502  0.00  0.00     0.019 A 
BRANCH  19  23
ATOM     23  O   UNL d   1      60.555  45.537  50.309  0.00  0.00    -0.328 OA
ATOM     24  C   UNL d   1      60.628  44.733  50.198  0.00  0.00     0.181 C 
ENDBRANCH  19  23
ENDBRANCH  15  17
ENDBRANCH  13  14
ENDBRANCH  12  13
ENDBRANCH   2  12
BRANCH   1  25
ATOM     25  C   UNL d   1      58.713  49.550  50.624  0.00  0.00     0.085 C 
BRANCH  25  26
ATOM     26  C   UNL d   1      58.025  49.127  50.486  0.00  0.00     0.019 C 
BRANCH  26  27
ATOM     27  C   UNL d   1      57.330  49.523  50.279  0.00  0.00     0.002 C 
ATOM     28  C   UNL d   1      56.598  49.220  50.517  0.00  0.00     0.000 C 
ENDBRANCH  26  27
ENDBRANCH  25  26
ENDBRANCH   1  25
BRANCH   8  29
ATOM     29  N   UNL d   1      58.143  49.669  54.869  0.00  0.00    -0.300 N 
ATOM     30  C   UNL d   1      58.466  49.690  55.633  0.00  0.00     0.107 A 
ATOM     31  C   UNL d   1      57.954  49.690  56.282  0.00  0.00     0.142 A 
ATOM     32  O   UNL d   1      57.129  49.669  56.172  0.00  0.00    -0.300 OA
ATOM     33  C   UNL d   1      56.819  49.647  55.401  0.00  0.00     0.142 A 
ATOM     34  C   UNL d   1      57.324  49.647  54.747  0.00  0.00     0.107 A 
ENDBRANCH   8  29
TORSDOF 9
ENDMDL
