MODEL 1
REMARK VINA RESULT:      49.1      0.000      0.000
REMARK  5 active torsions:
REMARK  status: ('A' for Active; 'I' for Inactive)
REMARK    1  A    between atoms: C_3  and  N_1 
REMARK       I    between atoms: C_2  and  N_4 
REMARK    2  A    between atoms: C_10  and  C_2 
REMARK    3  A    between atoms: N_4  and  C_9 
REMARK    4  A    between atoms: C_13  and  C_10 
REMARK    5  A    between atoms: C_16  and  C_13 
ROOT
ATOM      1  C   UNL d   1     -51.549  25.454  33.454  0.00  0.00     0.064 A 
ATOM      2  C   UNL d   1     -51.999  26.139  33.321  0.00  0.00     0.020 A 
ATOM      3  C   UNL d   1     -50.745  25.519  33.629  0.00  0.00     0.020 A 
ATOM      4  C   UNL d   1     -50.850  26.947  33.538  0.00  0.00     0.135 A 
ATOM      5  C   UNL d   1     -50.392  26.270  33.672  0.00  0.00     0.034 A 
ATOM      6  C   UNL d   1     -51.645  26.882  33.364  0.00  0.00     0.034 A 
ENDROOT
BRANCH   4   7
ATOM      7  N   UNL d   1     -50.500  27.692  33.580  0.00  0.00    -0.365 NA
ATOM      8  C   UNL d   1     -50.150  28.444  33.621  0.00  0.00     0.328 C 
ATOM      9  O   UNL d   1     -50.543  29.097  33.306  0.00  0.00    -0.251 OA
BRANCH   8  10
ATOM     10  C   UNL d   1     -49.412  28.537  33.976  0.00  0.00     0.076 C 
BRANCH  10  11
ATOM     11  C   UNL d   1     -49.254  29.195  34.436  0.00  0.00     0.006 C 
BRANCH  11  12
ATOM     12  C   UNL d   1     -48.564  29.230  34.888  0.00  0.00     0.000 A 
ATOM     13  C   UNL d   1     -47.998  29.809  34.729  0.00  0.00     0.000 A 
ATOM     14  C   UNL d   1     -47.301  29.850  35.180  0.00  0.00     0.000 A 
ATOM     15  C   UNL d   1     -47.176  29.309  35.789  0.00  0.00     0.000 A 
ATOM     16  C   UNL d   1     -47.747  28.727  35.949  0.00  0.00     0.000 A 
ATOM     17  C   UNL d   1     -48.439  28.689  35.498  0.00  0.00     0.000 A 
ENDBRANCH  11  12
ENDBRANCH  10  11
ENDBRANCH   8  10
ENDBRANCH   4   7
BRANCH   1  18
ATOM     18  N   UNL d   1     -51.902  24.712  33.411  0.00  0.00    -0.300 N 
ATOM     19  C   UNL d   1     -51.430  24.036  33.418  0.00  0.00     0.107 A 
ATOM     20  C   UNL d   1     -51.782  23.294  33.375  0.00  0.00     0.142 A 
ATOM     21  O   UNL d   1     -52.598  23.226  33.325  0.00  0.00    -0.300 OA
ATOM     22  C   UNL d   1     -53.071  23.902  33.318  0.00  0.00     0.142 A 
ATOM     23  C   UNL d   1     -52.721  24.651  33.361  0.00  0.00     0.107 A 
ENDBRANCH   1  18
TORSDOF 5
ENDMDL
MODEL 2
REMARK VINA RESULT:      49.9      0.846      1.117
REMARK  5 active torsions:
REMARK  status: ('A' for Active; 'I' for Inactive)
REMARK    1  A    between atoms: C_3  and  N_1 
REMARK       I    between atoms: C_2  and  N_4 
REMARK    2  A    between atoms: C_10  and  C_2 
REMARK    3  A    between atoms: N_4  and  C_9 
REMARK    4  A    between atoms: C_13  and  C_10 
REMARK    5  A    between atoms: C_16  and  C_13 
ROOT
ATOM      1  C   UNL d   1     -51.586  25.132  33.479  0.00  0.00     0.064 A 
ATOM      2  C   UNL d   1     -51.757  25.926  33.651  0.00  0.00     0.020 A 
ATOM      3  C   UNL d   1     -50.803  24.897  33.365  0.00  0.00     0.020 A 
ATOM      4  C   UNL d   1     -50.373  26.246  33.597  0.00  0.00     0.135 A 
ATOM      5  C   UNL d   1     -50.192  25.457  33.424  0.00  0.00     0.034 A 
ATOM      6  C   UNL d   1     -51.148  26.478  33.709  0.00  0.00     0.034 A 
ENDROOT
BRANCH   4   7
ATOM      7  N   UNL d   1     -49.768  26.802  33.655  0.00  0.00    -0.365 NA
ATOM      8  C   UNL d   1     -49.156  27.361  33.713  0.00  0.00     0.328 C 
ATOM      9  O   UNL d   1     -48.448  27.238  33.308  0.00  0.00    -0.251 OA
BRANCH   8  10
ATOM     10  C   UNL d   1     -49.257  28.037  34.174  0.00  0.00     0.076 C 
BRANCH  10  11
ATOM     11  C   UNL d   1     -48.962  28.064  34.938  0.00  0.00     0.006 C 
BRANCH  11  12
ATOM     12  C   UNL d   1     -48.446  28.669  35.162  0.00  0.00     0.000 A 
ATOM     13  C   UNL d   1     -48.538  29.425  34.844  0.00  0.00     0.000 A 
ATOM     14  C   UNL d   1     -48.023  30.038  35.065  0.00  0.00     0.000 A 
ATOM     15  C   UNL d   1     -47.417  29.889  35.605  0.00  0.00     0.000 A 
ATOM     16  C   UNL d   1     -47.327  29.128  35.924  0.00  0.00     0.000 A 
ATOM     17  C   UNL d   1     -47.841  28.520  35.702  0.00  0.00     0.000 A 
ENDBRANCH  11  12
ENDBRANCH  10  11
ENDBRANCH   8  10
ENDBRANCH   4   7
BRANCH   1  18
ATOM     18  N   UNL d   1     -52.194  24.581  33.421  0.00  0.00    -0.300 N 
ATOM     19  C   UNL d   1     -52.975  24.842  33.364  0.00  0.00     0.107 A 
ATOM     20  C   UNL d   1     -53.584  24.291  33.306  0.00  0.00     0.142 A 
ATOM     21  O   UNL d   1     -53.417  23.489  33.306  0.00  0.00    -0.300 OA
ATOM     22  C   UNL d   1     -52.636  23.228  33.363  0.00  0.00     0.142 A 
ATOM     23  C   UNL d   1     -52.020  23.777  33.421  0.00  0.00     0.107 A 
ENDBRANCH   1  18
TORSDOF 5
ENDMDL
