MODEL 1
REMARK VINA RESULT:       7.6      0.000      0.000
REMARK  2 active torsions:
REMARK  status: ('A' for Active; 'I' for Inactive)
REMARK    1  A    between atoms: N_4  and  C_1 
REMARK    2  A    between atoms: C_6  and  C_2 
ROOT
ATOM      1  C   UNL d   1      23.665  12.523  -1.507  0.00  0.00     0.149 A 
ATOM      2  C   UNL d   1      24.051  13.162  -1.140  0.00  0.00     0.056 A 
ATOM      3  N   UNL d   1      23.049  12.132  -1.137  0.00  0.00    -0.228 NA
ATOM      4  C   UNL d   1      23.807  13.401  -0.396  0.00  0.00     0.006 A 
ATOM      5  C   UNL d   1      22.803  12.367  -0.394  0.00  0.00     0.083 A 
ATOM      6  C   UNL d   1      23.181  13.003  -0.019  0.00  0.00     0.019 A 
ATOM      7  C   UNL d   1      24.180  14.036  -0.014  0.00  0.00     0.000 C 
ATOM      8  C   UNL d   1      22.183  11.976  -0.016  0.00  0.00     0.021 C 
ENDROOT
BRANCH   1   9
ATOM      9  N   UNL d   1      23.910  12.282  -2.259  0.00  0.00    -0.289 N 
ATOM     10  C   UNL d   1      23.472  12.371  -2.826  0.00  0.00     0.082 A 
ATOM     11  C   UNL d   1      23.693  12.159  -3.475  0.00  0.00     0.021 A 
ATOM     12  C   UNL d   1      24.768  11.780  -2.988  0.00  0.00     0.021 A 
ATOM     13  C   UNL d   1      24.549  11.990  -2.342  0.00  0.00     0.082 A 
ENDBRANCH   1   9
BRANCH   2  14
ATOM     14  C   UNL d   1      24.665  13.548  -1.517  0.00  0.00     0.125 C 
ATOM     15  N   UNL d   1      24.767  14.356  -1.416  0.00  0.00    -0.146 N 
ENDBRANCH   2  14
TORSDOF 2
ENDMDL
