MODEL 1
REMARK VINA RESULT:      58.0      0.000      0.000
REMARK  3 active torsions:
REMARK  status: ('A' for Active; 'I' for Inactive)
REMARK    1  A    between atoms: S_2  and  C_1 
REMARK    2  A    between atoms: N_8  and  S_2 
REMARK    3  A    between atoms: C_12  and  N_9 
ROOT
ATOM      1  N   UNL d   1     -55.106-101.587 -41.729  0.00  0.00    -0.226 N 
ATOM      2  N   UNL d   1     -55.266-102.063 -40.163  0.00  0.00    -0.299 N 
ATOM      3  C   UNL d   1     -55.201-102.377 -41.546  0.00  0.00     0.111 A 
ATOM      4  C   UNL d   1     -55.092-101.031 -41.116  0.00  0.00     0.111 A 
ATOM      5  C   UNL d   1     -55.280-102.620 -40.777  0.00  0.00     0.100 A 
ATOM      6  C   UNL d   1     -55.172-101.270 -40.330  0.00  0.00     0.100 A 
ENDROOT
BRANCH   1   7
ATOM      7  S   UNL d   1     -55.026-101.350 -42.519  0.00  0.00     0.278 S 
ATOM      8  O   UNL d   1     -55.096-100.566 -42.272  0.00  0.00    -0.199 OA
ATOM      9  O   UNL d   1     -54.958-102.143 -42.756  0.00  0.00    -0.199 OA
BRANCH   7  10
ATOM     10  C   UNL d   1     -54.948-101.102 -43.303  0.00  0.00     0.178 A 
ATOM     11  C   UNL d   1     -54.893-101.669 -43.905  0.00  0.00     0.282 A 
ATOM     12  N   UNL d   1     -54.815-101.420 -44.683  0.00  0.00    -0.224 N 
ATOM     13  O   UNL d   1     -54.917-102.460 -43.725  0.00  0.00    -0.266 OA
ATOM     14  C   UNL d   1     -54.761-101.990 -45.281  0.00  0.00     0.107 C 
ATOM     15  C   UNL d   1     -54.791-100.617 -44.866  0.00  0.00     0.342 A 
ATOM     16  N   UNL d   1     -54.845-100.059 -44.271  0.00  0.00    -0.255 N 
ATOM     17  O   UNL d   1     -54.712-100.365 -45.651  0.00  0.00    -0.245 OA
ATOM     18  C   UNL d   1     -54.924-100.299 -43.486  0.00  0.00     0.102 A 
ATOM     19  C   UNL d   1     -54.821 -99.260 -44.453  0.00  0.00     0.104 C 
ENDBRANCH   7  10
ENDBRANCH   1   7
BRANCH   2  20
ATOM     20  C   UNL d   1     -55.347-102.309 -39.372  0.00  0.00     0.092 A 
ATOM     21  C   UNL d   1     -56.066-102.633 -39.115  0.00  0.00     0.156 A 
ATOM     22  F   UNL d   1     -56.693-102.711 -39.632  0.00  0.00    -0.203 F 
ATOM     23  C   UNL d   1     -56.142-102.876 -38.330  0.00  0.00     0.031 A 
ATOM     24  C   UNL d   1     -55.509-102.797 -37.809  0.00  0.00     0.002 A 
ATOM     25  C   UNL d   1     -54.790-102.473 -38.065  0.00  0.00     0.002 A 
ATOM     26  C   UNL d   1     -54.713-102.230 -38.851  0.00  0.00     0.020 A 
ENDBRANCH   2  20
TORSDOF 3
ENDMDL
