MODEL 1
REMARK VINA RESULT:      -3.1      0.000      0.000
REMARK  2 active torsions:
REMARK  status: ('A' for Active; 'I' for Inactive)
REMARK    1  A    between atoms: N_8  and  C_3 
REMARK    2  A    between atoms: C_7  and  N_9 
ROOT
ATOM      1  N   UNL d   1      56.394   0.048  32.384  0.00  0.00    -0.286 N 
ATOM      2  N   UNL d   1      57.361  -0.232  31.052  0.00  0.00    -0.135 N 
ATOM      3  C   UNL d   1      56.614  -0.714  32.157  0.00  0.00     0.101 A 
ATOM      4  C   UNL d   1      56.661   0.682  31.938  0.00  0.00     0.101 A 
ATOM      5  C   UNL d   1      57.143   0.575  31.271  0.00  0.00     0.117 A 
ATOM      6  C   UNL d   1      57.094  -0.852  31.496  0.00  0.00     0.117 A 
ENDROOT
BRANCH   1   7
ATOM      7  C   UNL d   1      55.933   0.182  33.019  0.00  0.00     0.152 A 
ATOM      8  C   UNL d   1      56.251   0.344  33.763  0.00  0.00     0.059 A 
ATOM      9  C   UNL d   1      55.771   0.483  34.424  0.00  0.00     0.115 A 
ATOM     10  C   UNL d   1      57.023   0.401  33.998  0.00  0.00     0.011 A 
ATOM     11  S   UNL d   1      56.253   0.624  35.059  0.00  0.00    -0.068 SA
ATOM     12  N   UNL d   1      54.966   0.462  34.351  0.00  0.00    -0.217 NA
ATOM     13  C   UNL d   1      57.006   0.574  34.803  0.00  0.00     0.031 A 
ATOM     14  C   UNL d   1      57.692   0.682  35.278  0.00  0.00     0.007 C 
ATOM     15  C   UNL d   1      54.593   0.299  33.608  0.00  0.00     0.201 A 
ATOM     16  N   UNL d   1      55.091   0.154  32.921  0.00  0.00    -0.206 NA
ATOM     17  C   UNL d   1      57.740   0.306  33.532  0.00  0.00     0.001 C 
ENDBRANCH   1   7
BRANCH   2  18
ATOM     18  C   UNL d   1      57.865  -0.338  30.354  0.00  0.00     0.735 A 
ATOM     19  N   UNL d   1      58.057  -1.074  30.157  0.00  0.00    -0.059 NA
ATOM     20  C   UNL d   1      58.544  -1.215  29.486  0.00  0.00     0.120 A 
ATOM     21  C   UNL d   1      58.807  -0.579  29.052  0.00  0.00     0.043 A 
ATOM     22  C   UNL d   1      58.593   0.182  29.277  0.00  0.00     0.120 A 
ATOM     23  N   UNL d   1      58.129   0.316  29.917  0.00  0.00    -0.059 NA
ENDBRANCH   2  18
TORSDOF 2
ENDMDL
MODEL 2
REMARK VINA RESULT:      -0.7      1.878      4.747
REMARK  2 active torsions:
REMARK  status: ('A' for Active; 'I' for Inactive)
REMARK    1  A    between atoms: N_8  and  C_3 
REMARK    2  A    between atoms: C_7  and  N_9 
ROOT
ATOM      1  N   UNL d   1      58.421   0.169  31.273  0.00  0.00    -0.286 N 
ATOM      2  N   UNL d   1      57.076   0.122  32.261  0.00  0.00    -0.135 N 
ATOM      3  C   UNL d   1      57.784   0.682  31.167  0.00  0.00     0.101 A 
ATOM      4  C   UNL d   1      58.386  -0.378  31.883  0.00  0.00     0.101 A 
ATOM      5  C   UNL d   1      57.731  -0.425  32.390  0.00  0.00     0.117 A 
ATOM      6  C   UNL d   1      57.116   0.659  31.658  0.00  0.00     0.117 A 
ENDROOT
BRANCH   1   7
ATOM      7  C   UNL d   1      59.063   0.191  30.802  0.00  0.00     0.152 A 
ATOM      8  C   UNL d   1      59.096  -0.224  30.090  0.00  0.00     0.059 A 
ATOM      9  C   UNL d   1      59.764  -0.200  29.599  0.00  0.00     0.115 A 
ATOM     10  C   UNL d   1      58.544  -0.701  29.738  0.00  0.00     0.011 A 
ATOM     11  S   UNL d   1      59.615  -0.663  28.952  0.00  0.00    -0.068 SA
ATOM     12  N   UNL d   1      60.407   0.239  29.814  0.00  0.00    -0.217 NA
ATOM     13  C   UNL d   1      58.882  -0.964  29.035  0.00  0.00     0.031 A 
ATOM     14  C   UNL d   1      58.500  -1.478  28.490  0.00  0.00     0.007 C 
ATOM     15  C   UNL d   1      60.421   0.682  30.536  0.00  0.00     0.201 A 
ATOM     16  N   UNL d   1      59.727   0.658  31.046  0.00  0.00    -0.206 NA
ATOM     17  C   UNL d   1      57.757  -0.912  30.013  0.00  0.00     0.001 C 
ENDBRANCH   1   7
BRANCH   2  18
ATOM     18  C   UNL d   1      56.393   0.068  32.794  0.00  0.00     0.735 A 
ATOM     19  N   UNL d   1      55.946  -0.576  32.744  0.00  0.00    -0.059 NA
ATOM     20  C   UNL d   1      55.276  -0.662  33.245  0.00  0.00     0.120 A 
ATOM     21  C   UNL d   1      55.106  -0.069  33.776  0.00  0.00     0.043 A 
ATOM     22  C   UNL d   1      55.588   0.595  33.811  0.00  0.00     0.120 A 
ATOM     23  N   UNL d   1      56.227   0.677  33.333  0.00  0.00    -0.059 NA
ENDBRANCH   2  18
TORSDOF 2
ENDMDL
