MODEL 1
REMARK VINA RESULT:      18.8      0.000      0.000
REMARK  5 active torsions:
REMARK  status: ('A' for Active; 'I' for Inactive)
REMARK    1  A    between atoms: C_2  and  N_1 
REMARK       I    between atoms: C_3  and  N_1 
REMARK    2  A    between atoms: N_7  and  C_2 
REMARK    3  A    between atoms: C_4  and  C_3 
REMARK    4  A    between atoms: N_5  and  C_9 
REMARK    5  A    between atoms: C_17  and  N_7 
ROOT
ATOM      1  C   UNL d   1      45.585 -14.384  44.159  0.00  0.00     0.064 A 
ATOM      2  C   UNL d   1      46.302 -14.520  44.537  0.00  0.00     0.019 A 
ATOM      3  C   UNL d   1      45.079 -15.030  43.994  0.00  0.00     0.019 A 
ATOM      4  C   UNL d   1      46.020 -15.922  44.589  0.00  0.00     0.084 A 
ATOM      5  C   UNL d   1      45.297 -15.801  44.209  0.00  0.00     0.021 A 
ATOM      6  C   UNL d   1      46.523 -15.276  44.752  0.00  0.00     0.021 A 
ENDROOT
BRANCH   4   7
ATOM      7  N   UNL d   1      46.243 -16.668  44.803  0.00  0.00    -0.217 NA
BRANCH   7   8
ATOM      8  C   UNL d   1      45.868 -17.323  44.469  0.00  0.00     0.224 C 
ATOM      9  S   UNL d   1      45.279 -17.711  44.881  0.00  0.00    -0.037 SA
BRANCH   8  10
ATOM     10  N   UNL d   1      46.100 -17.583  43.704  0.00  0.00    -0.178 NA
ATOM     11  C   UNL d   1      46.064 -18.369  43.527  0.00  0.00     0.287 C 
ATOM     12  O   UNL d   1      45.803 -18.906  44.092  0.00  0.00    -0.265 OA
BRANCH  11  13
ATOM     13  C   UNL d   1      46.285 -18.631  42.793  0.00  0.00     0.087 A 
ATOM     14  S   UNL d   1      46.430 -18.157  42.137  0.00  0.00    -0.082 SA
ATOM     15  C   UNL d   1      46.644 -18.658  41.493  0.00  0.00     0.036 A 
ATOM     16  C   UNL d   1      46.622 -19.422  41.777  0.00  0.00     0.008 A 
ATOM     17  C   UNL d   1      46.404 -19.425  42.568  0.00  0.00     0.012 A 
ENDBRANCH  11  13
ENDBRANCH   8  10
ENDBRANCH   7   8
ENDBRANCH   4   7
BRANCH   1  18
ATOM     18  N   UNL d   1      45.370 -13.629  43.947  0.00  0.00    -0.300 N 
ATOM     19  C   UNL d   1      44.781 -13.508  43.391  0.00  0.00     0.107 A 
ATOM     20  C   UNL d   1      44.556 -12.746  43.170  0.00  0.00     0.142 A 
ATOM     21  O   UNL d   1      44.924 -12.097  43.508  0.00  0.00    -0.300 OA
ATOM     22  C   UNL d   1      45.520 -12.207  44.070  0.00  0.00     0.142 A 
ATOM     23  C   UNL d   1      45.747 -12.972  44.294  0.00  0.00     0.107 A 
ENDBRANCH   1  18
TORSDOF 5
ENDMDL
