MODEL 1
REMARK VINA RESULT:      -1.7      0.000      0.000
REMARK  3 active torsions:
REMARK  status: ('A' for Active; 'I' for Inactive)
REMARK    1  A    between atoms: C_11  and  C_4 
REMARK       I    between atoms: C_6  and  N_8 
REMARK    2  A    between atoms: C_9  and  C_6 
REMARK    3  A    between atoms: N_8  and  C_19 
ROOT
ATOM      1  C   UNL d   1     -41.734-122.020 -50.072  0.00  0.00     0.021 A 
ATOM      2  C   UNL d   1     -41.606-121.910 -51.500  0.00  0.00     0.085 A 
ATOM      3  C   UNL d   1     -41.849-122.330 -50.833  0.00  0.00     0.021 A 
ATOM      4  C   UNL d   1     -41.368-121.277 -49.981  0.00  0.00     0.002 A 
ATOM      5  C   UNL d   1     -41.123-120.854 -50.646  0.00  0.00     0.002 A 
ATOM      6  C   UNL d   1     -41.240-121.166 -51.410  0.00  0.00     0.019 A 
ENDROOT
BRANCH   2   7
ATOM      7  N   UNL d   1     -41.724-122.225 -52.251  0.00  0.00    -0.208 NA
ATOM      8  C   UNL d   1     -41.670-121.745 -52.926  0.00  0.00     0.279 C 
ATOM      9  O   UNL d   1     -41.493-120.935 -52.835  0.00  0.00    -0.265 OA
BRANCH   8  10
ATOM     10  C   UNL d   1     -41.788-122.058 -53.678  0.00  0.00     0.060 A 
ATOM     11  C   UNL d   1     -42.295-121.686 -54.205  0.00  0.00     0.031 A 
ATOM     12  C   UNL d   1     -42.408-122.000 -54.946  0.00  0.00     0.119 A 
ATOM     13  O   UNL d   1     -42.877-121.756 -55.591  0.00  0.00    -0.300 OA
ATOM     14  C   UNL d   1     -42.017-122.690 -55.171  0.00  0.00     0.119 A 
ATOM     15  C   UNL d   1     -42.768-122.300 -56.205  0.00  0.00     0.304 A 
ATOM     16  O   UNL d   1     -42.237-122.876 -55.946  0.00  0.00    -0.300 OA
ATOM     17  C   UNL d   1     -41.507-123.067 -54.646  0.00  0.00     0.026 A 
ATOM     18  C   UNL d   1     -41.391-122.749 -53.892  0.00  0.00     0.007 A 
ENDBRANCH   8  10
ENDBRANCH   2   7
BRANCH   1  19
ATOM     19  C   UNL d   1     -41.977-122.440 -49.405  0.00  0.00     0.118 A 
ATOM     20  N   UNL d   1     -42.744-122.684 -49.235  0.00  0.00    -0.059 NA
ATOM     21  C   UNL d   1     -42.729-123.086 -48.509  0.00  0.00     0.735 A 
ATOM     22  N   UNL d   1     -41.950-123.086 -48.236  0.00  0.00    -0.136 N 
ATOM     23  N   UNL d   1     -43.331-123.446 -48.073  0.00  0.00    -0.059 NA
ATOM     24  C   UNL d   1     -41.483-122.688 -48.788  0.00  0.00     0.118 A 
ATOM     25  C   UNL d   1     -41.775-123.455 -47.512  0.00  0.00     0.100 A 
ATOM     26  C   UNL d   1     -42.365-123.815 -47.073  0.00  0.00     0.041 A 
ATOM     27  C   UNL d   1     -43.148-123.810 -47.356  0.00  0.00     0.119 A 
ENDBRANCH   1  19
TORSDOF 3
ENDMDL
MODEL 2
REMARK VINA RESULT:       0.8      2.087      5.825
REMARK  3 active torsions:
REMARK  status: ('A' for Active; 'I' for Inactive)
REMARK    1  A    between atoms: C_11  and  C_4 
REMARK       I    between atoms: C_6  and  N_8 
REMARK    2  A    between atoms: C_9  and  C_6 
REMARK    3  A    between atoms: N_8  and  C_19 
ROOT
ATOM      1  C   UNL d   1     -41.610-121.750 -52.751  0.00  0.00     0.021 A 
ATOM      2  C   UNL d   1     -41.714-121.947 -51.330  0.00  0.00     0.085 A 
ATOM      3  C   UNL d   1     -41.837-122.213 -52.101  0.00  0.00     0.021 A 
ATOM      4  C   UNL d   1     -41.254-121.007 -52.623  0.00  0.00     0.002 A 
ATOM      5  C   UNL d   1     -41.128-120.737 -51.854  0.00  0.00     0.002 A 
ATOM      6  C   UNL d   1     -41.357-121.204 -51.202  0.00  0.00     0.019 A 
ENDROOT
BRANCH   2   7
ATOM      7  N   UNL d   1     -41.942-122.413 -50.691  0.00  0.00    -0.208 NA
ATOM      8  C   UNL d   1     -42.123-122.068 -49.958  0.00  0.00     0.279 C 
ATOM      9  O   UNL d   1     -42.071-121.240 -49.875  0.00  0.00    -0.265 OA
BRANCH   8  10
ATOM     10  C   UNL d   1     -42.352-122.533 -49.318  0.00  0.00     0.060 A 
ATOM     11  C   UNL d   1     -42.153-122.310 -48.554  0.00  0.00     0.031 A 
ATOM     12  C   UNL d   1     -42.381-122.773 -47.927  0.00  0.00     0.119 A 
ATOM     13  O   UNL d   1     -42.266-122.696 -47.104  0.00  0.00    -0.300 OA
ATOM     14  C   UNL d   1     -42.812-123.465 -48.053  0.00  0.00     0.119 A 
ATOM     15  C   UNL d   1     -42.627-123.343 -46.735  0.00  0.00     0.304 A 
ATOM     16  O   UNL d   1     -42.964-123.817 -47.321  0.00  0.00    -0.300 OA
ATOM     17  C   UNL d   1     -43.014-123.693 -48.818  0.00  0.00     0.026 A 
ATOM     18  C   UNL d   1     -42.782-123.224 -49.457  0.00  0.00     0.007 A 
ENDBRANCH   8  10
ENDBRANCH   2   7
BRANCH   1  19
ATOM     19  C   UNL d   1     -41.734-122.016 -53.522  0.00  0.00     0.118 A 
ATOM     20  N   UNL d   1     -42.262-121.700 -54.068  0.00  0.00    -0.059 NA
ATOM     21  C   UNL d   1     -42.199-122.141 -54.768  0.00  0.00     0.735 A 
ATOM     22  N   UNL d   1     -41.631-122.728 -54.648  0.00  0.00    -0.136 N 
ATOM     23  N   UNL d   1     -42.592-122.074 -55.491  0.00  0.00    -0.059 NA
ATOM     24  C   UNL d   1     -41.341-122.652 -53.879  0.00  0.00     0.118 A 
ATOM     25  C   UNL d   1     -41.455-123.254 -55.266  0.00  0.00     0.100 A 
ATOM     26  C   UNL d   1     -41.839-123.195 -55.987  0.00  0.00     0.041 A 
ATOM     27  C   UNL d   1     -42.412-122.601 -56.100  0.00  0.00     0.119 A 
ENDBRANCH   1  19
TORSDOF 3
ENDMDL
