MODEL 1
REMARK VINA RESULT:      -5.9      0.000      0.000
REMARK  4 active torsions:
REMARK  status: ('A' for Active; 'I' for Inactive)
REMARK    1  A    between atoms: C_4  and  C_1 
REMARK       I    between atoms: N_9  and  C_4 
REMARK    2  A    between atoms: C_7  and  C_13 
REMARK    3  A    between atoms: C_12  and  N_9 
REMARK    4  A    between atoms: C_13  and  C_12 
ROOT
ATOM      1  C   UNL d   1     -41.424-122.345 -52.502  0.00  0.00     0.302 C 
ATOM      2  O   UNL d   1     -41.123-121.660 -52.191  0.00  0.00    -0.263 OA
ATOM      3  N   UNL d   1     -41.653-122.969 -51.990  0.00  0.00    -0.205 NA
ENDROOT
BRANCH   3   4
ATOM      4  C   UNL d   1     -41.567-122.871 -51.183  0.00  0.00     0.102 C 
BRANCH   4   5
ATOM      5  C   UNL d   1     -41.765-123.486 -50.664  0.00  0.00     0.021 C 
BRANCH   5   6
ATOM      6  C   UNL d   1     -41.875-123.333 -49.865  0.00  0.00     0.002 A 
ATOM      7  C   UNL d   1     -41.236-123.428 -49.337  0.00  0.00     0.000 A 
ATOM      8  C   UNL d   1     -41.333-123.279 -48.533  0.00  0.00     0.000 A 
ATOM      9  C   UNL d   1     -42.066-123.033 -48.239  0.00  0.00     0.000 A 
ATOM     10  C   UNL d   1     -42.693-122.940 -48.759  0.00  0.00     0.000 A 
ATOM     11  C   UNL d   1     -42.594-123.091 -49.570  0.00  0.00     0.000 A 
ENDBRANCH   5   6
ENDBRANCH   4   5
ENDBRANCH   3   4
BRANCH   1  12
ATOM     12  C   UNL d   1     -41.509-122.438 -53.317  0.00  0.00     0.158 A 
ATOM     13  O   UNL d   1     -41.970-121.999 -53.847  0.00  0.00    -0.296 OA
ATOM     14  C   UNL d   1     -41.872-122.305 -54.611  0.00  0.00     0.134 A 
ATOM     15 BR   UNL d   1     -42.239-122.020 -55.299  0.00  0.00    -0.022 Br
ATOM     16  C   UNL d   1     -41.345-122.938 -54.550  0.00  0.00     0.034 A 
ATOM     17  C   UNL d   1     -41.123-123.022 -53.767  0.00  0.00     0.032 A 
ENDBRANCH   1  12
TORSDOF 4
ENDMDL
MODEL 2
REMARK VINA RESULT:      -5.4      1.806      4.628
REMARK  4 active torsions:
REMARK  status: ('A' for Active; 'I' for Inactive)
REMARK    1  A    between atoms: C_4  and  C_1 
REMARK       I    between atoms: N_9  and  C_4 
REMARK    2  A    between atoms: C_7  and  C_13 
REMARK    3  A    between atoms: C_12  and  N_9 
REMARK    4  A    between atoms: C_13  and  C_12 
ROOT
ATOM      1  C   UNL d   1     -41.495-122.270 -51.369  0.00  0.00     0.302 C 
ATOM      2  O   UNL d   1     -41.122-121.551 -51.411  0.00  0.00    -0.263 OA
ATOM      3  N   UNL d   1     -41.690-122.679 -52.075  0.00  0.00    -0.205 NA
ENDROOT
BRANCH   3   4
ATOM      4  C   UNL d   1     -41.499-122.342 -52.794  0.00  0.00     0.102 C 
BRANCH   4   5
ATOM      5  C   UNL d   1     -41.472-122.807 -53.480  0.00  0.00     0.021 C 
BRANCH   5   6
ATOM      6  C   UNL d   1     -41.699-122.492 -54.203  0.00  0.00     0.002 A 
ATOM      7  C   UNL d   1     -41.243-122.653 -54.883  0.00  0.00     0.000 A 
ATOM      8  C   UNL d   1     -41.460-122.343 -55.615  0.00  0.00     0.000 A 
ATOM      9  C   UNL d   1     -42.133-121.867 -55.683  0.00  0.00     0.000 A 
ATOM     10  C   UNL d   1     -42.580-121.710 -55.015  0.00  0.00     0.000 A 
ATOM     11  C   UNL d   1     -42.361-122.023 -54.277  0.00  0.00     0.000 A 
ENDBRANCH   5   6
ENDBRANCH   4   5
ENDBRANCH   3   4
BRANCH   1  12
ATOM     12  C   UNL d   1     -41.686-122.605 -50.641  0.00  0.00     0.158 A 
ATOM     13  O   UNL d   1     -42.410-122.601 -50.238  0.00  0.00    -0.296 OA
ATOM     14  C   UNL d   1     -42.326-123.013 -49.523  0.00  0.00     0.134 A 
ATOM     15 BR   UNL d   1     -42.923-123.134 -48.960  0.00  0.00    -0.022 Br
ATOM     16  C   UNL d   1     -41.543-123.273 -49.487  0.00  0.00     0.034 A 
ATOM     17  C   UNL d   1     -41.152-123.028 -50.163  0.00  0.00     0.032 A 
ENDBRANCH   1  12
TORSDOF 4
ENDMDL
MODEL 3
REMARK VINA RESULT:      -5.1      2.102      4.646
REMARK  4 active torsions:
REMARK  status: ('A' for Active; 'I' for Inactive)
REMARK    1  A    between atoms: C_4  and  C_1 
REMARK       I    between atoms: N_9  and  C_4 
REMARK    2  A    between atoms: C_7  and  C_13 
REMARK    3  A    between atoms: C_12  and  N_9 
REMARK    4  A    between atoms: C_13  and  C_12 
ROOT
ATOM      1  C   UNL d   1     -42.198-122.465 -50.614  0.00  0.00     0.302 C 
ATOM      2  O   UNL d   1     -42.779-121.941 -50.829  0.00  0.00    -0.263 OA
ATOM      3  N   UNL d   1     -41.640-122.724 -51.185  0.00  0.00    -0.205 NA
ENDROOT
BRANCH   3   4
ATOM      4  C   UNL d   1     -41.695-122.441 -51.950  0.00  0.00     0.102 C 
BRANCH   4   5
ATOM      5  C   UNL d   1     -41.126-122.650 -52.515  0.00  0.00     0.021 C 
BRANCH   5   6
ATOM      6  C   UNL d   1     -41.311-122.633 -53.314  0.00  0.00     0.002 A 
ATOM      7  C   UNL d   1     -41.125-123.291 -53.793  0.00  0.00     0.000 A 
ATOM      8  C   UNL d   1     -41.305-123.287 -54.597  0.00  0.00     0.000 A 
ATOM      9  C   UNL d   1     -41.672-122.629 -54.939  0.00  0.00     0.000 A 
ATOM     10  C   UNL d   1     -41.854-121.984 -54.468  0.00  0.00     0.000 A 
ATOM     11  C   UNL d   1     -41.672-121.989 -53.657  0.00  0.00     0.000 A 
ENDBRANCH   5   6
ENDBRANCH   4   5
ENDBRANCH   3   4
BRANCH   1  12
ATOM     12  C   UNL d   1     -42.147-122.746 -49.842  0.00  0.00     0.158 A 
ATOM     13  O   UNL d   1     -41.489-123.045 -49.438  0.00  0.00    -0.296 OA
ATOM     14  C   UNL d   1     -41.715-123.259 -48.669  0.00  0.00     0.134 A 
ATOM     15 BR   UNL d   1     -41.217-123.582 -48.088  0.00  0.00    -0.022 Br
ATOM     16  C   UNL d   1     -42.521-123.090 -48.600  0.00  0.00     0.034 A 
ATOM     17  C   UNL d   1     -42.786-122.779 -49.309  0.00  0.00     0.032 A 
ENDBRANCH   1  12
TORSDOF 4
ENDMDL
MODEL 4
REMARK VINA RESULT:      -3.0      0.876      1.031
REMARK  4 active torsions:
REMARK  status: ('A' for Active; 'I' for Inactive)
REMARK    1  A    between atoms: C_4  and  C_1 
REMARK       I    between atoms: N_9  and  C_4 
REMARK    2  A    between atoms: C_7  and  C_13 
REMARK    3  A    between atoms: C_12  and  N_9 
REMARK    4  A    between atoms: C_13  and  C_12 
ROOT
ATOM      1  C   UNL d   1     -41.580-123.095 -53.096  0.00  0.00     0.302 C 
ATOM      2  O   UNL d   1     -41.127-123.754 -53.228  0.00  0.00    -0.263 OA
ATOM      3  N   UNL d   1     -41.710-122.831 -52.309  0.00  0.00    -0.205 NA
ENDROOT
BRANCH   3   4
ATOM      4  C   UNL d   1     -41.375-123.247 -51.691  0.00  0.00     0.102 C 
BRANCH   4   5
ATOM      5  C   UNL d   1     -41.134-122.853 -51.004  0.00  0.00     0.021 C 
BRANCH   5   6
ATOM      6  C   UNL d   1     -41.538-122.967 -50.298  0.00  0.00     0.002 A 
ATOM      7  C   UNL d   1     -41.139-123.301 -49.646  0.00  0.00     0.000 A 
ATOM      8  C   UNL d   1     -41.533-123.420 -48.932  0.00  0.00     0.000 A 
ATOM      9  C   UNL d   1     -42.329-123.210 -48.854  0.00  0.00     0.000 A 
ATOM     10  C   UNL d   1     -42.719-122.882 -49.495  0.00  0.00     0.000 A 
ATOM     11  C   UNL d   1     -42.322-122.761 -50.215  0.00  0.00     0.000 A 
ENDBRANCH   5   6
ENDBRANCH   4   5
ENDBRANCH   3   4
BRANCH   1  12
ATOM     12  C   UNL d   1     -41.916-122.679 -53.723  0.00  0.00     0.158 A 
ATOM     13  O   UNL d   1     -42.091-122.942 -54.488  0.00  0.00    -0.296 OA
ATOM     14  C   UNL d   1     -42.425-122.318 -54.921  0.00  0.00     0.134 A 
ATOM     15 BR   UNL d   1     -42.677-122.355 -55.711  0.00  0.00    -0.022 Br
ATOM     16  C   UNL d   1     -42.455-121.666 -54.416  0.00  0.00     0.034 A 
ATOM     17  C   UNL d   1     -42.147-121.880 -53.688  0.00  0.00     0.032 A 
ENDBRANCH   1  12
TORSDOF 4
ENDMDL
