MODEL 1
REMARK VINA RESULT:     -11.9      0.000      0.000
REMARK  4 active torsions:
REMARK  status: ('A' for Active; 'I' for Inactive)
REMARK    1  A    between atoms: N_2  and  S_1 
REMARK    2  A    between atoms: C_8  and  S_1 
REMARK       I    between atoms: C_3  and  N_2 
REMARK    3  A    between atoms: C_11  and  N_2 
REMARK       I    between atoms: N_4  and  C_3 
REMARK       I    between atoms: C_5  and  N_4 
REMARK       I    between atoms: N_9  and  C_5 
REMARK    4  A    between atoms: C_13  and  N_9 
ROOT
ATOM      1  N   UNL d   1      51.741  33.787  52.949  0.00  0.00    -0.182 N 
ATOM      2  C   UNL d   1      51.994  33.015  52.868  0.00  0.00     0.367 C 
ATOM      3  N   UNL d   1      52.698  32.789  53.241  0.00  0.00    -0.135 NA
ATOM      4  C   UNL d   1      52.981  32.016  53.179  0.00  0.00     0.373 C 
ATOM      5  N   UNL d   1      53.682  31.792  53.551  0.00  0.00    -0.191 NA
ATOM      6  O   UNL d   1      51.576  32.466  52.433  0.00  0.00    -0.243 OA
ATOM      7  O   UNL d   1      52.526  31.464  52.720  0.00  0.00    -0.242 OA
ENDROOT
BRANCH   1   8
ATOM      8  S   UNL d   1      51.029  34.035  52.577  0.00  0.00     0.275 S 
ATOM      9  O   UNL d   1      51.459  34.270  51.919  0.00  0.00    -0.199 OA
ATOM     10  O   UNL d   1      50.620  33.793  53.245  0.00  0.00    -0.199 OA
BRANCH   8  11
ATOM     11  C   UNL d   1      50.326  34.273  52.228  0.00  0.00     0.104 A 
ATOM     12  C   UNL d   1      50.226  34.229  51.414  0.00  0.00     0.013 A 
ATOM     13  C   UNL d   1      49.513  34.469  51.055  0.00  0.00     0.001 A 
ATOM     14  C   UNL d   1      48.901  34.753  51.511  0.00  0.00     0.000 A 
ATOM     15  C   UNL d   1      48.995  34.800  52.338  0.00  0.00     0.001 A 
ATOM     16  C   UNL d   1      49.708  34.560  52.696  0.00  0.00     0.013 A 
ENDBRANCH   8  11
ENDBRANCH   1   8
BRANCH   1  17
ATOM     17  C   UNL d   1      52.189  34.304  53.393  0.00  0.00     0.079 A 
ATOM     18  C   UNL d   1      52.062  34.371  54.192  0.00  0.00     0.018 A 
ATOM     19  C   UNL d   1      52.516  34.896  54.646  0.00  0.00     0.002 A 
ATOM     20  C   UNL d   1      53.100  35.355  54.286  0.00  0.00     0.000 A 
ATOM     21  C   UNL d   1      53.224  35.283  53.476  0.00  0.00     0.002 A 
ATOM     22  C   UNL d   1      52.770  34.761  53.035  0.00  0.00     0.018 A 
ENDBRANCH   1  17
BRANCH   5  23
ATOM     23  C   UNL d   1      54.107  32.347  53.992  0.00  0.00     0.086 A 
ATOM     24  C   UNL d   1      54.698  32.820  53.634  0.00  0.00     0.019 A 
ATOM     25  C   UNL d   1      55.115  33.365  54.075  0.00  0.00     0.002 A 
ATOM     26  C   UNL d   1      54.956  33.456  54.887  0.00  0.00     0.000 A 
ATOM     27  C   UNL d   1      54.366  32.987  55.258  0.00  0.00     0.002 A 
ATOM     28  C   UNL d   1      55.297  33.901  55.242  0.00  0.00     0.000 C 
ATOM     29  C   UNL d   1      53.951  32.436  54.792  0.00  0.00     0.019 A 
ENDBRANCH   5  23
TORSDOF 4
ENDMDL
