MODEL 1
REMARK VINA RESULT:      -3.2      0.000      0.000
REMARK  5 active torsions:
REMARK  status: ('A' for Active; 'I' for Inactive)
REMARK    1  A    between atoms: C_2  and  C_1 
REMARK    2  A    between atoms: C_16  and  C_8 
REMARK    3  A    between atoms: N_15  and  C_13 
REMARK    4  A    between atoms: C_19  and  N_15 
REMARK    5  A    between atoms: C_20  and  N_15 
ROOT
ATOM      1  C   UNL d   1     -41.764-122.850 -51.210  0.00  0.00     0.106 A 
ATOM      2  C   UNL d   1     -42.252-122.205 -51.356  0.00  0.00     0.304 A 
ATOM      3  C   UNL d   1     -41.392-123.233 -51.848  0.00  0.00     0.011 A 
ATOM      4  O   UNL d   1     -42.387-121.919 -52.146  0.00  0.00    -0.273 OA
ATOM      5  C   UNL d   1     -41.995-122.330 -52.766  0.00  0.00     0.105 A 
ATOM      6  C   UNL d   1     -41.507-122.975 -52.620  0.00  0.00     0.023 A 
ATOM      7  C   UNL d   1     -42.130-122.044 -53.556  0.00  0.00     0.042 A 
ATOM      8  C   UNL d   1     -41.737-122.456 -54.182  0.00  0.00     0.066 A 
ATOM      9  O   UNL d   1     -42.635-121.812 -50.694  0.00  0.00    -0.259 OA
ATOM     10  C   UNL d   1     -41.135-123.358 -53.258  0.00  0.00     0.004 A 
ATOM     11  C   UNL d   1     -41.249-123.100 -54.036  0.00  0.00     0.018 A 
ENDROOT
BRANCH   1  12
ATOM     12  C   UNL d   1     -41.651-123.107 -50.427  0.00  0.00     0.210 A 
ATOM     13  O   UNL d   1     -42.010-122.833 -49.729  0.00  0.00    -0.268 OA
ATOM     14  C   UNL d   1     -41.701-123.278 -49.107  0.00  0.00     0.204 A 
ATOM     15  N   UNL d   1     -41.160-123.817 -49.409  0.00  0.00    -0.121 NA
ATOM     16  N   UNL d   1     -41.123-123.720 -50.226  0.00  0.00    -0.121 NA
BRANCH  14  17
ATOM     17  C   UNL d   1     -41.854-123.247 -48.301  0.00  0.00     0.043 A 
ATOM     18  C   UNL d   1     -42.461-123.701 -47.981  0.00  0.00     0.004 A 
ATOM     19  C   UNL d   1     -42.610-123.666 -47.174  0.00  0.00     0.000 A 
ATOM     20  C   UNL d   1     -42.159-123.181 -46.676  0.00  0.00     0.000 A 
ATOM     21  C   UNL d   1     -41.557-122.732 -46.996  0.00  0.00     0.000 A 
ATOM     22  C   UNL d   1     -41.406-122.767 -47.814  0.00  0.00     0.004 A 
ENDBRANCH  14  17
ENDBRANCH   1  12
BRANCH   8  23
ATOM     23  N   UNL d   1     -41.848-122.195 -55.014  0.00  0.00    -0.304 N 
BRANCH  23  24
ATOM     24  C   UNL d   1     -41.172-122.180 -55.512  0.00  0.00     0.080 C 
ATOM     25  C   UNL d   1     -41.138-121.720 -56.192  0.00  0.00     0.021 C 
ENDBRANCH  23  24
BRANCH  23  26
ATOM     26  C   UNL d   1     -42.591-121.974 -55.289  0.00  0.00     0.080 C 
ATOM     27  C   UNL d   1     -42.797-122.117 -56.085  0.00  0.00     0.021 C 
ENDBRANCH  23  26
ENDBRANCH   8  23
TORSDOF 5
ENDMDL
