MODEL 1
REMARK VINA RESULT:      -3.4      0.000      0.000
REMARK  3 active torsions:
REMARK  status: ('A' for Active; 'I' for Inactive)
REMARK    1  A    between atoms: S_2  and  C_5 
REMARK    2  A    between atoms: C_7  and  S_2 
REMARK    3  A    between atoms: C_3  and  C_7 
ROOT
ATOM      1  C   UNL d   1      56.447   0.351  33.207  0.00  0.00     0.087 A 
ATOM      2  N   UNL d   1      55.715   0.184  32.860  0.00  0.00    -0.244 NA
ATOM      3  C   UNL d   1      57.130   0.367  32.749  0.00  0.00     0.043 A 
ATOM      4  C   UNL d   1      56.483   0.500  34.018  0.00  0.00     0.018 A 
ATOM      5  C   UNL d   1      57.899   0.682  33.902  0.00  0.00     0.001 A 
ATOM      6  C   UNL d   1      55.032   0.169  33.327  0.00  0.00     0.099 A 
ATOM      7  C   UNL d   1      57.863   0.534  33.095  0.00  0.00     0.008 A 
ATOM      8  C   UNL d   1      57.216   0.666  34.364  0.00  0.00     0.002 A 
ATOM      9  C   UNL d   1      55.813   0.486  34.483  0.00  0.00     0.003 A 
ATOM     10  C   UNL d   1      55.081   0.320  34.140  0.00  0.00     0.021 A 
ENDROOT
BRANCH   3  11
ATOM     11  S   UNL d   1      57.081   0.216  31.935  0.00  0.00    -0.101 SA
BRANCH  11  12
ATOM     12  C   UNL d   1      57.596   0.309  31.285  0.00  0.00     0.160 C 
BRANCH  12  13
ATOM     13  C   UNL d   1      57.572   0.099  30.484  0.00  0.00     0.197 C 
ATOM     14  O   UNL d   1      57.396   0.669  29.911  0.00  0.00    -0.647 OA
ATOM     15  O   UNL d   1      57.726  -0.681  30.256  0.00  0.00    -0.647 OA
ENDBRANCH  12  13
ENDBRANCH  11  12
ENDBRANCH   3  11
TORSDOF 3
ENDMDL
MODEL 2
REMARK VINA RESULT:      -3.2      1.159      1.734
REMARK  3 active torsions:
REMARK  status: ('A' for Active; 'I' for Inactive)
REMARK    1  A    between atoms: S_2  and  C_5 
REMARK    2  A    between atoms: C_7  and  S_2 
REMARK    3  A    between atoms: C_3  and  C_7 
ROOT
ATOM      1  C   UNL d   1      56.805  -0.182  32.854  0.00  0.00     0.087 A 
ATOM      2  N   UNL d   1      57.267   0.438  33.148  0.00  0.00    -0.244 NA
ATOM      3  C   UNL d   1      56.888  -0.430  32.074  0.00  0.00     0.043 A 
ATOM      4  C   UNL d   1      56.260  -0.548  33.354  0.00  0.00     0.018 A 
ATOM      5  C   UNL d   1      55.883  -1.414  32.277  0.00  0.00     0.001 A 
ATOM      6  C   UNL d   1      57.179   0.682  33.933  0.00  0.00     0.099 A 
ATOM      7  C   UNL d   1      56.426  -1.049  31.780  0.00  0.00     0.008 A 
ATOM      8  C   UNL d   1      55.798  -1.168  33.060  0.00  0.00     0.002 A 
ATOM      9  C   UNL d   1      56.169  -0.312  34.129  0.00  0.00     0.003 A 
ATOM     10  C   UNL d   1      56.628   0.306  34.425  0.00  0.00     0.021 A 
ENDROOT
BRANCH   3  11
ATOM     11  S   UNL d   1      57.439  -0.054  31.582  0.00  0.00    -0.101 SA
BRANCH  11  12
ATOM     12  C   UNL d   1      57.663  -0.128  30.781  0.00  0.00     0.160 C 
BRANCH  12  13
ATOM     13  C   UNL d   1      58.130   0.315  30.260  0.00  0.00     0.197 C 
ATOM     14  O   UNL d   1      58.942   0.393  30.395  0.00  0.00    -0.647 OA
ATOM     15  O   UNL d   1      57.785   0.681  29.603  0.00  0.00    -0.647 OA
ENDBRANCH  12  13
ENDBRANCH  11  12
ENDBRANCH   3  11
TORSDOF 3
ENDMDL
MODEL 3
REMARK VINA RESULT:      -3.0      3.015      4.146
REMARK  3 active torsions:
REMARK  status: ('A' for Active; 'I' for Inactive)
REMARK    1  A    between atoms: S_2  and  C_5 
REMARK    2  A    between atoms: C_7  and  S_2 
REMARK    3  A    between atoms: C_3  and  C_7 
ROOT
ATOM      1  C   UNL d   1      58.173  -0.557  29.960  0.00  0.00     0.087 A 
ATOM      2  N   UNL d   1      57.790  -0.971  30.564  0.00  0.00    -0.244 NA
ATOM      3  C   UNL d   1      58.594  -0.961  29.379  0.00  0.00     0.043 A 
ATOM      4  C   UNL d   1      58.129   0.267  29.947  0.00  0.00     0.018 A 
ATOM      5  C   UNL d   1      58.933   0.274  28.762  0.00  0.00     0.001 A 
ATOM      6  C   UNL d   1      57.370  -0.559  31.145  0.00  0.00     0.099 A 
ATOM      7  C   UNL d   1      58.977  -0.546  28.775  0.00  0.00     0.008 A 
ATOM      8  C   UNL d   1      58.513   0.682  29.343  0.00  0.00     0.002 A 
ATOM      9  C   UNL d   1      57.716   0.679  30.517  0.00  0.00     0.003 A 
ATOM     10  C   UNL d   1      57.333   0.269  31.122  0.00  0.00     0.021 A 
ENDROOT
BRANCH   3  11
ATOM     11  S   UNL d   1      58.631  -1.789  29.402  0.00  0.00    -0.101 SA
BRANCH  11  12
ATOM     12  C   UNL d   1      58.964  -2.378  28.915  0.00  0.00     0.160 C 
BRANCH  12  13
ATOM     13  C   UNL d   1      59.108  -3.191  28.993  0.00  0.00     0.197 C 
ATOM     14  O   UNL d   1      58.518  -3.737  28.798  0.00  0.00    -0.647 OA
ATOM     15  O   UNL d   1      59.841  -3.458  29.267  0.00  0.00    -0.647 OA
ENDBRANCH  12  13
ENDBRANCH  11  12
ENDBRANCH   3  11
TORSDOF 3
ENDMDL
MODEL 4
REMARK VINA RESULT:      -2.9      2.349      4.249
REMARK  3 active torsions:
REMARK  status: ('A' for Active; 'I' for Inactive)
REMARK    1  A    between atoms: S_2  and  C_5 
REMARK    2  A    between atoms: C_7  and  S_2 
REMARK    3  A    between atoms: C_3  and  C_7 
ROOT
ATOM      1  C   UNL d   1      58.132  -0.954  30.031  0.00  0.00     0.087 A 
ATOM      2  N   UNL d   1      58.125  -1.777  30.118  0.00  0.00    -0.244 NA
ATOM      3  C   UNL d   1      57.743  -0.475  30.576  0.00  0.00     0.043 A 
ATOM      4  C   UNL d   1      58.533  -0.621  29.392  0.00  0.00     0.018 A 
ATOM      5  C   UNL d   1      58.149   0.679  29.854  0.00  0.00     0.001 A 
ATOM      6  C   UNL d   1      58.517  -2.253  29.566  0.00  0.00     0.099 A 
ATOM      7  C   UNL d   1      57.750   0.347  30.490  0.00  0.00     0.008 A 
ATOM      8  C   UNL d   1      58.539   0.202  29.306  0.00  0.00     0.002 A 
ATOM      9  C   UNL d   1      58.921  -1.085  28.845  0.00  0.00     0.003 A 
ATOM     10  C   UNL d   1      58.917  -1.906  28.928  0.00  0.00     0.021 A 
ENDROOT
BRANCH   3  11
ATOM     11  S   UNL d   1      57.344  -0.822  31.215  0.00  0.00    -0.101 SA
BRANCH  11  12
ATOM     12  C   UNL d   1      56.766  -0.566  31.759  0.00  0.00     0.160 C 
BRANCH  12  13
ATOM     13  C   UNL d   1      56.452  -0.865  32.465  0.00  0.00     0.197 C 
ATOM     14  O   UNL d   1      55.952  -1.524  32.450  0.00  0.00    -0.647 OA
ATOM     15  O   UNL d   1      56.639  -0.506  33.186  0.00  0.00    -0.647 OA
ENDBRANCH  12  13
ENDBRANCH  11  12
ENDBRANCH   3  11
TORSDOF 3
ENDMDL
MODEL 5
REMARK VINA RESULT:      -2.6      4.098      5.518
REMARK  3 active torsions:
REMARK  status: ('A' for Active; 'I' for Inactive)
REMARK    1  A    between atoms: S_2  and  C_5 
REMARK    2  A    between atoms: C_7  and  S_2 
REMARK    3  A    between atoms: C_3  and  C_7 
ROOT
ATOM      1  C   UNL d   1      59.596  -2.160  28.963  0.00  0.00     0.087 A 
ATOM      2  N   UNL d   1      58.869  -2.547  28.879  0.00  0.00    -0.244 NA
ATOM      3  C   UNL d   1      59.622  -1.349  29.100  0.00  0.00     0.043 A 
ATOM      4  C   UNL d   1      60.293  -2.598  28.907  0.00  0.00     0.018 A 
ATOM      5  C   UNL d   1      61.042  -1.399  29.129  0.00  0.00     0.001 A 
ATOM      6  C   UNL d   1      58.849  -3.362  28.740  0.00  0.00     0.099 A 
ATOM      7  C   UNL d   1      60.349  -0.963  29.184  0.00  0.00     0.008 A 
ATOM      8  C   UNL d   1      61.019  -2.212  28.991  0.00  0.00     0.002 A 
ATOM      9  C   UNL d   1      60.279  -3.403  28.770  0.00  0.00     0.003 A 
ATOM     10  C   UNL d   1      59.556  -3.791  28.686  0.00  0.00     0.021 A 
ENDROOT
BRANCH   3  11
ATOM     11  S   UNL d   1      58.915  -0.920  29.155  0.00  0.00    -0.101 SA
BRANCH  11  12
ATOM     12  C   UNL d   1      58.717  -0.129  29.331  0.00  0.00     0.160 C 
BRANCH  12  13
ATOM     13  C   UNL d   1      58.010   0.301  29.380  0.00  0.00     0.197 C 
ATOM     14  O   UNL d   1      57.710   0.682  28.710  0.00  0.00    -0.647 OA
ATOM     15  O   UNL d   1      57.605   0.351  30.100  0.00  0.00    -0.647 OA
ENDBRANCH  12  13
ENDBRANCH  11  12
ENDBRANCH   3  11
TORSDOF 3
ENDMDL
MODEL 6
REMARK VINA RESULT:      -2.2      2.472      4.648
REMARK  3 active torsions:
REMARK  status: ('A' for Active; 'I' for Inactive)
REMARK    1  A    between atoms: S_2  and  C_5 
REMARK    2  A    between atoms: C_7  and  S_2 
REMARK    3  A    between atoms: C_3  and  C_7 
ROOT
ATOM      1  C   UNL d   1      59.355   0.520  29.975  0.00  0.00     0.087 A 
ATOM      2  N   UNL d   1      59.807   0.550  30.666  0.00  0.00    -0.244 NA
ATOM      3  C   UNL d   1      58.537   0.440  30.015  0.00  0.00     0.043 A 
ATOM      4  C   UNL d   1      59.735   0.570  29.244  0.00  0.00     0.018 A 
ATOM      5  C   UNL d   1      58.462   0.459  28.596  0.00  0.00     0.001 A 
ATOM      6  C   UNL d   1      60.629   0.631  30.618  0.00  0.00     0.099 A 
ATOM      7  C   UNL d   1      58.084   0.409  29.323  0.00  0.00     0.008 A 
ATOM      8  C   UNL d   1      59.282   0.539  28.552  0.00  0.00     0.002 A 
ATOM      9  C   UNL d   1      60.545   0.649  29.190  0.00  0.00     0.003 A 
ATOM     10  C   UNL d   1      60.999   0.680  29.878  0.00  0.00     0.021 A 
ENDROOT
BRANCH   3  11
ATOM     11  S   UNL d   1      58.167   0.390  30.755  0.00  0.00    -0.101 SA
BRANCH  11  12
ATOM     12  C   UNL d   1      57.380   0.301  31.017  0.00  0.00     0.160 C 
BRANCH  12  13
ATOM     13  C   UNL d   1      57.020   0.040  31.717  0.00  0.00     0.197 C 
ATOM     14  O   UNL d   1      56.785  -0.749  31.792  0.00  0.00    -0.647 OA
ATOM     15  O   UNL d   1      56.897   0.569  32.341  0.00  0.00    -0.647 OA
ENDBRANCH  12  13
ENDBRANCH  11  12
ENDBRANCH   3  11
TORSDOF 3
ENDMDL
MODEL 7
REMARK VINA RESULT:      -2.0      4.454      5.945
REMARK  3 active torsions:
REMARK  status: ('A' for Active; 'I' for Inactive)
REMARK    1  A    between atoms: S_2  and  C_5 
REMARK    2  A    between atoms: C_7  and  S_2 
REMARK    3  A    between atoms: C_3  and  C_7 
ROOT
ATOM      1  C   UNL d   1      59.747  -2.564  28.904  0.00  0.00     0.087 A 
ATOM      2  N   UNL d   1      60.454  -2.199  29.130  0.00  0.00    -0.244 NA
ATOM      3  C   UNL d   1      59.067  -2.116  28.782  0.00  0.00     0.043 A 
ATOM      4  C   UNL d   1      59.732  -3.383  28.802  0.00  0.00     0.018 A 
ATOM      5  C   UNL d   1      58.345  -3.296  28.455  0.00  0.00     0.001 A 
ATOM      6  C   UNL d   1      61.133  -2.655  29.251  0.00  0.00     0.099 A 
ATOM      7  C   UNL d   1      58.360  -2.481  28.556  0.00  0.00     0.008 A 
ATOM      8  C   UNL d   1      59.025  -3.748  28.576  0.00  0.00     0.002 A 
ATOM      9  C   UNL d   1      60.399  -3.838  28.920  0.00  0.00     0.003 A 
ATOM     10  C   UNL d   1      61.106  -3.477  29.145  0.00  0.00     0.021 A 
ENDROOT
BRANCH   3  11
ATOM     11  S   UNL d   1      59.095  -1.294  28.887  0.00  0.00    -0.101 SA
BRANCH  11  12
ATOM     12  C   UNL d   1      58.536  -0.705  29.078  0.00  0.00     0.160 C 
BRANCH  12  13
ATOM     13  C   UNL d   1      58.573   0.107  29.243  0.00  0.00     0.197 C 
ATOM     14  O   UNL d   1      58.487   0.376  30.020  0.00  0.00    -0.647 OA
ATOM     15  O   UNL d   1      58.697   0.648  28.630  0.00  0.00    -0.647 OA
ENDBRANCH  12  13
ENDBRANCH  11  12
ENDBRANCH   3  11
TORSDOF 3
ENDMDL
MODEL 8
REMARK VINA RESULT:      -1.4      2.025      3.723
REMARK  3 active torsions:
REMARK  status: ('A' for Active; 'I' for Inactive)
REMARK    1  A    between atoms: S_2  and  C_5 
REMARK    2  A    between atoms: C_7  and  S_2 
REMARK    3  A    between atoms: C_3  and  C_7 
ROOT
ATOM      1  C   UNL d   1      58.481   0.637  31.406  0.00  0.00     0.087 A 
ATOM      2  N   UNL d   1      58.895   0.672  32.121  0.00  0.00    -0.244 NA
ATOM      3  C   UNL d   1      57.658   0.628  31.401  0.00  0.00     0.043 A 
ATOM      4  C   UNL d   1      58.903   0.612  30.698  0.00  0.00     0.018 A 
ATOM      5  C   UNL d   1      57.664   0.568  29.981  0.00  0.00     0.001 A 
ATOM      6  C   UNL d   1      59.722   0.681  32.119  0.00  0.00     0.099 A 
ATOM      7  C   UNL d   1      57.243   0.593  30.686  0.00  0.00     0.008 A 
ATOM      8  C   UNL d   1      58.489   0.577  29.983  0.00  0.00     0.002 A 
ATOM      9  C   UNL d   1      59.719   0.621  30.689  0.00  0.00     0.003 A 
ATOM     10  C   UNL d   1      60.135   0.655  31.401  0.00  0.00     0.021 A 
ENDROOT
BRANCH   3  11
ATOM     11  S   UNL d   1      57.244   0.654  32.119  0.00  0.00    -0.101 SA
BRANCH  11  12
ATOM     12  C   UNL d   1      56.451   0.531  32.349  0.00  0.00     0.160 C 
BRANCH  12  13
ATOM     13  C   UNL d   1      56.076   0.235  33.026  0.00  0.00     0.197 C 
ATOM     14  O   UNL d   1      55.574  -0.420  32.969  0.00  0.00    -0.647 OA
ATOM     15  O   UNL d   1      56.204   0.594  33.760  0.00  0.00    -0.647 OA
ENDBRANCH  12  13
ENDBRANCH  11  12
ENDBRANCH   3  11
TORSDOF 3
ENDMDL
