MODEL 1
REMARK VINA RESULT:      17.2      0.000      0.000
REMARK  2 active torsions:
REMARK  status: ('A' for Active; 'I' for Inactive)
REMARK    1  A    between atoms: C_2  and  C_1 
REMARK       I    between atoms: N_3  and  C_2 
REMARK    2  A    between atoms: C_6  and  N_3 
ROOT
ATOM      1  C   UNL d   1      45.909 -16.650  44.216  0.00  0.00     0.303 C 
ATOM      2  N   UNL d   1      45.756 -16.221  44.911  0.00  0.00    -0.206 NA
ATOM      3  O   UNL d   1      45.892 -16.268  43.488  0.00  0.00    -0.263 OA
ENDROOT
BRANCH   2   4
ATOM      4  C   UNL d   1      45.587 -15.413  44.865  0.00  0.00     0.086 A 
ATOM      5  C   UNL d   1      46.208 -14.865  44.796  0.00  0.00     0.031 A 
ATOM      6  C   UNL d   1      46.027 -14.065  44.751  0.00  0.00     0.059 A 
ATOM      7 CL   UNL d   1      46.646 -13.525  44.682  0.00  0.00    -0.082 Cl
ATOM      8  C   UNL d   1      45.250 -13.816  44.773  0.00  0.00     0.011 A 
ATOM      9  C   UNL d   1      44.635 -14.348  44.841  0.00  0.00     0.002 A 
ATOM     10  C   UNL d   1      44.802 -15.156  44.887  0.00  0.00     0.018 A 
ATOM     11  C   UNL d   1      44.196 -15.692  44.955  0.00  0.00     0.002 C 
ENDBRANCH   2   4
BRANCH   1  12
ATOM     12  C   UNL d   1      46.077 -17.457  44.262  0.00  0.00     0.176 A 
ATOM     13  C   UNL d   1      46.277 -17.947  43.625  0.00  0.00     0.110 A 
ATOM     14  N   UNL d   1      46.400 -18.709  43.916  0.00  0.00    -0.233 NA
ATOM     15  C   UNL d   1      46.341 -17.712  42.843  0.00  0.00     0.023 C 
ATOM     16  C   UNL d   1      46.274 -18.690  44.741  0.00  0.00     0.259 A 
ATOM     17  O   UNL d   1      46.076 -17.913  44.946  0.00  0.00    -0.296 OA
ENDBRANCH   1  12
TORSDOF 2
ENDMDL
MODEL 2
REMARK VINA RESULT:      17.3      2.006      4.100
REMARK  2 active torsions:
REMARK  status: ('A' for Active; 'I' for Inactive)
REMARK    1  A    between atoms: C_2  and  C_1 
REMARK       I    between atoms: N_3  and  C_2 
REMARK    2  A    between atoms: C_6  and  N_3 
ROOT
ATOM      1  C   UNL d   1      45.950 -17.448  43.855  0.00  0.00     0.303 C 
ATOM      2  N   UNL d   1      46.567 -17.979  44.017  0.00  0.00    -0.206 NA
ATOM      3  O   UNL d   1      45.340 -17.671  43.349  0.00  0.00    -0.263 OA
ENDROOT
BRANCH   2   4
ATOM      4  C   UNL d   1      46.565 -18.729  43.669  0.00  0.00     0.086 A 
ATOM      5  C   UNL d   1      46.524 -18.801  42.843  0.00  0.00     0.031 A 
ATOM      6  C   UNL d   1      46.522 -19.552  42.510  0.00  0.00     0.059 A 
ATOM      7 CL   UNL d   1      46.481 -19.618  41.689  0.00  0.00    -0.082 Cl
ATOM      8  C   UNL d   1      46.560 -20.214  42.985  0.00  0.00     0.011 A 
ATOM      9  C   UNL d   1      46.601 -20.152  43.798  0.00  0.00     0.002 A 
ATOM     10  C   UNL d   1      46.603 -19.403  44.146  0.00  0.00     0.018 A 
ATOM     11  C   UNL d   1      46.643 -19.332  44.955  0.00  0.00     0.002 C 
ENDBRANCH   2   4
BRANCH   1  12
ATOM     12  C   UNL d   1      45.952 -16.699  44.202  0.00  0.00     0.176 A 
ATOM     13  C   UNL d   1      45.341 -16.375  44.657  0.00  0.00     0.110 A 
ATOM     14  N   UNL d   1      45.570 -15.619  44.895  0.00  0.00    -0.233 NA
ATOM     15  C   UNL d   1      44.631 -16.743  44.838  0.00  0.00     0.023 C 
ATOM     16  C   UNL d   1      46.331 -15.475  44.584  0.00  0.00     0.259 A 
ATOM     17  O   UNL d   1      46.559 -16.147  44.158  0.00  0.00    -0.296 OA
ENDBRANCH   1  12
TORSDOF 2
ENDMDL
MODEL 3
REMARK VINA RESULT:      17.9      7.669      8.522
REMARK  2 active torsions:
REMARK  status: ('A' for Active; 'I' for Inactive)
REMARK    1  A    between atoms: C_2  and  C_1 
REMARK       I    between atoms: N_3  and  C_2 
REMARK    2  A    between atoms: C_6  and  N_3 
ROOT
ATOM      1  C   UNL d   1      44.521 -14.864  36.935  0.00  0.00     0.303 C 
ATOM      2  N   UNL d   1      44.217 -15.350  36.335  0.00  0.00    -0.206 NA
ATOM      3  O   UNL d   1      44.021 -14.580  37.524  0.00  0.00    -0.263 OA
ENDROOT
BRANCH   2   4
ATOM      4  C   UNL d   1      43.414 -15.546  36.333  0.00  0.00     0.086 A 
ATOM      5  C   UNL d   1      42.842 -14.944  36.332  0.00  0.00     0.031 A 
ATOM      6  C   UNL d   1      42.048 -15.152  36.331  0.00  0.00     0.059 A 
ATOM      7 CL   UNL d   1      41.483 -14.551  36.330  0.00  0.00    -0.082 Cl
ATOM      8  C   UNL d   1      41.827 -15.938  36.330  0.00  0.00     0.011 A 
ATOM      9  C   UNL d   1      42.382 -16.535  36.331  0.00  0.00     0.002 A 
ATOM     10  C   UNL d   1      43.185 -16.341  36.332  0.00  0.00     0.018 A 
ATOM     11  C   UNL d   1      43.746 -16.929  36.333  0.00  0.00     0.002 C 
ENDBRANCH   2   4
BRANCH   1  12
ATOM     12  C   UNL d   1      45.323 -14.668  36.937  0.00  0.00     0.176 A 
ATOM     13  C   UNL d   1      45.661 -14.016  37.320  0.00  0.00     0.110 A 
ATOM     14  N   UNL d   1      46.474 -14.029  37.180  0.00  0.00    -0.233 NA
ATOM     15  C   UNL d   1      45.256 -13.456  37.760  0.00  0.00     0.023 C 
ATOM     16  C   UNL d   1      46.639 -14.696  36.706  0.00  0.00     0.259 A 
ATOM     17  O   UNL d   1      45.923 -15.085  36.561  0.00  0.00    -0.296 OA
ENDBRANCH   1  12
TORSDOF 2
ENDMDL
