MODEL 1
REMARK VINA RESULT:      -4.0      0.000      0.000
REMARK  4 active torsions:
REMARK  status: ('A' for Active; 'I' for Inactive)
REMARK    1  A    between atoms: C_6  and  N_2 
REMARK    2  A    between atoms: C_11  and  C_6 
REMARK    3  A    between atoms: C_10  and  C_11 
REMARK       I    between atoms: N_14  and  C_10 
REMARK    4  A    between atoms: C_16  and  N_14 
ROOT
ATOM      1  C   UNL d   1      33.241  19.601 -22.265  0.00  0.00     0.082 C 
ENDROOT
BRANCH   1   2
ATOM      2  C   UNL d   1      33.047  19.022 -22.682  0.00  0.00     0.281 C 
ATOM      3  N   UNL d   1      32.777  18.884 -23.445  0.00  0.00    -0.208 NA
ATOM      4  O   UNL d   1      33.220  18.623 -22.054  0.00  0.00    -0.265 OA
BRANCH   3   5
ATOM      5  C   UNL d   1      32.623  18.105 -23.687  0.00  0.00     0.087 A 
ATOM      6  C   UNL d   1      31.851  17.880 -23.852  0.00  0.00     0.046 A 
ATOM      7  C   UNL d   1      31.697  17.101 -24.094  0.00  0.00     0.124 A 
ATOM      8  O   UNL d   1      30.925  16.877 -24.259  0.00  0.00    -0.301 OA
ATOM      9  C   UNL d   1      32.302  16.560 -24.169  0.00  0.00     0.123 A 
ATOM     10  C   UNL d   1      30.758  16.110 -24.499  0.00  0.00     0.149 A 
ATOM     11  C   UNL d   1      31.376  15.569 -24.573  0.00  0.00     0.149 A 
ATOM     12  O   UNL d   1      32.148  15.794 -24.408  0.00  0.00    -0.301 OA
ATOM     13  C   UNL d   1      33.074  16.798 -24.001  0.00  0.00     0.028 A 
ATOM     14  C   UNL d   1      33.241  17.564 -23.760  0.00  0.00     0.021 A 
ENDBRANCH   3   5
ENDBRANCH   1   2
BRANCH   1  15
ATOM     15  C   UNL d   1      32.961  20.305 -21.955  0.00  0.00     0.100 C 
BRANCH  15  16
ATOM     16  N   UNL d   1      32.983  21.084 -22.162  0.00  0.00    -0.197 N 
ATOM     17  S   UNL d   1      33.024  21.880 -22.438  0.00  0.00     0.274 S 
ATOM     18  C   UNL d   1      32.815  22.389 -21.792  0.00  0.00     0.109 A 
ATOM     19  O   UNL d   1      32.991  22.757 -22.471  0.00  0.00    -0.200 OA
ATOM     20  O   UNL d   1      33.241  22.064 -23.228  0.00  0.00    -0.200 OA
ATOM     21  C   UNL d   1      32.647  21.906 -21.125  0.00  0.00     0.069 A 
ATOM     22  C   UNL d   1      32.757  23.222 -21.730  0.00  0.00     0.013 A 
ATOM     23  C   UNL d   1      32.421  22.255 -20.393  0.00  0.00     0.005 A 
ATOM     24  C   UNL d   1      32.750  21.104 -21.351  0.00  0.00     0.275 A 
ATOM     25  C   UNL d   1      32.367  23.086 -20.342  0.00  0.00     0.000 A 
ATOM     26  C   UNL d   1      32.535  23.568 -21.009  0.00  0.00     0.001 A 
ATOM     27  O   UNL d   1      32.681  20.489 -21.009  0.00  0.00    -0.266 OA
ENDBRANCH  15  16
ENDBRANCH   1  15
TORSDOF 4
ENDMDL
MODEL 2
REMARK VINA RESULT:      -3.8      1.348      5.755
REMARK  4 active torsions:
REMARK  status: ('A' for Active; 'I' for Inactive)
REMARK    1  A    between atoms: C_6  and  N_2 
REMARK    2  A    between atoms: C_11  and  C_6 
REMARK    3  A    between atoms: C_10  and  C_11 
REMARK       I    between atoms: N_14  and  C_10 
REMARK    4  A    between atoms: C_16  and  N_14 
ROOT
ATOM      1  C   UNL d   1      32.682  19.249 -22.897  0.00  0.00     0.082 C 
ENDROOT
BRANCH   1   2
ATOM      2  C   UNL d   1      32.680  19.795 -22.398  0.00  0.00     0.281 C 
ATOM      3  N   UNL d   1      32.339  19.951 -21.668  0.00  0.00    -0.208 NA
ATOM      4  O   UNL d   1      33.148  20.135 -22.897  0.00  0.00    -0.265 OA
BRANCH   3   5
ATOM      5  C   UNL d   1      32.500  20.673 -21.290  0.00  0.00     0.087 A 
ATOM      6  C   UNL d   1      32.076  21.342 -21.504  0.00  0.00     0.046 A 
ATOM      7  C   UNL d   1      32.237  22.064 -21.125  0.00  0.00     0.124 A 
ATOM      8  O   UNL d   1      31.812  22.733 -21.339  0.00  0.00    -0.301 OA
ATOM      9  C   UNL d   1      32.808  22.113 -20.547  0.00  0.00     0.123 A 
ATOM     10  C   UNL d   1      31.961  23.453 -20.974  0.00  0.00     0.149 A 
ATOM     11  C   UNL d   1      32.541  23.494 -20.390  0.00  0.00     0.149 A 
ATOM     12  O   UNL d   1      32.965  22.824 -20.176  0.00  0.00    -0.301 OA
ATOM     13  C   UNL d   1      33.228  21.433 -20.340  0.00  0.00     0.028 A 
ATOM     14  C   UNL d   1      33.080  20.714 -20.705  0.00  0.00     0.021 A 
ENDBRANCH   3   5
ENDBRANCH   1   2
BRANCH   1  15
ATOM     15  C   UNL d   1      32.468  18.467 -23.009  0.00  0.00     0.100 C 
BRANCH  15  16
ATOM     16  N   UNL d   1      32.018  18.054 -23.535  0.00  0.00    -0.197 N 
ATOM     17  S   UNL d   1      31.510  17.675 -24.090  0.00  0.00     0.274 S 
ATOM     18  C   UNL d   1      31.811  16.893 -24.226  0.00  0.00     0.109 A 
ATOM     19  O   UNL d   1      31.155  17.079 -24.630  0.00  0.00    -0.200 OA
ATOM     20  O   UNL d   1      30.838  18.062 -24.413  0.00  0.00    -0.200 OA
ATOM     21  C   UNL d   1      32.500  16.796 -23.756  0.00  0.00     0.069 A 
ATOM     22  C   UNL d   1      31.545  16.266 -24.714  0.00  0.00     0.013 A 
ATOM     23  C   UNL d   1      32.928  16.071 -23.772  0.00  0.00     0.005 A 
ATOM     24  C   UNL d   1      32.629  17.508 -23.331  0.00  0.00     0.275 A 
ATOM     25  C   UNL d   1      32.655  15.453 -24.261  0.00  0.00     0.000 A 
ATOM     26  C   UNL d   1      31.965  15.550 -24.731  0.00  0.00     0.001 A 
ATOM     27  O   UNL d   1      33.121  17.717 -22.868  0.00  0.00    -0.266 OA
ENDBRANCH  15  16
ENDBRANCH   1  15
TORSDOF 4
ENDMDL
MODEL 3
REMARK VINA RESULT:      -2.4      1.427      5.816
REMARK  4 active torsions:
REMARK  status: ('A' for Active; 'I' for Inactive)
REMARK    1  A    between atoms: C_6  and  N_2 
REMARK    2  A    between atoms: C_11  and  C_6 
REMARK    3  A    between atoms: C_10  and  C_11 
REMARK       I    between atoms: N_14  and  C_10 
REMARK    4  A    between atoms: C_16  and  N_14 
ROOT
ATOM      1  C   UNL d   1      32.897  18.639 -22.929  0.00  0.00     0.082 C 
ENDROOT
BRANCH   1   2
ATOM      2  C   UNL d   1      32.889  19.319 -22.640  0.00  0.00     0.281 C 
ATOM      3  N   UNL d   1      32.968  19.667 -21.901  0.00  0.00    -0.208 NA
ATOM      4  O   UNL d   1      32.771  19.532 -23.364  0.00  0.00    -0.265 OA
BRANCH   3   5
ATOM      5  C   UNL d   1      32.918  20.493 -21.832  0.00  0.00     0.087 A 
ATOM      6  C   UNL d   1      32.554  20.822 -21.174  0.00  0.00     0.046 A 
ATOM      7  C   UNL d   1      32.505  21.647 -21.107  0.00  0.00     0.124 A 
ATOM      8  O   UNL d   1      32.141  21.976 -20.448  0.00  0.00    -0.301 OA
ATOM      9  C   UNL d   1      32.812  22.132 -21.685  0.00  0.00     0.123 A 
ATOM     10  C   UNL d   1      32.084  22.790 -20.368  0.00  0.00     0.149 A 
ATOM     11  C   UNL d   1      32.398  23.274 -20.958  0.00  0.00     0.149 A 
ATOM     12  O   UNL d   1      32.762  22.945 -21.616  0.00  0.00    -0.301 OA
ATOM     13  C   UNL d   1      33.175  21.791 -22.342  0.00  0.00     0.028 A 
ATOM     14  C   UNL d   1      33.232  20.977 -22.422  0.00  0.00     0.021 A 
ENDBRANCH   3   5
ENDBRANCH   1   2
BRANCH   1  15
ATOM     15  C   UNL d   1      32.460  18.120 -23.388  0.00  0.00     0.100 C 
BRANCH  15  16
ATOM     16  N   UNL d   1      32.420  17.321 -23.488  0.00  0.00    -0.197 N 
ATOM     17  S   UNL d   1      32.430  16.480 -23.556  0.00  0.00     0.274 S 
ATOM     18  C   UNL d   1      31.775  16.251 -24.043  0.00  0.00     0.109 A 
ATOM     19  O   UNL d   1      32.224  15.655 -23.776  0.00  0.00    -0.200 OA
ATOM     20  O   UNL d   1      33.018  16.013 -23.179  0.00  0.00    -0.200 OA
ATOM     21  C   UNL d   1      31.365  16.948 -24.272  0.00  0.00     0.069 A 
ATOM     22  C   UNL d   1      31.503  15.503 -24.303  0.00  0.00     0.013 A 
ATOM     23  C   UNL d   1      30.683  16.900 -24.762  0.00  0.00     0.005 A 
ATOM     24  C   UNL d   1      31.761  17.606 -23.932  0.00  0.00     0.275 A 
ATOM     25  C   UNL d   1      30.421  16.150 -25.015  0.00  0.00     0.000 A 
ATOM     26  C   UNL d   1      30.830  15.453 -24.786  0.00  0.00     0.001 A 
ATOM     27  O   UNL d   1      31.649  18.304 -23.949  0.00  0.00    -0.266 OA
ENDBRANCH  15  16
ENDBRANCH   1  15
TORSDOF 4
ENDMDL
MODEL 4
REMARK VINA RESULT:      -2.0      1.645      5.938
REMARK  4 active torsions:
REMARK  status: ('A' for Active; 'I' for Inactive)
REMARK    1  A    between atoms: C_6  and  N_2 
REMARK    2  A    between atoms: C_11  and  C_6 
REMARK    3  A    between atoms: C_10  and  C_11 
REMARK       I    between atoms: N_14  and  C_10 
REMARK    4  A    between atoms: C_16  and  N_14 
ROOT
ATOM      1  C   UNL d   1      32.257  20.875 -21.953  0.00  0.00     0.082 C 
ENDROOT
BRANCH   1   2
ATOM      2  C   UNL d   1      32.361  21.367 -21.412  0.00  0.00     0.281 C 
ATOM      3  N   UNL d   1      32.919  21.931 -21.199  0.00  0.00    -0.208 NA
ATOM      4  O   UNL d   1      31.697  21.092 -21.152  0.00  0.00    -0.265 OA
BRANCH   3   5
ATOM      5  C   UNL d   1      32.802  22.379 -20.510  0.00  0.00     0.087 A 
ATOM      6  C   UNL d   1      33.079  22.094 -19.792  0.00  0.00     0.046 A 
ATOM      7  C   UNL d   1      32.962  22.543 -19.103  0.00  0.00     0.124 A 
ATOM      8  O   UNL d   1      33.239  22.257 -18.385  0.00  0.00    -0.301 OA
ATOM      9  C   UNL d   1      32.577  23.260 -19.134  0.00  0.00     0.123 A 
ATOM     10  C   UNL d   1      33.130  22.690 -17.697  0.00  0.00     0.149 A 
ATOM     11  C   UNL d   1      32.740  23.415 -17.736  0.00  0.00     0.149 A 
ATOM     12  O   UNL d   1      32.463  23.701 -18.454  0.00  0.00    -0.301 OA
ATOM     13  C   UNL d   1      32.303  23.537 -19.861  0.00  0.00     0.028 A 
ATOM     14  C   UNL d   1      32.412  23.105 -20.549  0.00  0.00     0.021 A 
ENDBRANCH   3   5
ENDBRANCH   1   2
BRANCH   1  15
ATOM     15  C   UNL d   1      32.655  20.377 -22.467  0.00  0.00     0.100 C 
BRANCH  15  16
ATOM     16  N   UNL d   1      32.821  19.589 -22.505  0.00  0.00    -0.197 N 
ATOM     17  S   UNL d   1      32.998  18.765 -22.480  0.00  0.00     0.274 S 
ATOM     18  C   UNL d   1      33.018  18.480 -23.279  0.00  0.00     0.109 A 
ATOM     19  O   UNL d   1      33.163  17.936 -22.721  0.00  0.00    -0.200 OA
ATOM     20  O   UNL d   1      33.122  18.360 -21.755  0.00  0.00    -0.200 OA
ATOM     21  C   UNL d   1      32.854  19.127 -23.790  0.00  0.00     0.069 A 
ATOM     22  C   UNL d   1      33.164  17.720 -23.601  0.00  0.00     0.013 A 
ATOM     23  C   UNL d   1      32.835  19.017 -24.624  0.00  0.00     0.005 A 
ATOM     24  C   UNL d   1      32.733  19.809 -23.315  0.00  0.00     0.275 A 
ATOM     25  C   UNL d   1      32.981  18.256 -24.933  0.00  0.00     0.000 A 
ATOM     26  C   UNL d   1      33.145  17.610 -24.423  0.00  0.00     0.001 A 
ATOM     27  O   UNL d   1      32.581  20.484 -23.462  0.00  0.00    -0.266 OA
ENDBRANCH  15  16
ENDBRANCH   1  15
TORSDOF 4
ENDMDL
