MODEL 1
REMARK VINA RESULT:      -5.5      0.000      0.000
REMARK  5 active torsions:
REMARK  status: ('A' for Active; 'I' for Inactive)
REMARK    1  A    between atoms: N_2  and  S_1 
REMARK    2  A    between atoms: C_4  and  S_1 
REMARK    3  A    between atoms: C_3  and  N_2 
REMARK    4  A    between atoms: N_7  and  C_3 
REMARK    5  A    between atoms: C_15  and  N_7 
ROOT
ATOM      1  S   UNL d   1      57.042  -0.370  31.410  0.00  0.00     0.287 S 
ATOM      2  O   UNL d   1      57.046   0.457  31.305  0.00  0.00    -0.198 OA
ATOM      3  O   UNL d   1      57.026  -1.186  31.530  0.00  0.00    -0.198 OA
ENDROOT
BRANCH   1   4
ATOM      4  N   UNL d   1      57.553  -0.463  30.768  0.00  0.00    -0.128 NA
BRANCH   4   5
ATOM      5  C   UNL d   1      58.139  -0.149  30.261  0.00  0.00     0.232 C 
ATOM      6  S   UNL d   1      58.718   0.347  30.563  0.00  0.00    -0.036 SA
BRANCH   5   7
ATOM      7  N   UNL d   1      58.126  -0.343  29.459  0.00  0.00    -0.217 NA
BRANCH   7   8
ATOM      8  C   UNL d   1      58.773  -0.733  29.124  0.00  0.00     0.084 A 
ATOM      9  C   UNL d   1      58.792  -1.553  29.108  0.00  0.00     0.019 A 
ATOM     10  C   UNL d   1      59.431  -1.943  28.777  0.00  0.00     0.002 A 
ATOM     11  C   UNL d   1      60.056  -1.517  28.459  0.00  0.00     0.000 A 
ATOM     12  C   UNL d   1      60.039  -0.692  28.473  0.00  0.00     0.002 A 
ATOM     13  C   UNL d   1      59.398  -0.299  28.805  0.00  0.00     0.019 A 
ENDBRANCH   7   8
ENDBRANCH   5   7
ENDBRANCH   4   5
ENDBRANCH   1   4
BRANCH   1  14
ATOM     14  C   UNL d   1      56.527  -0.275  32.056  0.00  0.00     0.105 A 
ATOM     15  C   UNL d   1      56.243  -0.944  32.464  0.00  0.00     0.014 A 
ATOM     16  C   UNL d   1      55.735  -0.851  33.102  0.00  0.00     0.012 A 
ATOM     17  C   UNL d   1      55.505  -0.095  33.341  0.00  0.00     0.058 A 
ATOM     18  C   UNL d   1      55.785   0.572  32.939  0.00  0.00     0.012 A 
ATOM     19 CL   UNL d   1      54.998  -0.002  33.978  0.00  0.00    -0.082 Cl
ATOM     20  C   UNL d   1      56.295   0.478  32.298  0.00  0.00     0.014 A 
ENDBRANCH   1  14
TORSDOF 5
ENDMDL
MODEL 2
REMARK VINA RESULT:      -4.2      2.042      4.726
REMARK  5 active torsions:
REMARK  status: ('A' for Active; 'I' for Inactive)
REMARK    1  A    between atoms: N_2  and  S_1 
REMARK    2  A    between atoms: C_4  and  S_1 
REMARK    3  A    between atoms: C_3  and  N_2 
REMARK    4  A    between atoms: N_7  and  C_3 
REMARK    5  A    between atoms: C_15  and  N_7 
ROOT
ATOM      1  S   UNL d   1      58.079  -0.922  30.258  0.00  0.00     0.287 S 
ATOM      2  O   UNL d   1      57.824  -1.683  30.482  0.00  0.00    -0.198 OA
ATOM      3  O   UNL d   1      58.345  -0.177  30.025  0.00  0.00    -0.198 OA
ENDROOT
BRANCH   1   4
ATOM      4  N   UNL d   1      57.478  -0.578  30.709  0.00  0.00    -0.128 NA
BRANCH   4   5
ATOM      5  C   UNL d   1      57.246  -0.083  31.341  0.00  0.00     0.232 C 
ATOM      6  S   UNL d   1      56.991   0.682  31.190  0.00  0.00    -0.036 SA
BRANCH   5   7
ATOM      7  N   UNL d   1      57.276  -0.374  32.113  0.00  0.00    -0.217 NA
BRANCH   7   8
ATOM      8  C   UNL d   1      56.608  -0.316  32.597  0.00  0.00     0.084 A 
ATOM      9  C   UNL d   1      56.513   0.335  33.087  0.00  0.00     0.019 A 
ATOM     10  C   UNL d   1      55.853   0.396  33.566  0.00  0.00     0.002 A 
ATOM     11  C   UNL d   1      55.282  -0.193  33.561  0.00  0.00     0.000 A 
ATOM     12  C   UNL d   1      55.374  -0.849  33.069  0.00  0.00     0.002 A 
ATOM     13  C   UNL d   1      56.037  -0.911  32.586  0.00  0.00     0.019 A 
ENDBRANCH   7   8
ENDBRANCH   5   7
ENDBRANCH   4   5
ENDBRANCH   1   4
BRANCH   1  14
ATOM     14  C   UNL d   1      58.683  -1.269  29.804  0.00  0.00     0.105 A 
ATOM     15  C   UNL d   1      58.660  -2.085  29.632  0.00  0.00     0.014 A 
ATOM     16  C   UNL d   1      59.255  -2.427  29.184  0.00  0.00     0.012 A 
ATOM     17  C   UNL d   1      59.879  -1.965  28.903  0.00  0.00     0.058 A 
ATOM     18  C   UNL d   1      59.907  -1.156  29.071  0.00  0.00     0.012 A 
ATOM     19 CL   UNL d   1      60.475  -2.308  28.456  0.00  0.00    -0.082 Cl
ATOM     20  C   UNL d   1      59.308  -0.812  29.521  0.00  0.00     0.014 A 
ENDBRANCH   1  14
TORSDOF 5
ENDMDL
MODEL 3
REMARK VINA RESULT:      -4.2      2.076      4.887
REMARK  5 active torsions:
REMARK  status: ('A' for Active; 'I' for Inactive)
REMARK    1  A    between atoms: N_2  and  S_1 
REMARK    2  A    between atoms: C_4  and  S_1 
REMARK    3  A    between atoms: C_3  and  N_2 
REMARK    4  A    between atoms: N_7  and  C_3 
REMARK    5  A    between atoms: C_15  and  N_7 
ROOT
ATOM      1  S   UNL d   1      57.750   0.274  30.793  0.00  0.00     0.287 S 
ATOM      2  O   UNL d   1      58.315   0.070  31.371  0.00  0.00    -0.198 OA
ATOM      3  O   UNL d   1      57.206   0.475  30.207  0.00  0.00    -0.198 OA
ENDROOT
BRANCH   1   4
ATOM      4  N   UNL d   1      57.153   0.275  31.363  0.00  0.00    -0.128 NA
BRANCH   4   5
ATOM      5  C   UNL d   1      56.883   0.062  32.126  0.00  0.00     0.232 C 
ATOM      6  S   UNL d   1      56.659  -0.712  32.279  0.00  0.00    -0.036 SA
BRANCH   5   7
ATOM      7  N   UNL d   1      56.846   0.638  32.716  0.00  0.00    -0.217 NA
BRANCH   7   8
ATOM      8  C   UNL d   1      56.216   0.632  33.252  0.00  0.00     0.084 A 
ATOM      9  C   UNL d   1      55.445   0.682  32.976  0.00  0.00     0.019 A 
ATOM     10  C   UNL d   1      54.820   0.676  33.504  0.00  0.00     0.002 A 
ATOM     11  C   UNL d   1      54.958   0.620  34.310  0.00  0.00     0.000 A 
ATOM     12  C   UNL d   1      55.733   0.570  34.590  0.00  0.00     0.002 A 
ATOM     13  C   UNL d   1      56.363   0.575  34.062  0.00  0.00     0.019 A 
ENDBRANCH   7   8
ENDBRANCH   5   7
ENDBRANCH   4   5
ENDBRANCH   1   4
BRANCH   1  14
ATOM     14  C   UNL d   1      58.353   0.272  30.219  0.00  0.00     0.105 A 
ATOM     15  C   UNL d   1      58.247  -0.145  29.505  0.00  0.00     0.014 A 
ATOM     16  C   UNL d   1      58.840  -0.147  28.939  0.00  0.00     0.012 A 
ATOM     17  C   UNL d   1      59.543   0.264  29.075  0.00  0.00     0.058 A 
ATOM     18  C   UNL d   1      59.653   0.679  29.782  0.00  0.00     0.012 A 
ATOM     19 CL   UNL d   1      60.136   0.262  28.509  0.00  0.00    -0.082 Cl
ATOM     20  C   UNL d   1      59.056   0.681  30.351  0.00  0.00     0.014 A 
ENDBRANCH   1  14
TORSDOF 5
ENDMDL
MODEL 4
REMARK VINA RESULT:      -2.6      1.994      4.685
REMARK  5 active torsions:
REMARK  status: ('A' for Active; 'I' for Inactive)
REMARK    1  A    between atoms: N_2  and  S_1 
REMARK    2  A    between atoms: C_4  and  S_1 
REMARK    3  A    between atoms: C_3  and  N_2 
REMARK    4  A    between atoms: N_7  and  C_3 
REMARK    5  A    between atoms: C_15  and  N_7 
ROOT
ATOM      1  S   UNL d   1      58.041   0.399  30.630  0.00  0.00     0.287 S 
ATOM      2  O   UNL d   1      57.448   0.160  30.096  0.00  0.00    -0.198 OA
ATOM      3  O   UNL d   1      58.643   0.628  31.146  0.00  0.00    -0.198 OA
ENDROOT
BRANCH   1   4
ATOM      4  N   UNL d   1      57.469   0.682  31.154  0.00  0.00    -0.128 NA
BRANCH   4   5
ATOM      5  C   UNL d   1      57.095   0.646  31.902  0.00  0.00     0.232 C 
ATOM      6  S   UNL d   1      57.545   0.682  32.586  0.00  0.00    -0.036 SA
BRANCH   5   7
ATOM      7  N   UNL d   1      56.274   0.574  31.939  0.00  0.00    -0.217 NA
BRANCH   7   8
ATOM      8  C   UNL d   1      55.926   0.216  32.598  0.00  0.00     0.084 A 
ATOM      9  C   UNL d   1      55.904  -0.601  32.655  0.00  0.00     0.019 A 
ATOM     10  C   UNL d   1      55.560  -0.959  33.306  0.00  0.00     0.002 A 
ATOM     11  C   UNL d   1      55.236  -0.503  33.905  0.00  0.00     0.000 A 
ATOM     12  C   UNL d   1      55.257   0.321  33.851  0.00  0.00     0.002 A 
ATOM     13  C   UNL d   1      55.602   0.681  33.198  0.00  0.00     0.019 A 
ENDBRANCH   7   8
ENDBRANCH   5   7
ENDBRANCH   4   5
ENDBRANCH   1   4
BRANCH   1  14
ATOM     14  C   UNL d   1      58.617   0.113  30.102  0.00  0.00     0.105 A 
ATOM     15  C   UNL d   1      58.503  -0.616  29.714  0.00  0.00     0.014 A 
ATOM     16  C   UNL d   1      59.070  -0.897  29.193  0.00  0.00     0.012 A 
ATOM     17  C   UNL d   1      59.755  -0.459  29.052  0.00  0.00     0.058 A 
ATOM     18  C   UNL d   1      59.874   0.265  29.434  0.00  0.00     0.012 A 
ATOM     19 CL   UNL d   1      60.323  -0.740  28.531  0.00  0.00    -0.082 Cl
ATOM     20  C   UNL d   1      59.303   0.548  29.958  0.00  0.00     0.014 A 
ENDBRANCH   1  14
TORSDOF 5
ENDMDL
