MODEL 1
REMARK VINA RESULT:      11.0      0.000      0.000
REMARK  6 active torsions:
REMARK  status: ('A' for Active; 'I' for Inactive)
REMARK    1  A    between atoms: C_14  and  N_1 
REMARK    2  A    between atoms: S_12  and  C_3 
REMARK    3  A    between atoms: C_5  and  N_11 
REMARK    4  A    between atoms: C_15  and  C_8 
REMARK       I    between atoms: N_11  and  C_13 
REMARK    5  A    between atoms: C_17  and  S_12 
REMARK    6  A    between atoms: C_13  and  C_17 
ROOT
ATOM      1  N   UNL d   1      45.359 -16.631  44.955  0.00  0.00    -0.181 NA
ATOM      2  C   UNL d   1      46.104 -16.928  44.723  0.00  0.00     0.288 C 
ATOM      3  O   UNL d   1      46.643 -16.432  44.368  0.00  0.00    -0.265 OA
ENDROOT
BRANCH   2   4
ATOM      4  C   UNL d   1      46.281 -17.720  44.859  0.00  0.00     0.101 C 
BRANCH   4   5
ATOM      5  S   UNL d   1      46.635 -18.161  44.261  0.00  0.00    -0.041 SA
BRANCH   5   6
ATOM      6  C   UNL d   1      46.630 -18.979  44.307  0.00  0.00     0.219 A 
ATOM      7  N   UNL d   1      46.630 -19.438  43.621  0.00  0.00    -0.186 N 
ATOM      8  N   UNL d   1      46.625 -20.228  43.839  0.00  0.00    -0.038 NA
ATOM      9  N   UNL d   1      46.621 -20.268  44.652  0.00  0.00    -0.022 NA
ATOM     10  N   UNL d   1      46.624 -19.495  44.954  0.00  0.00    -0.101 NA
BRANCH   7  11
ATOM     11  C   UNL d   1      46.635 -19.187  42.839  0.00  0.00     0.087 A 
ATOM     12  C   UNL d   1      46.642 -19.748  42.223  0.00  0.00     0.019 A 
ATOM     13  C   UNL d   1      46.646 -19.496  41.442  0.00  0.00     0.002 A 
ATOM     14  C   UNL d   1      46.645 -18.695  41.259  0.00  0.00     0.000 A 
ATOM     15  C   UNL d   1      46.639 -18.135  41.872  0.00  0.00     0.002 A 
ATOM     16  C   UNL d   1      46.634 -18.380  42.664  0.00  0.00     0.019 A 
ENDBRANCH   7  11
ENDBRANCH   5   6
ENDBRANCH   4   5
ENDBRANCH   2   4
BRANCH   1  17
ATOM     17  C   UNL d   1      45.169 -15.831  44.822  0.00  0.00     0.216 A 
ATOM     18  N   UNL d   1      45.690 -15.225  44.607  0.00  0.00    -0.200 NA
ATOM     19  C   UNL d   1      45.255 -14.534  44.539  0.00  0.00     0.172 A 
ATOM     20  N   UNL d   1      44.474 -14.704  44.710  0.00  0.00    -0.187 NA
ATOM     21  S   UNL d   1      44.426 -15.517  44.886  0.00  0.00     0.054 SA
BRANCH  19  22
ATOM     22  C   UNL d   1      45.473 -13.760  44.341  0.00  0.00     0.036 A 
ATOM     23  C   UNL d   1      45.231 -13.439  43.626  0.00  0.00     0.003 A 
ATOM     24  C   UNL d   1      45.448 -12.662  43.425  0.00  0.00     0.000 A 
ATOM     25  C   UNL d   1      45.902 -12.219  43.940  0.00  0.00     0.000 A 
ATOM     26  C   UNL d   1      46.146 -12.548  44.666  0.00  0.00     0.000 A 
ATOM     27  C   UNL d   1      45.935 -13.314  44.870  0.00  0.00     0.003 A 
ENDBRANCH  19  22
ENDBRANCH   1  17
TORSDOF 6
ENDMDL
