MODEL 1
REMARK VINA RESULT:      -4.4      0.000      0.000
REMARK  8 active torsions:
REMARK  status: ('A' for Active; 'I' for Inactive)
REMARK    1  A    between atoms: N_5  and  S_1 
REMARK    2  A    between atoms: C_8  and  S_1 
REMARK    3  A    between atoms: C_2  and  N_10 
REMARK    4  A    between atoms: C_9  and  N_5 
REMARK    5  A    between atoms: C_13  and  C_9 
REMARK    6  A    between atoms: N_10  and  O_14 
REMARK    7  A    between atoms: C_17  and  C_13 
REMARK    8  A    between atoms: O_14  and  C_17 
ROOT
ATOM      1  C   UNL d   1      58.125  -0.354  30.655  0.00  0.00     0.193 C 
ENDROOT
BRANCH   1   2
ATOM      2  O   UNL d   1      58.209  -0.260  29.839  0.00  0.00    -0.206 OA
BRANCH   2   3
ATOM      3  N   UNL d   1      58.272  -0.929  29.349  0.00  0.00    -0.126 NA
BRANCH   3   4
ATOM      4  C   UNL d   1      59.015  -1.185  29.094  0.00  0.00     0.108 A 
ATOM      5  C   UNL d   1      59.250  -1.974  28.981  0.00  0.00     0.020 A 
ATOM      6  C   UNL d   1      60.033  -1.966  28.726  0.00  0.00     0.002 A 
ATOM      7  C   UNL d   1      58.846  -2.678  29.079  0.00  0.00     0.002 A 
ATOM      8  C   UNL d   1      60.417  -2.685  28.566  0.00  0.00     0.000 A 
ATOM      9  C   UNL d   1      60.289  -1.191  28.678  0.00  0.00     0.002 A 
ATOM     10  C   UNL d   1      60.013  -3.394  28.665  0.00  0.00     0.000 A 
ATOM     11  C   UNL d   1      59.223  -3.396  28.923  0.00  0.00     0.000 A 
ATOM     12  C   UNL d   1      59.662  -0.701  28.906  0.00  0.00     0.020 A 
ATOM     13  C   UNL d   1      61.006  -0.858  28.460  0.00  0.00     0.000 A 
ATOM     14  C   UNL d   1      59.752   0.116  28.915  0.00  0.00     0.002 A 
ATOM     15  C   UNL d   1      60.479   0.450  28.693  0.00  0.00     0.000 A 
ATOM     16  C   UNL d   1      61.104  -0.041  28.467  0.00  0.00     0.000 A 
ENDBRANCH   3   4
ENDBRANCH   2   3
ENDBRANCH   1   2
BRANCH   1  17
ATOM     17  C   UNL d   1      57.447  -0.081  31.032  0.00  0.00     0.240 C 
ATOM     18  O   UNL d   1      56.769   0.088  30.593  0.00  0.00    -0.283 OA
BRANCH  17  19
ATOM     19  C   UNL d   1      56.994   0.152  31.687  0.00  0.00     0.136 C 
BRANCH  19  20
ATOM     20  N   UNL d   1      56.722  -0.427  32.215  0.00  0.00    -0.225 N 
ATOM     21  C   UNL d   1      56.665  -1.244  32.153  0.00  0.00     0.111 C 
BRANCH  20  22
ATOM     22  S   UNL d   1      56.442  -0.207  32.961  0.00  0.00     0.272 S 
ATOM     23  O   UNL d   1      57.257  -0.299  33.102  0.00  0.00    -0.200 OA
ATOM     24  O   UNL d   1      55.633  -0.066  33.029  0.00  0.00    -0.200 OA
BRANCH  22  25
ATOM     25  C   UNL d   1      55.938   0.017  33.575  0.00  0.00     0.104 A 
ATOM     26  C   UNL d   1      56.237   0.438  34.219  0.00  0.00     0.013 A 
ATOM     27  C   UNL d   1      55.736   0.661  34.830  0.00  0.00     0.007 A 
ATOM     28  C   UNL d   1      54.929   0.462  34.800  0.00  0.00     0.035 A 
ATOM     29  C   UNL d   1      54.678   0.037  34.129  0.00  0.00     0.007 A 
ATOM     30 BR   UNL d   1      54.408   0.674  35.400  0.00  0.00    -0.049 Br
ATOM     31  C   UNL d   1      55.151  -0.203  33.498  0.00  0.00     0.013 A 
ENDBRANCH  22  25
ENDBRANCH  20  22
ENDBRANCH  19  20
ENDBRANCH  17  19
ENDBRANCH   1  17
TORSDOF 8
ENDMDL
MODEL 2
REMARK VINA RESULT:      -3.0      2.331      6.155
REMARK  8 active torsions:
REMARK  status: ('A' for Active; 'I' for Inactive)
REMARK    1  A    between atoms: N_5  and  S_1 
REMARK    2  A    between atoms: C_8  and  S_1 
REMARK    3  A    between atoms: C_2  and  N_10 
REMARK    4  A    between atoms: C_9  and  N_5 
REMARK    5  A    between atoms: C_13  and  C_9 
REMARK    6  A    between atoms: N_10  and  O_14 
REMARK    7  A    between atoms: C_17  and  C_13 
REMARK    8  A    between atoms: O_14  and  C_17 
ROOT
ATOM      1  C   UNL d   1      57.072  -0.214  30.795  0.00  0.00     0.193 C 
ENDROOT
BRANCH   1   2
ATOM      2  O   UNL d   1      57.272   0.167  31.500  0.00  0.00    -0.206 OA
BRANCH   2   3
ATOM      3  N   UNL d   1      56.720   0.665  31.873  0.00  0.00    -0.126 NA
BRANCH   3   4
ATOM      4  C   UNL d   1      56.654   0.665  32.696  0.00  0.00     0.108 A 
ATOM      5  C   UNL d   1      57.282   0.670  33.240  0.00  0.00     0.020 A 
ATOM      6  C   UNL d   1      56.957   0.667  33.996  0.00  0.00     0.002 A 
ATOM      7  C   UNL d   1      58.092   0.677  33.130  0.00  0.00     0.002 A 
ATOM      8  C   UNL d   1      57.460   0.672  34.656  0.00  0.00     0.000 A 
ATOM      9  C   UNL d   1      56.141   0.660  33.934  0.00  0.00     0.002 A 
ATOM     10  C   UNL d   1      58.275   0.679  34.548  0.00  0.00     0.000 A 
ATOM     11  C   UNL d   1      58.597   0.682  33.782  0.00  0.00     0.000 A 
ATOM     12  C   UNL d   1      55.946   0.658  33.131  0.00  0.00     0.020 A 
ATOM     13  C   UNL d   1      55.544   0.655  34.497  0.00  0.00     0.000 A 
ATOM     14  C   UNL d   1      55.160   0.651  32.890  0.00  0.00     0.002 A 
ATOM     15  C   UNL d   1      54.558   0.646  33.462  0.00  0.00     0.000 A 
ATOM     16  C   UNL d   1      54.755   0.648  34.265  0.00  0.00     0.000 A 
ENDBRANCH   3   4
ENDBRANCH   2   3
ENDBRANCH   1   2
BRANCH   1  17
ATOM     17  C   UNL d   1      57.616  -0.251  30.180  0.00  0.00     0.240 C 
ATOM     18  O   UNL d   1      57.957   0.441  29.887  0.00  0.00    -0.283 OA
BRANCH  17  19
ATOM     19  C   UNL d   1      58.080  -0.636  29.609  0.00  0.00     0.136 C 
BRANCH  19  20
ATOM     20  N   UNL d   1      58.894  -0.718  29.742  0.00  0.00    -0.225 N 
ATOM     21  C   UNL d   1      59.422  -0.289  30.200  0.00  0.00     0.111 C 
BRANCH  20  22
ATOM     22  S   UNL d   1      59.313  -1.329  29.373  0.00  0.00     0.272 S 
ATOM     23  O   UNL d   1      59.668  -0.651  29.044  0.00  0.00    -0.200 OA
ATOM     24  O   UNL d   1      59.101  -2.099  29.573  0.00  0.00    -0.200 OA
BRANCH  22  25
ATOM     25  C   UNL d   1      59.570  -2.080  29.151  0.00  0.00     0.104 A 
ATOM     26  C   UNL d   1      59.023  -2.693  29.065  0.00  0.00     0.013 A 
ATOM     27  C   UNL d   1      59.278  -3.441  28.845  0.00  0.00     0.007 A 
ATOM     28  C   UNL d   1      60.086  -3.582  28.709  0.00  0.00     0.035 A 
ATOM     29  C   UNL d   1      60.596  -2.932  28.809  0.00  0.00     0.007 A 
ATOM     30 BR   UNL d   1      60.365  -4.324  28.487  0.00  0.00    -0.049 Br
ATOM     31  C   UNL d   1      60.377  -2.169  29.028  0.00  0.00     0.013 A 
ENDBRANCH  22  25
ENDBRANCH  20  22
ENDBRANCH  19  20
ENDBRANCH  17  19
ENDBRANCH   1  17
TORSDOF 8
ENDMDL
MODEL 3
REMARK VINA RESULT:      -2.2      2.145      6.309
REMARK  8 active torsions:
REMARK  status: ('A' for Active; 'I' for Inactive)
REMARK    1  A    between atoms: N_5  and  S_1 
REMARK    2  A    between atoms: C_8  and  S_1 
REMARK    3  A    between atoms: C_2  and  N_10 
REMARK    4  A    between atoms: C_9  and  N_5 
REMARK    5  A    between atoms: C_13  and  C_9 
REMARK    6  A    between atoms: N_10  and  O_14 
REMARK    7  A    between atoms: C_17  and  C_13 
REMARK    8  A    between atoms: O_14  and  C_17 
ROOT
ATOM      1  C   UNL d   1      56.898  -0.311  31.813  0.00  0.00     0.193 C 
ENDROOT
BRANCH   1   2
ATOM      2  O   UNL d   1      56.935   0.302  32.365  0.00  0.00    -0.206 OA
BRANCH   2   3
ATOM      3  N   UNL d   1      56.233   0.619  32.680  0.00  0.00    -0.126 NA
BRANCH   3   4
ATOM      4  C   UNL d   1      56.119   0.637  33.498  0.00  0.00     0.108 A 
ATOM      5  C   UNL d   1      55.387   0.650  33.891  0.00  0.00     0.020 A 
ATOM      6  C   UNL d   1      55.540   0.666  34.700  0.00  0.00     0.002 A 
ATOM      7  C   UNL d   1      54.620   0.649  33.608  0.00  0.00     0.002 A 
ATOM      8  C   UNL d   1      54.905   0.682  35.235  0.00  0.00     0.000 A 
ATOM      9  C   UNL d   1      56.350   0.663  34.817  0.00  0.00     0.002 A 
ATOM     10  C   UNL d   1      54.133   0.681  34.951  0.00  0.00     0.000 A 
ATOM     11  C   UNL d   1      53.985   0.665  34.134  0.00  0.00     0.000 A 
ATOM     12  C   UNL d   1      56.714   0.645  34.076  0.00  0.00     0.020 A 
ATOM     13  C   UNL d   1      56.810   0.674  35.497  0.00  0.00     0.000 A 
ATOM     14  C   UNL d   1      57.535   0.638  34.013  0.00  0.00     0.002 A 
ATOM     15  C   UNL d   1      57.998   0.649  34.702  0.00  0.00     0.000 A 
ATOM     16  C   UNL d   1      57.630   0.667  35.442  0.00  0.00     0.000 A 
ENDBRANCH   3   4
ENDBRANCH   2   3
ENDBRANCH   1   2
BRANCH   1  17
ATOM     17  C   UNL d   1      57.195  -0.200  31.055  0.00  0.00     0.240 C 
ATOM     18  O   UNL d   1      57.082   0.521  30.668  0.00  0.00    -0.283 OA
BRANCH  17  19
ATOM     19  C   UNL d   1      57.597  -0.425  30.364  0.00  0.00     0.136 C 
BRANCH  19  20
ATOM     20  N   UNL d   1      58.408  -0.266  30.300  0.00  0.00    -0.225 N 
ATOM     21  C   UNL d   1      58.878   0.328  30.616  0.00  0.00     0.111 C 
BRANCH  20  22
ATOM     22  S   UNL d   1      58.891  -0.762  29.848  0.00  0.00     0.272 S 
ATOM     23  O   UNL d   1      59.203  -0.010  29.674  0.00  0.00    -0.200 OA
ATOM     24  O   UNL d   1      58.736  -1.570  29.887  0.00  0.00    -0.200 OA
BRANCH  22  25
ATOM     25  C   UNL d   1      59.219  -1.436  29.505  0.00  0.00     0.104 A 
ATOM     26  C   UNL d   1      58.741  -2.092  29.349  0.00  0.00     0.013 A 
ATOM     27  C   UNL d   1      59.066  -2.763  29.006  0.00  0.00     0.007 A 
ATOM     28  C   UNL d   1      59.876  -2.783  28.817  0.00  0.00     0.035 A 
ATOM     29  C   UNL d   1      60.314  -2.097  28.994  0.00  0.00     0.007 A 
ATOM     30 BR   UNL d   1      60.224  -3.445  28.474  0.00  0.00    -0.049 Br
ATOM     31  C   UNL d   1      60.022  -1.407  29.337  0.00  0.00     0.013 A 
ENDBRANCH  22  25
ENDBRANCH  20  22
ENDBRANCH  19  20
ENDBRANCH  17  19
ENDBRANCH   1  17
TORSDOF 8
ENDMDL
MODEL 4
REMARK VINA RESULT:      -1.6      2.682      6.005
REMARK  8 active torsions:
REMARK  status: ('A' for Active; 'I' for Inactive)
REMARK    1  A    between atoms: N_5  and  S_1 
REMARK    2  A    between atoms: C_8  and  S_1 
REMARK    3  A    between atoms: C_2  and  N_10 
REMARK    4  A    between atoms: C_9  and  N_5 
REMARK    5  A    between atoms: C_13  and  C_9 
REMARK    6  A    between atoms: N_10  and  O_14 
REMARK    7  A    between atoms: C_17  and  C_13 
REMARK    8  A    between atoms: O_14  and  C_17 
ROOT
ATOM      1  C   UNL d   1      57.927  -0.624  30.018  0.00  0.00     0.193 C 
ENDROOT
BRANCH   1   2
ATOM      2  O   UNL d   1      57.849  -0.574  30.839  0.00  0.00    -0.206 OA
BRANCH   2   3
ATOM      3  N   UNL d   1      57.263  -0.087  31.170  0.00  0.00    -0.126 NA
BRANCH   3   4
ATOM      4  C   UNL d   1      57.256   0.055  31.984  0.00  0.00     0.108 A 
ATOM      5  C   UNL d   1      56.594   0.013  32.485  0.00  0.00     0.020 A 
ATOM      6  C   UNL d   1      56.846   0.197  33.246  0.00  0.00     0.002 A 
ATOM      7  C   UNL d   1      55.811  -0.166  32.332  0.00  0.00     0.002 A 
ATOM      8  C   UNL d   1      56.296   0.199  33.869  0.00  0.00     0.000 A 
ATOM      9  C   UNL d   1      57.650   0.351  33.230  0.00  0.00     0.002 A 
ATOM     10  C   UNL d   1      55.509   0.018  33.717  0.00  0.00     0.000 A 
ATOM     11  C   UNL d   1      55.260  -0.166  32.947  0.00  0.00     0.000 A 
ATOM     12  C   UNL d   1      57.910   0.265  32.450  0.00  0.00     0.020 A 
ATOM     13  C   UNL d   1      58.185   0.559  33.817  0.00  0.00     0.000 A 
ATOM     14  C   UNL d   1      58.700   0.385  32.257  0.00  0.00     0.002 A 
ATOM     15  C   UNL d   1      59.239   0.595  32.852  0.00  0.00     0.000 A 
ATOM     16  C   UNL d   1      58.976   0.681  33.631  0.00  0.00     0.000 A 
ENDBRANCH   3   4
ENDBRANCH   2   3
ENDBRANCH   1   2
BRANCH   1  17
ATOM     17  C   UNL d   1      58.216  -1.312  29.673  0.00  0.00     0.240 C 
ATOM     18  O   UNL d   1      57.933  -2.048  29.919  0.00  0.00    -0.283 OA
BRANCH  17  19
ATOM     19  C   UNL d   1      58.692  -1.749  29.153  0.00  0.00     0.136 C 
BRANCH  19  20
ATOM     20  N   UNL d   1      59.516  -1.727  29.245  0.00  0.00    -0.225 N 
ATOM     21  C   UNL d   1      60.026  -1.129  29.482  0.00  0.00     0.111 C 
BRANCH  20  22
ATOM     22  S   UNL d   1      59.968  -2.400  29.084  0.00  0.00     0.272 S 
ATOM     23  O   UNL d   1      60.324  -1.831  28.591  0.00  0.00    -0.200 OA
ATOM     24  O   UNL d   1      59.765  -3.090  29.486  0.00  0.00    -0.200 OA
BRANCH  22  25
ATOM     25  C   UNL d   1      60.254  -3.173  29.098  0.00  0.00     0.104 A 
ATOM     26  C   UNL d   1      60.095  -3.682  28.467  0.00  0.00     0.013 A 
ATOM     27  C   UNL d   1      60.379  -4.452  28.479  0.00  0.00     0.007 A 
ATOM     28  C   UNL d   1      60.827  -4.719  29.127  0.00  0.00     0.035 A 
ATOM     29  C   UNL d   1      60.960  -4.168  29.737  0.00  0.00     0.007 A 
ATOM     30 BR   UNL d   1      61.123  -5.486  29.162  0.00  0.00    -0.049 Br
ATOM     31  C   UNL d   1      60.691  -3.389  29.758  0.00  0.00     0.013 A 
ENDBRANCH  22  25
ENDBRANCH  20  22
ENDBRANCH  19  20
ENDBRANCH  17  19
ENDBRANCH   1  17
TORSDOF 8
ENDMDL
