MODEL 1
REMARK VINA RESULT:      -3.4      0.000      0.000
REMARK  6 active torsions:
REMARK  status: ('A' for Active; 'I' for Inactive)
REMARK    1  A    between atoms: C_8  and  N_1 
REMARK    2  A    between atoms: C_6  and  C_3 
REMARK    3  A    between atoms: C_7  and  C_6 
REMARK       I    between atoms: N_11  and  C_7 
REMARK    4  A    between atoms: C_9  and  C_8 
REMARK       I    between atoms: N_12  and  C_9 
REMARK    5  A    between atoms: C_17  and  N_11 
REMARK    6  A    between atoms: C_16  and  N_12 
ROOT
ATOM      1  N   UNL d   1      32.415  17.897 -23.913  0.00  0.00    -0.230 N 
ATOM      2  C   UNL d   1      32.436  18.628 -24.302  0.00  0.00     0.299 A 
ATOM      3  C   UNL d   1      32.903  18.802 -23.067  0.00  0.00     0.095 A 
ATOM      4  C   UNL d   1      32.704  18.005 -23.148  0.00  0.00     0.274 A 
ATOM      5  S   UNL d   1      32.739  19.180 -23.771  0.00  0.00    -0.022 SA
ATOM      6  O   UNL d   1      32.196  18.768 -25.078  0.00  0.00    -0.259 OA
ATOM      7  O   UNL d   1      32.779  17.419 -22.569  0.00  0.00    -0.266 OA
ENDROOT
BRANCH   1   8
ATOM      8  C   UNL d   1      32.149  17.184 -24.237  0.00  0.00     0.149 C 
BRANCH   8   9
ATOM      9  C   UNL d   1      31.340  17.028 -24.278  0.00  0.00     0.297 C 
ATOM     10  N   UNL d   1      31.069  16.259 -24.199  0.00  0.00    -0.207 NA
ATOM     11  O   UNL d   1      30.805  17.648 -24.398  0.00  0.00    -0.264 OA
BRANCH  10  12
ATOM     12  C   UNL d   1      30.257  16.100 -24.239  0.00  0.00     0.085 A 
ATOM     13  C   UNL d   1      29.810  16.087 -23.550  0.00  0.00     0.019 A 
ATOM     14  C   UNL d   1      29.003  15.930 -23.588  0.00  0.00     0.002 A 
ATOM     15  C   UNL d   1      28.645  15.785 -24.320  0.00  0.00     0.000 A 
ATOM     16  C   UNL d   1      29.103  15.800 -25.014  0.00  0.00     0.002 A 
ATOM     17  C   UNL d   1      27.840  15.628 -24.364  0.00  0.00     0.000 C 
ATOM     18  C   UNL d   1      29.908  15.958 -24.971  0.00  0.00     0.019 A 
ENDBRANCH  10  12
ENDBRANCH   8   9
ENDBRANCH   1   8
BRANCH   3  19
ATOM     19  C   UNL d   1      33.214  19.146 -22.385  0.00  0.00     0.074 C 
BRANCH  19  20
ATOM     20  C   UNL d   1      32.969  19.897 -22.157  0.00  0.00     0.280 C 
ATOM     21  N   UNL d   1      33.145  20.186 -21.412  0.00  0.00    -0.208 NA
ATOM     22  O   UNL d   1      32.540  20.371 -22.684  0.00  0.00    -0.265 OA
BRANCH  21  23
ATOM     23  C   UNL d   1      32.899  20.937 -21.189  0.00  0.00     0.085 A 
ATOM     24  C   UNL d   1      32.393  21.029 -20.548  0.00  0.00     0.020 A 
ATOM     25  C   UNL d   1      32.147  21.784 -20.325  0.00  0.00     0.013 A 
ATOM     26  C   UNL d   1      32.405  22.441 -20.739  0.00  0.00     0.058 A 
ATOM     27  C   UNL d   1      32.917  22.351 -21.388  0.00  0.00     0.013 A 
ATOM     28 CL   UNL d   1      32.159  23.197 -20.517  0.00  0.00    -0.082 Cl
ATOM     29  C   UNL d   1      33.163  21.595 -21.610  0.00  0.00     0.020 A 
ENDBRANCH  21  23
ENDBRANCH  19  20
ENDBRANCH   3  19
TORSDOF 6
ENDMDL
MODEL 2
REMARK VINA RESULT:      -2.7      2.003      5.802
REMARK  6 active torsions:
REMARK  status: ('A' for Active; 'I' for Inactive)
REMARK    1  A    between atoms: C_8  and  N_1 
REMARK    2  A    between atoms: C_6  and  C_3 
REMARK    3  A    between atoms: C_7  and  C_6 
REMARK       I    between atoms: N_11  and  C_7 
REMARK    4  A    between atoms: C_9  and  C_8 
REMARK       I    between atoms: N_12  and  C_9 
REMARK    5  A    between atoms: C_17  and  N_11 
REMARK    6  A    between atoms: C_16  and  N_12 
ROOT
ATOM      1  N   UNL d   1      32.728  18.547 -23.656  0.00  0.00    -0.230 N 
ATOM      2  C   UNL d   1      32.646  17.826 -23.257  0.00  0.00     0.299 A 
ATOM      3  C   UNL d   1      31.811  17.824 -24.293  0.00  0.00     0.095 A 
ATOM      4  C   UNL d   1      32.211  18.546 -24.297  0.00  0.00     0.274 A 
ATOM      5  S   UNL d   1      32.078  17.386 -23.658  0.00  0.00    -0.022 SA
ATOM      6  O   UNL d   1      33.063  17.598 -22.583  0.00  0.00    -0.259 OA
ATOM      7  O   UNL d   1      32.112  19.159 -24.844  0.00  0.00    -0.266 OA
ENDROOT
BRANCH   1   8
ATOM      8  C   UNL d   1      33.241  19.161 -23.445  0.00  0.00     0.149 C 
BRANCH   8   9
ATOM      9  C   UNL d   1      33.042  19.667 -22.824  0.00  0.00     0.297 C 
ATOM     10  N   UNL d   1      33.219  20.465 -22.877  0.00  0.00    -0.207 NA
ATOM     11  O   UNL d   1      32.664  19.367 -22.151  0.00  0.00    -0.264 OA
BRANCH  10  12
ATOM     12  C   UNL d   1      33.020  20.975 -22.255  0.00  0.00     0.085 A 
ATOM     13  C   UNL d   1      32.736  21.728 -22.421  0.00  0.00     0.019 A 
ATOM     14  C   UNL d   1      32.537  22.236 -21.804  0.00  0.00     0.002 A 
ATOM     15  C   UNL d   1      32.624  21.986 -21.020  0.00  0.00     0.000 A 
ATOM     16  C   UNL d   1      32.912  21.223 -20.859  0.00  0.00     0.002 A 
ATOM     17  C   UNL d   1      32.427  22.489 -20.401  0.00  0.00     0.000 C 
ATOM     18  C   UNL d   1      33.109  20.720 -21.477  0.00  0.00     0.019 A 
ENDBRANCH  10  12
ENDBRANCH   8   9
ENDBRANCH   1   8
BRANCH   3  19
ATOM     19  C   UNL d   1      31.240  17.594 -24.843  0.00  0.00     0.074 C 
BRANCH  19  20
ATOM     20  C   UNL d   1      30.619  17.109 -24.610  0.00  0.00     0.280 C 
ATOM     21  N   UNL d   1      29.859  17.407 -24.541  0.00  0.00    -0.208 NA
ATOM     22  O   UNL d   1      30.757  16.310 -24.441  0.00  0.00    -0.265 OA
BRANCH  21  23
ATOM     23  C   UNL d   1      29.241  16.920 -24.308  0.00  0.00     0.085 A 
ATOM     24  C   UNL d   1      29.186  16.157 -24.607  0.00  0.00     0.020 A 
ATOM     25  C   UNL d   1      28.564  15.668 -24.371  0.00  0.00     0.013 A 
ATOM     26  C   UNL d   1      28.003  15.941 -23.841  0.00  0.00     0.058 A 
ATOM     27  C   UNL d   1      28.056  16.712 -23.537  0.00  0.00     0.013 A 
ATOM     28 CL   UNL d   1      27.381  15.453 -23.604  0.00  0.00    -0.082 Cl
ATOM     29  C   UNL d   1      28.679  17.200 -23.773  0.00  0.00     0.020 A 
ENDBRANCH  21  23
ENDBRANCH  19  20
ENDBRANCH   3  19
TORSDOF 6
ENDMDL
