MODEL 1
REMARK VINA RESULT:      31.5      0.000      0.000
REMARK  5 active torsions:
REMARK  status: ('A' for Active; 'I' for Inactive)
REMARK    1  A    between atoms: N_4  and  C_1 
REMARK    2  A    between atoms: N_5  and  C_1 
REMARK       I    between atoms: C_2  and  N_3 
REMARK    3  A    between atoms: C_8  and  C_2 
REMARK    4  A    between atoms: N_3  and  N_4 
REMARK    5  A    between atoms: C_9  and  N_5 
ROOT
ATOM      1  N   UNL d   1      14.969  15.402  -0.859  0.00  0.00    -0.273 N 
ATOM      2  H   UNL d   1      15.200  16.019  -0.372  0.00  0.00     0.189 HD
ENDROOT
BRANCH   1   3
ATOM      3  N   UNL d   1      14.937  15.505  -1.685  0.00  0.00    -0.264 N 
ATOM      4  C   UNL d   1      14.978  16.282  -1.991  0.00  0.00     0.271 C 
ATOM      5  O   UNL d   1      15.049  16.931  -1.506  0.00  0.00    -0.266 OA
ATOM      6  H   UNL d   1      14.867  14.867  -2.174  0.00  0.00     0.190 HD
BRANCH   4   7
ATOM      7  C   UNL d   1      14.946  16.394  -2.826  0.00  0.00     0.057 A 
ATOM      8  C   UNL d   1      14.643  15.807  -3.316  0.00  0.00     0.005 A 
ATOM      9  C   UNL d   1      14.615  15.924  -4.134  0.00  0.00     0.000 A 
ATOM     10  C   UNL d   1      14.890  16.629  -4.464  0.00  0.00     0.000 A 
ATOM     11  C   UNL d   1      15.191  17.211  -3.973  0.00  0.00     0.000 A 
ATOM     12  C   UNL d   1      15.225  17.108  -3.160  0.00  0.00     0.005 A 
ENDBRANCH   4   7
ENDBRANCH   1   3
BRANCH   1  13
ATOM     13  C   UNL d   1      14.768  14.674  -0.519  0.00  0.00     0.191 C 
ATOM     14  S   UNL d   1      14.118  14.615  -0.015  0.00  0.00    -0.039 SA
BRANCH  13  15
ATOM     15  N   UNL d   1      15.228  14.000  -0.690  0.00  0.00    -0.331 N 
ATOM     16  H   UNL d   1      16.031  14.075  -0.830  0.00  0.00     0.168 HD
BRANCH  15  17
ATOM     17  C   UNL d   1      14.866  13.262  -0.717  0.00  0.00     0.058 A 
ATOM     18  C   UNL d   1      14.731  12.905  -1.452  0.00  0.00     0.017 A 
ATOM     19  C   UNL d   1      14.367  12.163  -1.482  0.00  0.00     0.002 A 
ATOM     20  C   UNL d   1      14.140  11.782  -0.786  0.00  0.00     0.000 A 
ATOM     21  C   UNL d   1      14.285  12.160  -0.056  0.00  0.00     0.002 A 
ATOM     22  C   UNL d   1      14.638  12.881  -0.021  0.00  0.00     0.017 A 
ENDBRANCH  15  17
ENDBRANCH  13  15
ENDBRANCH   1  13
TORSDOF 5
ENDMDL
MODEL 2
REMARK VINA RESULT:      32.9      2.691      3.805
REMARK  5 active torsions:
REMARK  status: ('A' for Active; 'I' for Inactive)
REMARK    1  A    between atoms: N_4  and  C_1 
REMARK    2  A    between atoms: N_5  and  C_1 
REMARK       I    between atoms: C_2  and  N_3 
REMARK    3  A    between atoms: C_8  and  C_2 
REMARK    4  A    between atoms: N_3  and  N_4 
REMARK    5  A    between atoms: C_9  and  N_5 
ROOT
ATOM      1  N   UNL d   1      13.690  14.606  -3.291  0.00  0.00    -0.273 N 
ATOM      2  H   UNL d   1      13.644  15.407  -3.458  0.00  0.00     0.189 HD
ENDROOT
BRANCH   1   3
ATOM      3  N   UNL d   1      14.074  14.341  -2.601  0.00  0.00    -0.264 N 
ATOM      4  C   UNL d   1      14.415  14.909  -2.091  0.00  0.00     0.271 C 
ATOM      5  O   UNL d   1      14.380  15.706  -2.253  0.00  0.00    -0.266 OA
ATOM      6  H   UNL d   1      14.115  13.552  -2.432  0.00  0.00     0.190 HD
BRANCH   4   7
ATOM      7  C   UNL d   1      14.806  14.648  -1.391  0.00  0.00     0.057 A 
ATOM      8  C   UNL d   1      14.732  13.870  -1.136  0.00  0.00     0.005 A 
ATOM      9  C   UNL d   1      15.119  13.621  -0.448  0.00  0.00     0.000 A 
ATOM     10  C   UNL d   1      15.579  14.150  -0.014  0.00  0.00     0.000 A 
ATOM     11  C   UNL d   1      15.650  14.924  -0.272  0.00  0.00     0.000 A 
ATOM     12  C   UNL d   1      15.273  15.185  -0.951  0.00  0.00     0.005 A 
ENDBRANCH   4   7
ENDBRANCH   1   3
BRANCH   1  13
ATOM     13  C   UNL d   1      13.349  14.064  -3.815  0.00  0.00     0.191 C 
ATOM     14  S   UNL d   1      12.848  14.325  -4.416  0.00  0.00    -0.039 SA
BRANCH  13  15
ATOM     15  N   UNL d   1      13.516  13.252  -3.733  0.00  0.00    -0.331 N 
ATOM     16  H   UNL d   1      13.715  12.946  -3.000  0.00  0.00     0.168 HD
BRANCH  15  17
ATOM     17  C   UNL d   1      13.479  12.764  -4.393  0.00  0.00     0.058 A 
ATOM     18  C   UNL d   1      12.809  12.290  -4.507  0.00  0.00     0.017 A 
ATOM     19  C   UNL d   1      12.769  11.797  -5.171  0.00  0.00     0.002 A 
ATOM     20  C   UNL d   1      13.389  11.779  -5.714  0.00  0.00     0.000 A 
ATOM     21  C   UNL d   1      14.054  12.266  -5.581  0.00  0.00     0.002 A 
ATOM     22  C   UNL d   1      14.099  12.746  -4.937  0.00  0.00     0.017 A 
ENDBRANCH  15  17
ENDBRANCH  13  15
ENDBRANCH   1  13
TORSDOF 5
ENDMDL
MODEL 3
REMARK VINA RESULT:      32.9      1.163      4.307
REMARK  5 active torsions:
REMARK  status: ('A' for Active; 'I' for Inactive)
REMARK    1  A    between atoms: N_4  and  C_1 
REMARK    2  A    between atoms: N_5  and  C_1 
REMARK       I    between atoms: C_2  and  N_3 
REMARK    3  A    between atoms: C_8  and  C_2 
REMARK    4  A    between atoms: N_3  and  N_4 
REMARK    5  A    between atoms: C_9  and  N_5 
ROOT
ATOM      1  N   UNL d   1      15.389  15.163  -0.816  0.00  0.00    -0.273 N 
ATOM      2  H   UNL d   1      16.190  15.048  -0.689  0.00  0.00     0.189 HD
ENDROOT
BRANCH   1   3
ATOM      3  N   UNL d   1      14.859  14.522  -0.771  0.00  0.00    -0.264 N 
ATOM      4  C   UNL d   1      15.167  13.760  -0.617  0.00  0.00     0.271 C 
ATOM      5  O   UNL d   1      15.963  13.633  -0.511  0.00  0.00    -0.266 OA
ATOM      6  H   UNL d   1      14.067  14.638  -0.874  0.00  0.00     0.190 HD
BRANCH   4   7
ATOM      7  C   UNL d   1      14.636  13.106  -0.570  0.00  0.00     0.057 A 
ATOM      8  C   UNL d   1      13.983  13.133  -0.069  0.00  0.00     0.005 A 
ATOM      9  C   UNL d   1      13.467  12.487  -0.029  0.00  0.00     0.000 A 
ATOM     10  C   UNL d   1      13.602  11.816  -0.488  0.00  0.00     0.000 A 
ATOM     11  C   UNL d   1      14.253  11.794  -0.984  0.00  0.00     0.000 A 
ATOM     12  C   UNL d   1      14.773  12.426  -1.035  0.00  0.00     0.005 A 
ENDBRANCH   4   7
ENDBRANCH   1   3
BRANCH   1  13
ATOM     13  C   UNL d   1      15.114  15.923  -0.989  0.00  0.00     0.191 C 
ATOM     14  S   UNL d   1      15.422  16.578  -0.594  0.00  0.00    -0.039 SA
BRANCH  13  15
ATOM     15  N   UNL d   1      14.521  16.024  -1.566  0.00  0.00    -0.331 N 
ATOM     16  H   UNL d   1      13.757  15.767  -1.420  0.00  0.00     0.168 HD
BRANCH  15  17
ATOM     17  C   UNL d   1      14.712  16.383  -2.281  0.00  0.00     0.058 A 
ATOM     18  C   UNL d   1      14.920  15.909  -2.928  0.00  0.00     0.017 A 
ATOM     19  C   UNL d   1      15.112  16.267  -3.648  0.00  0.00     0.002 A 
ATOM     20  C   UNL d   1      15.097  17.089  -3.722  0.00  0.00     0.000 A 
ATOM     21  C   UNL d   1      14.885  17.547  -3.058  0.00  0.00     0.002 A 
ATOM     22  C   UNL d   1      14.697  17.204  -2.355  0.00  0.00     0.017 A 
ENDBRANCH  15  17
ENDBRANCH  13  15
ENDBRANCH   1  13
TORSDOF 5
ENDMDL
MODEL 4
REMARK VINA RESULT:      33.7      2.374      3.854
REMARK  5 active torsions:
REMARK  status: ('A' for Active; 'I' for Inactive)
REMARK    1  A    between atoms: N_4  and  C_1 
REMARK    2  A    between atoms: N_5  and  C_1 
REMARK       I    between atoms: C_2  and  N_3 
REMARK    3  A    between atoms: C_8  and  C_2 
REMARK    4  A    between atoms: N_3  and  N_4 
REMARK    5  A    between atoms: C_9  and  N_5 
ROOT
ATOM      1  N   UNL d   1      14.044  15.418  -3.608  0.00  0.00    -0.273 N 
ATOM      2  H   UNL d   1      13.715  15.863  -4.212  0.00  0.00     0.189 HD
ENDROOT
BRANCH   1   3
ATOM      3  N   UNL d   1      13.933  14.592  -3.584  0.00  0.00    -0.264 N 
ATOM      4  C   UNL d   1      13.359  14.253  -4.088  0.00  0.00     0.271 C 
ATOM      5  O   UNL d   1      12.911  14.705  -4.594  0.00  0.00    -0.266 OA
ATOM      6  H   UNL d   1      14.373  14.135  -3.085  0.00  0.00     0.190 HD
BRANCH   4   7
ATOM      7  C   UNL d   1      13.241  13.418  -4.069  0.00  0.00     0.057 A 
ATOM      8  C   UNL d   1      13.477  12.977  -3.416  0.00  0.00     0.005 A 
ATOM      9  C   UNL d   1      13.359  12.158  -3.405  0.00  0.00     0.000 A 
ATOM     10  C   UNL d   1      13.004  11.779  -4.046  0.00  0.00     0.000 A 
ATOM     11  C   UNL d   1      12.770  12.222  -4.694  0.00  0.00     0.000 A 
ATOM     12  C   UNL d   1      12.882  13.034  -4.719  0.00  0.00     0.005 A 
ENDBRANCH   4   7
ENDBRANCH   1   3
BRANCH   1  13
ATOM     13  C   UNL d   1      14.487  15.798  -3.022  0.00  0.00     0.191 C 
ATOM     14  S   UNL d   1      15.212  16.145  -3.208  0.00  0.00    -0.039 SA
BRANCH  13  15
ATOM     15  N   UNL d   1      14.196  15.830  -2.242  0.00  0.00    -0.331 N 
ATOM     16  H   UNL d   1      13.394  15.743  -2.099  0.00  0.00     0.168 HD
BRANCH  15  17
ATOM     17  C   UNL d   1      14.721  15.949  -1.621  0.00  0.00     0.058 A 
ATOM     18  C   UNL d   1      15.058  16.697  -1.516  0.00  0.00     0.017 A 
ATOM     19  C   UNL d   1      15.587  16.820  -0.891  0.00  0.00     0.002 A 
ATOM     20  C   UNL d   1      15.776  16.202  -0.378  0.00  0.00     0.000 A 
ATOM     21  C   UNL d   1      15.424  15.455  -0.502  0.00  0.00     0.002 A 
ATOM     22  C   UNL d   1      14.910  15.331  -1.107  0.00  0.00     0.017 A 
ENDBRANCH  15  17
ENDBRANCH  13  15
ENDBRANCH   1  13
TORSDOF 5
ENDMDL
