MODEL 1
REMARK VINA RESULT:      35.9      0.000      0.000
REMARK  5 active torsions:
REMARK  status: ('A' for Active; 'I' for Inactive)
REMARK    1  A    between atoms: C_6  and  C_1 
REMARK    2  A    between atoms: C_11  and  N_3 
REMARK    3  A    between atoms: C_16  and  C_11 
REMARK    4  A    between atoms: C_13  and  O_15 
REMARK    5  A    between atoms: O_15  and  C_16 
ROOT
ATOM      1  C   UNL d   1      13.912  12.305  -2.550  0.00  0.00     0.171 A 
ATOM      2  N   UNL d   1      13.777  11.785  -3.180  0.00  0.00    -0.225 NA
ATOM      3  N   UNL d   1      13.652  13.061  -2.779  0.00  0.00    -0.286 N 
ATOM      4  C   UNL d   1      13.356  13.009  -3.550  0.00  0.00     0.083 A 
ATOM      5  C   UNL d   1      13.433  12.220  -3.799  0.00  0.00     0.099 A 
ATOM      6  C   UNL d   1      13.023  13.572  -4.069  0.00  0.00     0.019 A 
ATOM      7  C   UNL d   1      13.180  11.997  -4.560  0.00  0.00     0.021 A 
ATOM      8  C   UNL d   1      12.773  13.347  -4.823  0.00  0.00     0.002 A 
ATOM      9  C   UNL d   1      12.852  12.557  -5.069  0.00  0.00     0.002 A 
ENDROOT
BRANCH   3  10
ATOM     10  C   UNL d   1      13.751  13.642  -2.201  0.00  0.00     0.108 C 
BRANCH  10  11
ATOM     11  C   UNL d   1      14.178  14.326  -2.378  0.00  0.00     0.142 C 
BRANCH  11  12
ATOM     12  O   UNL d   1      13.925  15.055  -2.085  0.00  0.00    -0.304 OA
BRANCH  12  13
ATOM     13  C   UNL d   1      14.479  15.600  -1.806  0.00  0.00     0.100 A 
ATOM     14  C   UNL d   1      14.734  16.206  -2.306  0.00  0.00     0.025 A 
ATOM     15  C   UNL d   1      15.289  16.754  -2.032  0.00  0.00     0.002 A 
ATOM     16  C   UNL d   1      15.550  17.362  -2.524  0.00  0.00     0.000 C 
ATOM     17  C   UNL d   1      15.583  16.690  -1.258  0.00  0.00     0.000 A 
ATOM     18  C   UNL d   1      15.322  16.082  -0.766  0.00  0.00     0.002 A 
ATOM     19  C   UNL d   1      14.769  15.537  -1.044  0.00  0.00     0.025 A 
ENDBRANCH  12  13
ENDBRANCH  11  12
ENDBRANCH  10  11
ENDBRANCH   3  10
BRANCH   1  20
ATOM     20  C   UNL d   1      14.246  12.107  -1.821  0.00  0.00     0.134 A 
ATOM     21  O   UNL d   1      14.913  11.971  -1.584  0.00  0.00    -0.302 OA
ATOM     22  C   UNL d   1      15.027  11.810  -0.894  0.00  0.00     0.123 A 
ATOM     23  C   UNL d   1      14.471  11.783  -0.429  0.00  0.00     0.029 A 
ATOM     24  C   UNL d   1      13.806  11.918  -0.667  0.00  0.00     0.030 A 
ENDBRANCH   1  20
TORSDOF 5
ENDMDL
MODEL 2
REMARK VINA RESULT:      36.8      1.145      3.860
REMARK  5 active torsions:
REMARK  status: ('A' for Active; 'I' for Inactive)
REMARK    1  A    between atoms: C_6  and  C_1 
REMARK    2  A    between atoms: C_11  and  N_3 
REMARK    3  A    between atoms: C_16  and  C_11 
REMARK    4  A    between atoms: C_13  and  O_15 
REMARK    5  A    between atoms: O_15  and  C_16 
ROOT
ATOM      1  C   UNL d   1      14.884  14.022  -0.938  0.00  0.00     0.171 A 
ATOM      2  N   UNL d   1      15.192  14.699  -0.573  0.00  0.00    -0.225 NA
ATOM      3  N   UNL d   1      14.594  14.241  -1.686  0.00  0.00    -0.286 N 
ATOM      4  C   UNL d   1      14.723  15.053  -1.785  0.00  0.00     0.083 A 
ATOM      5  C   UNL d   1      15.093  15.337  -1.097  0.00  0.00     0.099 A 
ATOM      6  C   UNL d   1      14.555  15.582  -2.408  0.00  0.00     0.019 A 
ATOM      7  C   UNL d   1      15.292  16.142  -1.034  0.00  0.00     0.021 A 
ATOM      8  C   UNL d   1      14.755  16.380  -2.342  0.00  0.00     0.002 A 
ATOM      9  C   UNL d   1      15.124  16.661  -1.653  0.00  0.00     0.002 A 
ENDROOT
BRANCH   3  10
ATOM     10  C   UNL d   1      14.267  13.618  -2.118  0.00  0.00     0.108 C 
BRANCH  10  11
ATOM     11  C   UNL d   1      14.034  13.740  -2.901  0.00  0.00     0.142 C 
BRANCH  11  12
ATOM     12  O   UNL d   1      13.290  13.485  -3.151  0.00  0.00    -0.304 OA
BRANCH  12  13
ATOM     13  C   UNL d   1      13.226  12.990  -3.808  0.00  0.00     0.100 A 
ATOM     14  C   UNL d   1      13.562  13.226  -4.524  0.00  0.00     0.025 A 
ATOM     15  C   UNL d   1      13.500  12.734  -5.186  0.00  0.00     0.002 A 
ATOM     16  C   UNL d   1      13.833  12.962  -5.905  0.00  0.00     0.000 C 
ATOM     17  C   UNL d   1      13.102  12.008  -5.123  0.00  0.00     0.000 A 
ATOM     18  C   UNL d   1      12.769  11.781  -4.403  0.00  0.00     0.002 A 
ATOM     19  C   UNL d   1      12.833  12.275  -3.746  0.00  0.00     0.025 A 
ENDBRANCH  12  13
ENDBRANCH  11  12
ENDBRANCH  10  11
ENDBRANCH   3  10
BRANCH   1  20
ATOM     20  C   UNL d   1      14.868  13.262  -0.615  0.00  0.00     0.134 A 
ATOM     21  O   UNL d   1      15.365  12.781  -0.415  0.00  0.00    -0.302 OA
ATOM     22  C   UNL d   1      15.166  12.146  -0.143  0.00  0.00     0.123 A 
ATOM     23  C   UNL d   1      14.463  11.986  -0.068  0.00  0.00     0.029 A 
ATOM     24  C   UNL d   1      13.968  12.467  -0.267  0.00  0.00     0.030 A 
ENDBRANCH   1  20
TORSDOF 5
ENDMDL
