MODEL 1
REMARK VINA RESULT:      -2.3      0.000      0.000
REMARK  5 active torsions:
REMARK  status: ('A' for Active; 'I' for Inactive)
REMARK    1  A    between atoms: C_7  and  N_1 
REMARK    2  A    between atoms: C_14  and  N_5 
REMARK    3  A    between atoms: C_8  and  C_7 
REMARK    4  A    between atoms: C_16  and  C_14 
REMARK    5  A    between atoms: O_15  and  C_16 
ROOT
ATOM      1  N   UNL d   1     -41.440-122.408 -50.850  0.00  0.00    -0.273 N 
ATOM      2  C   UNL d   1     -41.251-121.636 -51.117  0.00  0.00     0.153 A 
ATOM      3  S   UNL d   1     -41.138-121.497 -51.914  0.00  0.00    -0.039 SA
ATOM      4  C   UNL d   1     -41.512-123.026 -51.385  0.00  0.00     0.168 A 
ATOM      5  N   UNL d   1     -41.398-122.882 -52.193  0.00  0.00    -0.280 N 
ATOM      6  C   UNL d   1     -41.209-122.111 -52.460  0.00  0.00     0.120 A 
ATOM      7  S   UNL d   1     -41.179-121.012 -50.566  0.00  0.00    -0.052 SA
ENDROOT
BRANCH   1   8
ATOM      8  C   UNL d   1     -41.551-122.536 -50.039  0.00  0.00     0.107 C 
BRANCH   8   9
ATOM      9  C   UNL d   1     -42.183-122.995 -49.765  0.00  0.00     0.118 A 
ATOM     10  O   UNL d   1     -42.920-123.073 -50.135  0.00  0.00    -0.304 OA
ATOM     11  C   UNL d   1     -43.376-123.582 -49.670  0.00  0.00     0.123 A 
ATOM     12  C   UNL d   1     -42.931-123.812 -49.028  0.00  0.00     0.029 A 
ATOM     13  C   UNL d   1     -42.193-123.451 -49.084  0.00  0.00     0.028 A 
ENDBRANCH   8   9
ENDBRANCH   1   8
BRANCH   5  14
ATOM     14  C   UNL d   1     -41.468-123.491 -52.740  0.00  0.00     0.108 C 
BRANCH  14  15
ATOM     15  C   UNL d   1     -41.499-123.318 -53.547  0.00  0.00     0.135 C 
BRANCH  15  16
ATOM     16  O   UNL d   1     -41.915-123.816 -54.055  0.00  0.00    -0.325 OA
ATOM     17  C   UNL d   1     -41.782-123.773 -54.861  0.00  0.00     0.182 C 
ENDBRANCH  15  16
ENDBRANCH  14  15
ENDBRANCH   5  14
TORSDOF 5
ENDMDL
MODEL 2
REMARK VINA RESULT:      -2.1      1.690      4.158
REMARK  5 active torsions:
REMARK  status: ('A' for Active; 'I' for Inactive)
REMARK    1  A    between atoms: C_7  and  N_1 
REMARK    2  A    between atoms: C_14  and  N_5 
REMARK    3  A    between atoms: C_8  and  C_7 
REMARK    4  A    between atoms: C_16  and  C_14 
REMARK    5  A    between atoms: O_15  and  C_16 
ROOT
ATOM      1  N   UNL d   1     -41.238-122.552 -53.528  0.00  0.00    -0.273 N 
ATOM      2  C   UNL d   1     -41.191-123.388 -53.508  0.00  0.00     0.153 A 
ATOM      3  S   UNL d   1     -41.214-123.781 -52.792  0.00  0.00    -0.039 SA
ATOM      4  C   UNL d   1     -41.305-122.124 -52.831  0.00  0.00     0.168 A 
ATOM      5  N   UNL d   1     -41.327-122.524 -52.106  0.00  0.00    -0.280 N 
ATOM      6  C   UNL d   1     -41.281-123.360 -52.086  0.00  0.00     0.120 A 
ATOM      7  S   UNL d   1     -41.123-123.817 -54.222  0.00  0.00    -0.052 SA
ENDROOT
BRANCH   1   8
ATOM      8  C   UNL d   1     -41.214-122.165 -54.260  0.00  0.00     0.107 C 
BRANCH   8   9
ATOM      9  C   UNL d   1     -41.911-121.991 -54.671  0.00  0.00     0.118 A 
ATOM     10  O   UNL d   1     -42.590-121.644 -54.346  0.00  0.00    -0.304 OA
ATOM     11  C   UNL d   1     -43.145-121.573 -54.954  0.00  0.00     0.123 A 
ATOM     12  C   UNL d   1     -42.817-121.870 -55.638  0.00  0.00     0.029 A 
ATOM     13  C   UNL d   1     -42.054-122.129 -55.466  0.00  0.00     0.028 A 
ENDBRANCH   8   9
ENDBRANCH   1   8
BRANCH   5  14
ATOM     14  C   UNL d   1     -41.395-122.108 -51.401  0.00  0.00     0.108 C 
BRANCH  14  15
ATOM     15  C   UNL d   1     -42.039-122.245 -50.902  0.00  0.00     0.135 C 
BRANCH  15  16
ATOM     16  O   UNL d   1     -41.967-122.101 -50.095  0.00  0.00    -0.325 OA
ATOM     17  C   UNL d   1     -42.436-122.514 -49.567  0.00  0.00     0.182 C 
ENDBRANCH  15  16
ENDBRANCH  14  15
ENDBRANCH   5  14
TORSDOF 5
ENDMDL
MODEL 3
REMARK VINA RESULT:      -1.7      0.773      3.437
REMARK  5 active torsions:
REMARK  status: ('A' for Active; 'I' for Inactive)
REMARK    1  A    between atoms: C_7  and  N_1 
REMARK    2  A    between atoms: C_14  and  N_5 
REMARK    3  A    between atoms: C_8  and  C_7 
REMARK    4  A    between atoms: C_16  and  C_14 
REMARK    5  A    between atoms: O_15  and  C_16 
ROOT
ATOM      1  N   UNL d   1     -41.353-122.066 -52.239  0.00  0.00    -0.273 N 
ATOM      2  C   UNL d   1     -41.361-121.315 -51.867  0.00  0.00     0.153 A 
ATOM      3  S   UNL d   1     -41.581-121.251 -51.083  0.00  0.00    -0.039 SA
ATOM      4  C   UNL d   1     -41.566-122.739 -51.820  0.00  0.00     0.168 A 
ATOM      5  N   UNL d   1     -41.789-122.672 -51.025  0.00  0.00    -0.280 N 
ATOM      6  C   UNL d   1     -41.796-121.921 -50.653  0.00  0.00     0.120 A 
ATOM      7  S   UNL d   1     -41.143-120.635 -52.301  0.00  0.00    -0.052 SA
ENDROOT
BRANCH   1   8
ATOM      8  C   UNL d   1     -41.128-122.118 -53.035  0.00  0.00     0.107 C 
BRANCH   8   9
ATOM      9  C   UNL d   1     -41.516-122.632 -53.554  0.00  0.00     0.118 A 
ATOM     10  O   UNL d   1     -42.272-122.514 -53.875  0.00  0.00    -0.304 OA
ATOM     11  C   UNL d   1     -42.436-123.163 -54.360  0.00  0.00     0.123 A 
ATOM     12  C   UNL d   1     -41.798-123.669 -54.339  0.00  0.00     0.029 A 
ATOM     13  C   UNL d   1     -41.228-123.343 -53.841  0.00  0.00     0.028 A 
ENDBRANCH   8   9
ENDBRANCH   1   8
BRANCH   5  14
ATOM     14  C   UNL d   1     -42.004-123.336 -50.593  0.00  0.00     0.108 C 
BRANCH  14  15
ATOM     15  C   UNL d   1     -42.495-123.257 -49.934  0.00  0.00     0.135 C 
BRANCH  15  16
ATOM     16  O   UNL d   1     -43.203-123.676 -49.901  0.00  0.00    -0.325 OA
ATOM     17  C   UNL d   1     -43.557-123.817 -49.177  0.00  0.00     0.182 C 
ENDBRANCH  15  16
ENDBRANCH  14  15
ENDBRANCH   5  14
TORSDOF 5
ENDMDL
MODEL 4
REMARK VINA RESULT:      -0.5      1.641      3.927
REMARK  5 active torsions:
REMARK  status: ('A' for Active; 'I' for Inactive)
REMARK    1  A    between atoms: C_7  and  N_1 
REMARK    2  A    between atoms: C_14  and  N_5 
REMARK    3  A    between atoms: C_8  and  C_7 
REMARK    4  A    between atoms: C_16  and  C_14 
REMARK    5  A    between atoms: O_15  and  C_16 
ROOT
ATOM      1  N   UNL d   1     -42.151-122.394 -50.496  0.00  0.00    -0.273 N 
ATOM      2  C   UNL d   1     -42.968-122.316 -50.328  0.00  0.00     0.153 A 
ATOM      3  S   UNL d   1     -43.288-122.695 -49.679  0.00  0.00    -0.039 SA
ATOM      4  C   UNL d   1     -41.669-122.850 -50.013  0.00  0.00     0.168 A 
ATOM      5  N   UNL d   1     -41.996-123.234 -49.356  0.00  0.00    -0.280 N 
ATOM      6  C   UNL d   1     -42.813-123.156 -49.187  0.00  0.00     0.120 A 
ATOM      7  S   UNL d   1     -43.452-121.850 -50.825  0.00  0.00    -0.052 SA
ENDROOT
BRANCH   1   8
ATOM      8  C   UNL d   1     -41.838-122.005 -51.158  0.00  0.00     0.107 C 
BRANCH   8   9
ATOM      9  C   UNL d   1     -41.555-122.431 -51.808  0.00  0.00     0.118 A 
ATOM     10  O   UNL d   1     -41.390-123.243 -51.818  0.00  0.00    -0.304 OA
ATOM     11  C   UNL d   1     -41.123-123.430 -52.577  0.00  0.00     0.123 A 
ATOM     12  C   UNL d   1     -41.123-122.750 -53.025  0.00  0.00     0.029 A 
ATOM     13  C   UNL d   1     -41.390-122.130 -52.552  0.00  0.00     0.028 A 
ENDBRANCH   8   9
ENDBRANCH   1   8
BRANCH   5  14
ATOM     14  C   UNL d   1     -41.526-123.694 -48.863  0.00  0.00     0.108 C 
BRANCH  14  15
ATOM     15  C   UNL d   1     -41.714-123.763 -48.062  0.00  0.00     0.135 C 
BRANCH  15  16
ATOM     16  O   UNL d   1     -41.123-123.676 -47.496  0.00  0.00    -0.325 OA
ATOM     17  C   UNL d   1     -41.325-123.492 -46.725  0.00  0.00     0.182 C 
ENDBRANCH  15  16
ENDBRANCH  14  15
ENDBRANCH   5  14
TORSDOF 5
ENDMDL
