MODEL 1
REMARK VINA RESULT:      76.3      0.000      0.000
REMARK  11 active torsions:
REMARK  status: ('A' for Active; 'I' for Inactive)
REMARK    1  A    between atoms: S_2  and  N_15 
REMARK    2  A    between atoms: C_10  and  S_2 
REMARK    3  A    between atoms: C_14  and  C_4 
REMARK    4  A    between atoms: N_16  and  C_8 
REMARK    5  A    between atoms: C_19  and  C_14 
REMARK    6  A    between atoms: N_15  and  C_19 
REMARK    7  A    between atoms: C_24  and  N_16 
REMARK    8  A    between atoms: N_20  and  C_25 
REMARK    9  A    between atoms: C_26  and  N_20 
REMARK   10  A    between atoms: C_27  and  N_20 
REMARK   11  A    between atoms: C_25  and  C_24 
ROOT
ATOM      1  N   UNL d   1     -54.856-101.228 -42.217  0.00  0.00    -0.190 N 
ATOM      2  C   UNL d   1     -54.998-101.893 -42.683  0.00  0.00     0.187 A 
ATOM      3  C   UNL d   1     -54.839-100.564 -42.718  0.00  0.00     0.188 A 
ATOM      4  N   UNL d   1     -54.761-101.310 -41.403  0.00  0.00    -0.143 NA
ATOM      5  N   UNL d   1     -55.068-101.636 -43.474  0.00  0.00    -0.127 NA
ATOM      6  N   UNL d   1     -54.970-100.823 -43.486  0.00  0.00    -0.127 NA
ATOM      7  C   UNL d   1     -54.808-102.058 -41.054  0.00  0.00     0.182 A 
ATOM      8  C   UNL d   1     -55.045-102.640 -42.334  0.00  0.00     0.044 A 
ATOM      9  C   UNL d   1     -54.950-102.722 -41.520  0.00  0.00     0.044 A 
ENDROOT
BRANCH   3  10
ATOM     10  C   UNL d   1     -54.713 -99.787 -42.487  0.00  0.00     0.062 C 
BRANCH  10  11
ATOM     11  C   UNL d   1     -54.988 -99.168 -42.951  0.00  0.00     0.115 C 
BRANCH  11  12
ATOM     12  N   UNL d   1     -55.652 -99.285 -43.427  0.00  0.00    -0.157 NA
BRANCH  12  13
ATOM     13  S   UNL d   1     -55.595 -99.216 -44.241  0.00  0.00     0.285 S 
ATOM     14  O   UNL d   1     -54.878 -98.811 -44.161  0.00  0.00    -0.198 OA
ATOM     15  O   UNL d   1     -56.311 -99.621 -44.332  0.00  0.00    -0.198 OA
BRANCH  13  16
ATOM     16  C   UNL d   1     -55.532 -99.144 -45.059  0.00  0.00     0.105 A 
ATOM     17  C   UNL d   1     -56.167 -98.842 -45.503  0.00  0.00     0.013 A 
ATOM     18  C   UNL d   1     -56.101 -98.771 -46.312  0.00  0.00     0.001 A 
ATOM     19  C   UNL d   1     -55.405 -99.000 -46.693  0.00  0.00     0.000 A 
ATOM     20  C   UNL d   1     -54.778 -99.297 -46.269  0.00  0.00     0.001 A 
ATOM     21  C   UNL d   1     -55.347 -98.924 -47.523  0.00  0.00     0.000 C 
ATOM     22  C   UNL d   1     -54.829 -99.374 -45.451  0.00  0.00     0.013 A 
ENDBRANCH  13  16
ENDBRANCH  12  13
ENDBRANCH  11  12
ENDBRANCH  10  11
ENDBRANCH   3  10
BRANCH   7  23
ATOM     23  N   UNL d   1     -54.714-102.151 -40.235  0.00  0.00    -0.222 NA
BRANCH  23  24
ATOM     24  C   UNL d   1     -55.399-102.241 -39.755  0.00  0.00     0.120 C 
BRANCH  24  25
ATOM     25  C   UNL d   1     -55.399-102.796 -39.151  0.00  0.00     0.101 C 
BRANCH  25  26
ATOM     26  N   UNL d   1     -55.888-102.690 -38.492  0.00  0.00    -0.301 N 
BRANCH  26  27
ATOM     27  C   UNL d   1     -55.576-102.439 -37.768  0.00  0.00     0.080 C 
ATOM     28  C   UNL d   1     -54.904-102.821 -37.456  0.00  0.00     0.021 C 
ENDBRANCH  26  27
BRANCH  26  29
ATOM     29  C   UNL d   1     -56.707-102.836 -38.555  0.00  0.00     0.080 C 
ATOM     30  C   UNL d   1     -57.166-102.868 -37.864  0.00  0.00     0.021 C 
ENDBRANCH  26  29
ENDBRANCH  25  26
ENDBRANCH  24  25
ENDBRANCH  23  24
ENDBRANCH   7  23
TORSDOF 11
ENDMDL
