MODEL 1
REMARK VINA RESULT:      -4.8      0.000      0.000
REMARK  6 active torsions:
REMARK  status: ('A' for Active; 'I' for Inactive)
REMARK    1  A    between atoms: C_16  and  N_1 
REMARK    2  A    between atoms: C_11  and  C_2 
REMARK    3  A    between atoms: S_15  and  C_3 
REMARK    4  A    between atoms: C_8  and  C_11 
REMARK    5  A    between atoms: C_13  and  C_17 
REMARK       I    between atoms: N_14  and  C_13 
REMARK    6  A    between atoms: C_17  and  S_15 
ROOT
ATOM      1  N   UNL d   1     -47.914  12.981  22.927  0.00  0.00    -0.269 N 
ATOM      2  C   UNL d   1     -48.425  13.632  22.844  0.00  0.00     0.172 A 
ATOM      3  C   UNL d   1     -47.149  13.277  22.982  0.00  0.00     0.201 A 
ATOM      4  N   UNL d   1     -47.973  14.314  22.849  0.00  0.00    -0.128 NA
ATOM      5  N   UNL d   1     -47.179  14.089  22.935  0.00  0.00    -0.121 NA
ENDROOT
BRANCH   3   6
ATOM      6  S   UNL d   1     -46.448  12.828  23.072  0.00  0.00    -0.043 SA
BRANCH   6   7
ATOM      7  C   UNL d   1     -45.764  13.037  22.644  0.00  0.00     0.099 C 
BRANCH   7   8
ATOM      8  C   UNL d   1     -45.099  12.557  22.687  0.00  0.00     0.271 C 
ATOM      9  N   UNL d   1     -44.462  12.685  22.180  0.00  0.00    -0.272 N 
ATOM     10  C   UNL d   1     -43.789  12.202  22.221  0.00  0.00     0.083 A 
ATOM     11  C   UNL d   1     -44.489  13.297  21.625  0.00  0.00     0.083 A 
ATOM     12  C   UNL d   1     -43.152  12.330  21.713  0.00  0.00     0.019 A 
ATOM     13  C   UNL d   1     -43.187  12.946  21.161  0.00  0.00     0.003 A 
ATOM     14  C   UNL d   1     -43.852  13.426  21.118  0.00  0.00     0.019 A 
ATOM     15  O   UNL d   1     -45.064  11.938  23.243  0.00  0.00    -0.266 OA
ENDBRANCH   7   8
ENDBRANCH   6   7
ENDBRANCH   3   6
BRANCH   1  16
ATOM     16  C   UNL d   1     -48.101  12.180  22.953  0.00  0.00     0.067 A 
ATOM     17  C   UNL d   1     -48.210  11.764  22.238  0.00  0.00     0.018 A 
ATOM     18  C   UNL d   1     -48.399  10.955  22.255  0.00  0.00     0.002 A 
ATOM     19  C   UNL d   1     -48.475  10.579  22.986  0.00  0.00     0.000 A 
ATOM     20  C   UNL d   1     -48.369  10.981  23.688  0.00  0.00     0.002 A 
ATOM     21  C   UNL d   1     -48.180  11.791  23.671  0.00  0.00     0.018 A 
ENDBRANCH   1  16
BRANCH   2  22
ATOM     22  C   UNL d   1     -49.244  13.501  22.775  0.00  0.00     0.059 C 
BRANCH  22  23
ATOM     23  C   UNL d   1     -49.751  14.146  22.633  0.00  0.00     0.094 A 
ATOM     24  C   UNL d   1     -49.878  14.716  23.216  0.00  0.00     0.082 A 
ATOM     25  C   UNL d   1     -50.380  15.350  23.067  0.00  0.00     0.285 A 
ATOM     26  O   UNL d   1     -50.508  15.920  23.650  0.00  0.00    -0.265 OA
ATOM     27  N   UNL d   1     -50.755  15.414  22.336  0.00  0.00    -0.152 NA
ATOM     28  C   UNL d   1     -50.633  14.856  21.758  0.00  0.00     0.371 A 
ATOM     29  N   UNL d   1     -50.126  14.210  21.902  0.00  0.00    -0.191 NA
ATOM     30  O   UNL d   1     -51.026  14.942  21.021  0.00  0.00    -0.242 OA
ENDBRANCH  22  23
ENDBRANCH   2  22
TORSDOF 6
ENDMDL
MODEL 2
REMARK VINA RESULT:      -4.8      1.151      5.151
REMARK  6 active torsions:
REMARK  status: ('A' for Active; 'I' for Inactive)
REMARK    1  A    between atoms: C_16  and  N_1 
REMARK    2  A    between atoms: C_11  and  C_2 
REMARK    3  A    between atoms: S_15  and  C_3 
REMARK    4  A    between atoms: C_8  and  C_11 
REMARK    5  A    between atoms: C_13  and  C_17 
REMARK       I    between atoms: N_14  and  C_13 
REMARK    6  A    between atoms: C_17  and  S_15 
ROOT
ATOM      1  N   UNL d   1     -46.945  12.927  22.844  0.00  0.00    -0.269 N 
ATOM      2  C   UNL d   1     -46.134  12.908  22.660  0.00  0.00     0.172 A 
ATOM      3  C   UNL d   1     -47.151  13.715  22.956  0.00  0.00     0.201 A 
ATOM      4  N   UNL d   1     -45.853  13.676  22.662  0.00  0.00    -0.128 NA
ATOM      5  N   UNL d   1     -46.489  14.176  22.846  0.00  0.00    -0.121 NA
ENDROOT
BRANCH   3   6
ATOM      6  S   UNL d   1     -47.911  14.007  23.151  0.00  0.00    -0.043 SA
BRANCH   6   7
ATOM      7  C   UNL d   1     -48.233  14.645  22.722  0.00  0.00     0.099 C 
BRANCH   7   8
ATOM      8  C   UNL d   1     -48.902  15.026  23.008  0.00  0.00     0.271 C 
ATOM      9  N   UNL d   1     -49.622  14.952  22.612  0.00  0.00    -0.272 N 
ATOM     10  C   UNL d   1     -50.299  15.336  22.899  0.00  0.00     0.083 A 
ATOM     11  C   UNL d   1     -49.674  14.494  21.927  0.00  0.00     0.083 A 
ATOM     12  C   UNL d   1     -51.019  15.261  22.503  0.00  0.00     0.019 A 
ATOM     13  C   UNL d   1     -51.062  14.801  21.817  0.00  0.00     0.003 A 
ATOM     14  C   UNL d   1     -50.394  14.419  21.531  0.00  0.00     0.019 A 
ATOM     15  O   UNL d   1     -48.857  15.489  23.698  0.00  0.00    -0.266 OA
ENDBRANCH   7   8
ENDBRANCH   6   7
ENDBRANCH   3   6
BRANCH   1  16
ATOM     16  C   UNL d   1     -47.473  12.300  22.909  0.00  0.00     0.067 A 
ATOM     17  C   UNL d   1     -47.848  12.010  22.222  0.00  0.00     0.018 A 
ATOM     18  C   UNL d   1     -48.383  11.376  22.280  0.00  0.00     0.002 A 
ATOM     19  C   UNL d   1     -48.532  11.046  23.022  0.00  0.00     0.000 A 
ATOM     20  C   UNL d   1     -48.168  11.326  23.697  0.00  0.00     0.002 A 
ATOM     21  C   UNL d   1     -47.632  11.960  23.639  0.00  0.00     0.018 A 
ENDBRANCH   1  16
BRANCH   2  22
ATOM     22  C   UNL d   1     -45.766  12.175  22.516  0.00  0.00     0.059 C 
BRANCH  22  23
ATOM     23  C   UNL d   1     -44.944  12.148  22.388  0.00  0.00     0.094 A 
ATOM     24  C   UNL d   1     -44.461  11.672  22.858  0.00  0.00     0.082 A 
ATOM     25  C   UNL d   1     -43.650  11.652  22.724  0.00  0.00     0.285 A 
ATOM     26  O   UNL d   1     -43.167  11.175  23.194  0.00  0.00    -0.265 OA
ATOM     27  N   UNL d   1     -43.322  12.108  22.120  0.00  0.00    -0.152 NA
ATOM     28  C   UNL d   1     -43.792  12.579  21.655  0.00  0.00     0.371 A 
ATOM     29  N   UNL d   1     -44.616  12.604  21.785  0.00  0.00    -0.191 NA
ATOM     30  O   UNL d   1     -43.435  13.034  21.046  0.00  0.00    -0.242 OA
ENDBRANCH  22  23
ENDBRANCH   2  22
TORSDOF 6
ENDMDL
MODEL 3
REMARK VINA RESULT:      -4.0      4.533      8.377
REMARK  6 active torsions:
REMARK  status: ('A' for Active; 'I' for Inactive)
REMARK    1  A    between atoms: C_16  and  N_1 
REMARK    2  A    between atoms: C_11  and  C_2 
REMARK    3  A    between atoms: S_15  and  C_3 
REMARK    4  A    between atoms: C_8  and  C_11 
REMARK    5  A    between atoms: C_13  and  C_17 
REMARK       I    between atoms: N_14  and  C_13 
REMARK    6  A    between atoms: C_17  and  S_15 
ROOT
ATOM      1  N   UNL d   1     -40.895  14.363  20.098  0.00  0.00    -0.269 N 
ATOM      2  C   UNL d   1     -40.749  14.420  19.282  0.00  0.00     0.172 A 
ATOM      3  C   UNL d   1     -41.533  13.855  20.197  0.00  0.00     0.201 A 
ATOM      4  N   UNL d   1     -41.294  13.951  18.891  0.00  0.00    -0.128 NA
ATOM      5  N   UNL d   1     -41.781  13.601  19.464  0.00  0.00    -0.121 NA
ENDROOT
BRANCH   3   6
ATOM      6  S   UNL d   1     -41.880  13.629  20.925  0.00  0.00    -0.043 SA
BRANCH   6   7
ATOM      7  C   UNL d   1     -42.662  13.340  20.941  0.00  0.00     0.099 C 
BRANCH   7   8
ATOM      8  C   UNL d   1     -42.873  12.778  21.500  0.00  0.00     0.271 C 
ATOM      9  N   UNL d   1     -43.654  12.724  21.760  0.00  0.00    -0.272 N 
ATOM     10  C   UNL d   1     -43.870  12.157  22.324  0.00  0.00     0.083 A 
ATOM     11  C   UNL d   1     -44.227  13.237  21.458  0.00  0.00     0.083 A 
ATOM     12  C   UNL d   1     -44.651  12.104  22.584  0.00  0.00     0.019 A 
ATOM     13  C   UNL d   1     -45.219  12.621  22.277  0.00  0.00     0.003 A 
ATOM     14  C   UNL d   1     -45.008  13.183  21.718  0.00  0.00     0.019 A 
ATOM     15  O   UNL d   1     -42.300  12.258  21.808  0.00  0.00    -0.266 OA
ENDBRANCH   7   8
ENDBRANCH   6   7
ENDBRANCH   3   6
BRANCH   1  16
ATOM     16  C   UNL d   1     -40.498  14.729  20.718  0.00  0.00     0.067 A 
ATOM     17  C   UNL d   1     -40.742  15.488  20.968  0.00  0.00     0.018 A 
ATOM     18  C   UNL d   1     -40.347  15.865  21.594  0.00  0.00     0.002 A 
ATOM     19  C   UNL d   1     -39.715  15.477  21.957  0.00  0.00     0.000 A 
ATOM     20  C   UNL d   1     -39.471  14.736  21.718  0.00  0.00     0.002 A 
ATOM     21  C   UNL d   1     -39.867  14.358  21.091  0.00  0.00     0.018 A 
ENDBRANCH   1  16
BRANCH   2  22
ATOM     22  C   UNL d   1     -40.127  14.903  19.010  0.00  0.00     0.059 C 
BRANCH  22  23
ATOM     23  C   UNL d   1     -39.929  14.900  18.203  0.00  0.00     0.094 A 
ATOM     24  C   UNL d   1     -40.302  15.416  17.677  0.00  0.00     0.082 A 
ATOM     25  C   UNL d   1     -40.100  15.406  16.880  0.00  0.00     0.285 A 
ATOM     26  O   UNL d   1     -40.473  15.922  16.354  0.00  0.00    -0.265 OA
ATOM     27  N   UNL d   1     -39.526  14.881  16.608  0.00  0.00    -0.152 NA
ATOM     28  C   UNL d   1     -39.155  14.370  17.120  0.00  0.00     0.371 A 
ATOM     29  N   UNL d   1     -39.355  14.375  17.930  0.00  0.00    -0.191 NA
ATOM     30  O   UNL d   1     -38.574  13.845  16.820  0.00  0.00    -0.242 OA
ENDBRANCH  22  23
ENDBRANCH   2  22
TORSDOF 6
ENDMDL
MODEL 4
REMARK VINA RESULT:      -3.0      1.037      1.513
REMARK  6 active torsions:
REMARK  status: ('A' for Active; 'I' for Inactive)
REMARK    1  A    between atoms: C_16  and  N_1 
REMARK    2  A    between atoms: C_11  and  C_2 
REMARK    3  A    between atoms: S_15  and  C_3 
REMARK    4  A    between atoms: C_8  and  C_11 
REMARK    5  A    between atoms: C_13  and  C_17 
REMARK       I    between atoms: N_14  and  C_13 
REMARK    6  A    between atoms: C_17  and  S_15 
ROOT
ATOM      1  N   UNL d   1     -46.830  13.031  22.720  0.00  0.00    -0.269 N 
ATOM      2  C   UNL d   1     -47.351  13.677  22.768  0.00  0.00     0.172 A 
ATOM      3  C   UNL d   1     -46.110  13.317  22.446  0.00  0.00     0.201 A 
ATOM      4  N   UNL d   1     -46.948  14.348  22.526  0.00  0.00    -0.128 NA
ATOM      5  N   UNL d   1     -46.176  14.120  22.326  0.00  0.00    -0.121 NA
ENDROOT
BRANCH   3   6
ATOM      6  S   UNL d   1     -45.416  12.868  22.309  0.00  0.00    -0.043 SA
BRANCH   6   7
ATOM      7  C   UNL d   1     -44.741  13.235  21.986  0.00  0.00     0.099 C 
BRANCH   7   8
ATOM      8  C   UNL d   1     -44.074  12.784  21.829  0.00  0.00     0.271 C 
ATOM      9  N   UNL d   1     -43.375  13.149  21.588  0.00  0.00    -0.272 N 
ATOM     10  C   UNL d   1     -42.698  12.697  21.429  0.00  0.00     0.083 A 
ATOM     11  C   UNL d   1     -43.342  13.970  21.503  0.00  0.00     0.083 A 
ATOM     12  C   UNL d   1     -41.999  13.062  21.188  0.00  0.00     0.019 A 
ATOM     13  C   UNL d   1     -41.976  13.885  21.106  0.00  0.00     0.003 A 
ATOM     14  C   UNL d   1     -42.643  14.336  21.263  0.00  0.00     0.019 A 
ATOM     15  O   UNL d   1     -44.098  11.956  21.912  0.00  0.00    -0.266 OA
ENDBRANCH   7   8
ENDBRANCH   6   7
ENDBRANCH   3   6
BRANCH   1  16
ATOM     16  C   UNL d   1     -46.972  12.241  22.902  0.00  0.00     0.067 A 
ATOM     17  C   UNL d   1     -47.527  11.812  22.448  0.00  0.00     0.018 A 
ATOM     18  C   UNL d   1     -47.676  11.014  22.625  0.00  0.00     0.002 A 
ATOM     19  C   UNL d   1     -47.269  10.661  23.251  0.00  0.00     0.000 A 
ATOM     20  C   UNL d   1     -46.726  11.076  23.698  0.00  0.00     0.002 A 
ATOM     21  C   UNL d   1     -46.576  11.875  23.521  0.00  0.00     0.018 A 
ENDBRANCH   1  16
BRANCH   2  22
ATOM     22  C   UNL d   1     -48.131  13.555  23.032  0.00  0.00     0.059 C 
BRANCH  22  23
ATOM     23  C   UNL d   1     -48.719  14.111  22.842  0.00  0.00     0.094 A 
ATOM     24  C   UNL d   1     -49.143  14.050  22.136  0.00  0.00     0.082 A 
ATOM     25  C   UNL d   1     -49.722  14.605  21.957  0.00  0.00     0.285 A 
ATOM     26  O   UNL d   1     -50.146  14.544  21.251  0.00  0.00    -0.265 OA
ATOM     27  N   UNL d   1     -49.879  15.221  22.482  0.00  0.00    -0.152 NA
ATOM     28  C   UNL d   1     -49.465  15.286  23.178  0.00  0.00     0.371 A 
ATOM     29  N   UNL d   1     -48.876  14.727  23.367  0.00  0.00    -0.191 NA
ATOM     30  O   UNL d   1     -49.643  15.922  23.698  0.00  0.00    -0.242 OA
ENDBRANCH  22  23
ENDBRANCH   2  22
TORSDOF 6
ENDMDL
