MODEL 1
REMARK VINA RESULT:      58.1      0.000      0.000
REMARK  1 active torsions:
REMARK  status: ('A' for Active; 'I' for Inactive)
REMARK    1  A    between atoms: C_6  and  C_2 
ROOT
ATOM      1  N   UNL d   1      61.670  47.854  50.976  0.00  0.00    -0.220 NA
ATOM      2  C   UNL d   1      61.255  47.484  50.383  0.00  0.00     0.182 A 
ATOM      3  O   UNL d   1      60.591  47.853  50.205  0.00  0.00    -0.288 OA
ATOM      4  C   UNL d   1      61.206  48.507  51.169  0.00  0.00     0.106 A 
ATOM      5  C   UNL d   1      60.534  48.507  50.689  0.00  0.00     0.119 A 
ATOM      6  C   UNL d   1      61.328  49.100  51.732  0.00  0.00     0.021 A 
ATOM      7  C   UNL d   1      59.986  49.099  50.772  0.00  0.00     0.026 A 
ATOM      8  C   UNL d   1      60.078  49.708  51.327  0.00  0.00     0.002 A 
ATOM      9  C   UNL d   1      60.773  49.708  51.824  0.00  0.00     0.002 A 
ENDROOT
BRANCH   2  10
ATOM     10  C   UNL d   1      61.484  46.797  49.995  0.00  0.00     0.041 A 
ATOM     11  C   UNL d   1      61.059  46.110  50.115  0.00  0.00     0.005 A 
ATOM     12  C   UNL d   1      61.297  45.410  49.716  0.00  0.00     0.021 A 
ATOM     13  C   UNL d   1      61.943  45.414  49.217  0.00  0.00     0.103 A 
ATOM     14  C   UNL d   1      62.374  46.124  49.100  0.00  0.00     0.021 A 
ATOM     15  N   UNL d   1      62.140  44.718  48.852  0.00  0.00    -0.148 N 
ATOM     16  C   UNL d   1      62.132  46.808  49.497  0.00  0.00     0.005 A 
ENDBRANCH   2  10
TORSDOF 1
ENDMDL
MODEL 2
REMARK VINA RESULT:      60.6      1.005      3.727
REMARK  1 active torsions:
REMARK  status: ('A' for Active; 'I' for Inactive)
REMARK    1  A    between atoms: C_6  and  C_2 
ROOT
ATOM      1  N   UNL d   1      62.053  47.092  49.797  0.00  0.00    -0.220 NA
ATOM      2  C   UNL d   1      61.394  47.108  50.273  0.00  0.00     0.182 A 
ATOM      3  O   UNL d   1      61.033  46.418  50.310  0.00  0.00    -0.288 OA
ATOM      4  C   UNL d   1      62.086  46.314  49.526  0.00  0.00     0.106 A 
ATOM      5  C   UNL d   1      61.451  45.895  49.845  0.00  0.00     0.119 A 
ATOM      6  C   UNL d   1      62.629  45.948  49.022  0.00  0.00     0.021 A 
ATOM      7  C   UNL d   1      61.359  45.110  49.661  0.00  0.00     0.026 A 
ATOM      8  C   UNL d   1      61.886  44.713  49.159  0.00  0.00     0.002 A 
ATOM      9  C   UNL d   1      62.543  45.147  48.828  0.00  0.00     0.002 A 
ENDROOT
BRANCH   2  10
ATOM     10  C   UNL d   1      61.115  47.765  50.681  0.00  0.00     0.041 A 
ATOM     11  C   UNL d   1      60.907  47.687  51.466  0.00  0.00     0.005 A 
ATOM     12  C   UNL d   1      60.622  48.361  51.879  0.00  0.00     0.021 A 
ATOM     13  C   UNL d   1      60.554  49.082  51.504  0.00  0.00     0.103 A 
ATOM     14  C   UNL d   1      60.771  49.153  50.697  0.00  0.00     0.021 A 
ATOM     15  N   UNL d   1      60.276  49.707  51.938  0.00  0.00    -0.148 N 
ATOM     16  C   UNL d   1      61.050  48.484  50.299  0.00  0.00     0.005 A 
ENDBRANCH   2  10
TORSDOF 1
ENDMDL
