MODEL 1
REMARK VINA RESULT:       6.5      0.000      0.000
REMARK  6 active torsions:
REMARK  status: ('A' for Active; 'I' for Inactive)
REMARK    1  A    between atoms: C_10  and  N_4 
REMARK    2  A    between atoms: C_12  and  C_9 
REMARK    3  A    between atoms: C_15  and  C_10 
REMARK    4  A    between atoms: C_17  and  N_11 
REMARK    5  A    between atoms: N_13  and  C_12 
REMARK    6  A    between atoms: O_30  and  C_27 
ROOT
ATOM      1  C   UNL d   1      30.016  17.060 -23.896  0.00  0.00     0.157 A 
ATOM      2  C   UNL d   1      29.769  17.775 -23.571  0.00  0.00     0.174 A 
ATOM      3  N   UNL d   1      28.970  17.884 -23.382  0.00  0.00    -0.240 N 
ATOM      4  N   UNL d   1      30.828  17.103 -24.029  0.00  0.00    -0.283 N 
ATOM      5  N   UNL d   1      28.681  16.567 -23.844  0.00  0.00    -0.223 N 
ATOM      6  C   UNL d   1      28.429  17.284 -23.517  0.00  0.00     0.343 A 
ATOM      7  C   UNL d   1      29.477  16.444 -24.038  0.00  0.00     0.287 A 
ATOM      8  N   UNL d   1      30.429  18.263 -23.502  0.00  0.00    -0.207 NA
ATOM      9  C   UNL d   1      31.084  17.847 -23.785  0.00  0.00     0.167 A 
ATOM     10  O   UNL d   1      27.630  17.394 -23.327  0.00  0.00    -0.245 OA
ATOM     11  O   UNL d   1      29.726  15.735 -24.362  0.00  0.00    -0.265 OA
ATOM     12  C   UNL d   1      28.718  18.601 -23.055  0.00  0.00     0.105 C 
ATOM     13  C   UNL d   1      28.134  15.961 -23.981  0.00  0.00     0.107 C 
ENDROOT
BRANCH   9  14
ATOM     14  C   UNL d   1      31.860  18.130 -23.817  0.00  0.00     0.118 C 
BRANCH  14  15
ATOM     15  N   UNL d   1      32.053  18.839 -23.458  0.00  0.00    -0.297 N 
ATOM     16  C   UNL d   1      32.671  19.303 -23.748  0.00  0.00     0.100 A 
ATOM     17  C   UNL d   1      32.872  20.021 -23.391  0.00  0.00     0.100 A 
ATOM     18  N   UNL d   1      32.445  20.282 -22.727  0.00  0.00    -0.301 N 
ATOM     19  C   UNL d   1      31.822  19.820 -22.431  0.00  0.00     0.100 A 
ATOM     20  C   UNL d   1      31.629  19.102 -22.798  0.00  0.00     0.100 A 
BRANCH  18  21
ATOM     21  C   UNL d   1      32.642  20.997 -22.368  0.00  0.00     0.064 A 
ATOM     22  C   UNL d   1      32.769  21.660 -22.830  0.00  0.00     0.020 A 
ATOM     23  C   UNL d   1      32.968  22.384 -22.471  0.00  0.00     0.026 A 
ATOM     24  C   UNL d   1      33.037  22.429 -21.648  0.00  0.00     0.094 A 
ATOM     25  C   UNL d   1      32.906  21.750 -21.189  0.00  0.00     0.026 A 
ATOM     26  C   UNL d   1      32.709  21.035 -21.549  0.00  0.00     0.020 A 
BRANCH  24  27
ATOM     27  O   UNL d   1      33.233  23.136 -21.280  0.00  0.00    -0.328 OA
ATOM     28  C   UNL d   1      32.629  23.623 -20.997  0.00  0.00     0.181 C 
ENDBRANCH  24  27
ENDBRANCH  18  21
ENDBRANCH  14  15
ENDBRANCH   9  14
BRANCH   4  29
ATOM     29  C   UNL d   1      31.303  16.506 -24.350  0.00  0.00     0.082 C 
BRANCH  29  30
ATOM     30  C   UNL d   1      31.878  16.158 -23.889  0.00  0.00     0.018 A 
ATOM     31  C   UNL d   1      32.559  15.884 -24.247  0.00  0.00     0.001 A 
ATOM     32  C   UNL d   1      32.674  15.952 -25.058  0.00  0.00     0.000 C 
ATOM     33  C   UNL d   1      33.151  15.528 -23.779  0.00  0.00     0.000 A 
ATOM     34  C   UNL d   1      33.048  15.455 -22.964  0.00  0.00     0.000 A 
ATOM     35  C   UNL d   1      32.362  15.732 -22.610  0.00  0.00     0.000 A 
ATOM     36  C   UNL d   1      31.776  16.084 -23.070  0.00  0.00     0.002 A 
ENDBRANCH  29  30
ENDBRANCH   4  29
TORSDOF 6
ENDMDL
