MODEL 1
REMARK VINA RESULT:      35.3      0.000      0.000
REMARK  4 active torsions:
REMARK  status: ('A' for Active; 'I' for Inactive)
REMARK    1  A    between atoms: C_30  and  N_11 
REMARK    2  A    between atoms: C_29  and  N_12 
REMARK    3  A    between atoms: C_16  and  C_13 
REMARK    4  A    between atoms: C_15  and  C_14 
ROOT
ATOM      1  N   UNL d   1     -41.798-121.077 -53.153  0.00  0.00    -0.240 N 
ATOM      2  N   UNL d   1     -41.867-121.908 -52.934  0.00  0.00    -0.240 N 
ATOM      3  C   UNL d   1     -41.609-120.640 -52.455  0.00  0.00     0.144 A 
ATOM      4  C   UNL d   1     -42.055-122.346 -53.632  0.00  0.00     0.144 A 
ATOM      5  C   UNL d   1     -42.106-121.793 -54.296  0.00  0.00     0.097 A 
ATOM      6  C   UNL d   1     -41.560-121.194 -51.802  0.00  0.00     0.097 A 
ATOM      7  C   UNL d   1     -41.449-119.864 -52.148  0.00  0.00     0.285 A 
ATOM      8  C   UNL d   1     -42.213-123.132 -53.922  0.00  0.00     0.285 A 
ATOM      9  C   UNL d   1     -41.371-120.754 -51.100  0.00  0.00     0.270 A 
ATOM     10  C   UNL d   1     -42.297-122.247 -54.995  0.00  0.00     0.270 A 
ATOM     11  N   UNL d   1     -42.364-123.073 -54.767  0.00  0.00    -0.239 N 
ATOM     12  N   UNL d   1     -41.303-119.929 -51.321  0.00  0.00    -0.239 N 
ATOM     13  C   UNL d   1     -41.948-121.019 -53.993  0.00  0.00     0.094 A 
ATOM     14  C   UNL d   1     -41.718-121.965 -52.102  0.00  0.00     0.094 A 
ATOM     15  O   UNL d   1     -42.222-123.817 -53.486  0.00  0.00    -0.265 OA
ATOM     16  O   UNL d   1     -42.399-121.952 -55.745  0.00  0.00    -0.266 OA
ATOM     17  O   UNL d   1     -41.270-121.055 -50.351  0.00  0.00    -0.266 OA
ATOM     18  O   UNL d   1     -41.440-119.173 -52.583  0.00  0.00    -0.265 OA
ENDROOT
BRANCH  13  19
ATOM     19  C   UNL d   1     -41.940-120.333 -54.436  0.00  0.00     0.047 A 
ATOM     20  S   UNL d   1     -41.416-120.167 -55.034  0.00  0.00    -0.085 SA
ATOM     21  C   UNL d   1     -41.606-119.433 -55.321  0.00  0.00     0.035 A 
ATOM     22  C   UNL d   1     -42.245-119.150 -54.900  0.00  0.00     0.007 A 
ATOM     23  C   UNL d   1     -42.443-119.717 -54.353  0.00  0.00     0.009 A 
ENDBRANCH  13  19
BRANCH  11  24
ATOM     24  C   UNL d   1     -42.538-123.690 -55.264  0.00  0.00     0.086 C 
ATOM     25  C   UNL d   1     -42.969-123.553 -55.956  0.00  0.00     0.021 C 
ENDBRANCH  11  24
BRANCH  14  26
ATOM     26  C   UNL d   1     -41.728-122.647 -51.672  0.00  0.00     0.047 A 
ATOM     27  S   UNL d   1     -42.357-122.924 -51.232  0.00  0.00    -0.085 SA
ATOM     28  C   UNL d   1     -42.131-123.617 -50.896  0.00  0.00     0.035 A 
ATOM     29  C   UNL d   1     -41.372-123.770 -51.122  0.00  0.00     0.007 A 
ATOM     30  C   UNL d   1     -41.124-123.173 -51.600  0.00  0.00     0.009 A 
ENDBRANCH  14  26
BRANCH  12  31
ATOM     31  C   UNL d   1     -41.127-119.315 -50.812  0.00  0.00     0.086 C 
ATOM     32  C   UNL d   1     -41.123-118.538 -51.089  0.00  0.00     0.021 C 
ENDBRANCH  12  31
TORSDOF 4
ENDMDL
MODEL 2
REMARK VINA RESULT:      36.4      0.367      4.657
REMARK  4 active torsions:
REMARK  status: ('A' for Active; 'I' for Inactive)
REMARK    1  A    between atoms: C_30  and  N_11 
REMARK    2  A    between atoms: C_29  and  N_12 
REMARK    3  A    between atoms: C_16  and  C_13 
REMARK    4  A    between atoms: C_15  and  C_14 
ROOT
ATOM      1  N   UNL d   1     -41.864-121.881 -52.863  0.00  0.00    -0.240 N 
ATOM      2  N   UNL d   1     -41.739-121.077 -53.149  0.00  0.00    -0.240 N 
ATOM      3  C   UNL d   1     -42.031-122.370 -53.531  0.00  0.00     0.144 A 
ATOM      4  C   UNL d   1     -41.572-120.588 -52.480  0.00  0.00     0.144 A 
ATOM      5  C   UNL d   1     -41.591-121.080 -51.769  0.00  0.00     0.097 A 
ATOM      6  C   UNL d   1     -42.010-121.876 -54.232  0.00  0.00     0.097 A 
ATOM      7  C   UNL d   1     -42.211-123.163 -53.779  0.00  0.00     0.285 A 
ATOM      8  C   UNL d   1     -41.392-119.786 -52.250  0.00  0.00     0.285 A 
ATOM      9  C   UNL d   1     -42.178-122.368 -54.904  0.00  0.00     0.270 A 
ATOM     10  C   UNL d   1     -41.421-120.574 -51.101  0.00  0.00     0.270 A 
ATOM     11  N   UNL d   1     -41.298-119.776 -51.395  0.00  0.00    -0.239 N 
ATOM     12  N   UNL d   1     -42.302-123.165 -54.617  0.00  0.00    -0.239 N 
ATOM     13  C   UNL d   1     -41.770-121.870 -52.013  0.00  0.00     0.094 A 
ATOM     14  C   UNL d   1     -41.832-121.089 -53.991  0.00  0.00     0.094 A 
ATOM     15  O   UNL d   1     -41.320-119.144 -52.743  0.00  0.00    -0.265 OA
ATOM     16  O   UNL d   1     -41.382-120.804 -50.323  0.00  0.00    -0.266 OA
ATOM     17  O   UNL d   1     -42.215-122.131 -55.681  0.00  0.00    -0.266 OA
ATOM     18  O   UNL d   1     -42.284-123.810 -53.288  0.00  0.00    -0.265 OA
ENDROOT
BRANCH  13  19
ATOM     19  C   UNL d   1     -41.841-122.512 -51.514  0.00  0.00     0.047 A 
ATOM     20  S   UNL d   1     -41.241-123.024 -51.321  0.00  0.00    -0.085 SA
ATOM     21  C   UNL d   1     -41.551-123.576 -50.814  0.00  0.00     0.035 A 
ATOM     22  C   UNL d   1     -42.340-123.402 -50.697  0.00  0.00     0.007 A 
ATOM     23  C   UNL d   1     -42.508-122.740 -51.137  0.00  0.00     0.009 A 
ENDBRANCH  13  19
BRANCH  11  24
ATOM     24  C   UNL d   1     -41.123-119.125 -50.943  0.00  0.00     0.086 C 
ATOM     25  C   UNL d   1     -41.129-118.373 -51.284  0.00  0.00     0.021 C 
ENDBRANCH  11  24
BRANCH  14  26
ATOM     26  C   UNL d   1     -41.760-120.450 -54.476  0.00  0.00     0.047 A 
ATOM     27  S   UNL d   1     -41.575-120.474 -55.271  0.00  0.00    -0.085 SA
ATOM     28  C   UNL d   1     -41.561-119.717 -55.540  0.00  0.00     0.035 A 
ATOM     29  C   UNL d   1     -41.734-119.228 -54.921  0.00  0.00     0.007 A 
ATOM     30  C   UNL d   1     -41.856-119.679 -54.267  0.00  0.00     0.009 A 
ENDBRANCH  14  26
BRANCH  12  31
ATOM     31  C   UNL d   1     -42.477-123.814 -55.082  0.00  0.00     0.086 C 
ATOM     32  C   UNL d   1     -43.007-123.739 -55.710  0.00  0.00     0.021 C 
ENDBRANCH  12  31
TORSDOF 4
ENDMDL
MODEL 3
REMARK VINA RESULT:      37.2      1.246      2.871
REMARK  4 active torsions:
REMARK  status: ('A' for Active; 'I' for Inactive)
REMARK    1  A    between atoms: C_30  and  N_11 
REMARK    2  A    between atoms: C_29  and  N_12 
REMARK    3  A    between atoms: C_16  and  C_13 
REMARK    4  A    between atoms: C_15  and  C_14 
ROOT
ATOM      1  N   UNL d   1     -41.474-121.058 -52.413  0.00  0.00    -0.240 N 
ATOM      2  N   UNL d   1     -41.603-121.480 -53.154  0.00  0.00    -0.240 N 
ATOM      3  C   UNL d   1     -41.435-121.630 -51.793  0.00  0.00     0.144 A 
ATOM      4  C   UNL d   1     -41.641-120.908 -53.775  0.00  0.00     0.144 A 
ATOM      5  C   UNL d   1     -41.537-120.122 -53.429  0.00  0.00     0.097 A 
ATOM      6  C   UNL d   1     -41.539-122.406 -52.142  0.00  0.00     0.097 A 
ATOM      7  C   UNL d   1     -41.334-121.735 -50.955  0.00  0.00     0.285 A 
ATOM      8  C   UNL d   1     -41.745-120.822 -54.618  0.00  0.00     0.285 A 
ATOM      9  C   UNL d   1     -41.501-122.981 -51.518  0.00  0.00     0.270 A 
ATOM     10  C   UNL d   1     -41.578-119.553 -54.067  0.00  0.00     0.270 A 
ATOM     11  N   UNL d   1     -41.706-119.982 -54.800  0.00  0.00    -0.239 N 
ATOM     12  N   UNL d   1     -41.373-122.559 -50.784  0.00  0.00    -0.239 N 
ATOM     13  C   UNL d   1     -41.435-120.223 -52.596  0.00  0.00     0.094 A 
ATOM     14  C   UNL d   1     -41.641-122.307 -52.973  0.00  0.00     0.094 A 
ATOM     15  O   UNL d   1     -41.860-121.420 -55.155  0.00  0.00    -0.265 OA
ATOM     16  O   UNL d   1     -41.508-118.747 -53.995  0.00  0.00    -0.266 OA
ATOM     17  O   UNL d   1     -41.571-123.788 -51.596  0.00  0.00    -0.266 OA
ATOM     18  O   UNL d   1     -41.218-121.137 -50.412  0.00  0.00    -0.265 OA
ENDROOT
BRANCH  13  19
ATOM     19  C   UNL d   1     -41.320-119.620 -52.059  0.00  0.00     0.047 A 
ATOM     20  S   UNL d   1     -41.287-118.829 -52.242  0.00  0.00    -0.085 SA
ATOM     21  C   UNL d   1     -41.165-118.427 -51.549  0.00  0.00     0.035 A 
ATOM     22  C   UNL d   1     -41.123-118.970 -50.941  0.00  0.00     0.007 A 
ATOM     23  C   UNL d   1     -41.221-119.707 -51.271  0.00  0.00     0.009 A 
ENDBRANCH  13  19
BRANCH  11  24
ATOM     24  C   UNL d   1     -41.778-119.651 -55.538  0.00  0.00     0.086 C 
ATOM     25  C   UNL d   1     -41.532-120.073 -56.204  0.00  0.00     0.021 C 
ENDBRANCH  11  24
BRANCH  14  26
ATOM     26  C   UNL d   1     -41.755-122.897 -53.510  0.00  0.00     0.047 A 
ATOM     27  S   UNL d   1     -41.171-123.266 -53.943  0.00  0.00    -0.085 SA
ATOM     28  C   UNL d   1     -41.525-123.817 -54.408  0.00  0.00     0.035 A 
ATOM     29  C   UNL d   1     -42.319-123.792 -54.265  0.00  0.00     0.007 A 
ATOM     30  C   UNL d   1     -42.461-123.226 -53.712  0.00  0.00     0.009 A 
ENDBRANCH  14  26
BRANCH  12  31
ATOM     31  C   UNL d   1     -41.302-122.903 -50.046  0.00  0.00     0.086 C 
ATOM     32  C   UNL d   1     -41.887-122.779 -49.477  0.00  0.00     0.021 C 
ENDBRANCH  12  31
TORSDOF 4
ENDMDL
