MODEL 1
REMARK VINA RESULT:      -5.1      0.000      0.000
REMARK  2 active torsions:
REMARK  status: ('A' for Active; 'I' for Inactive)
REMARK    1  A    between atoms: C_7  and  C_1 
REMARK    2  A    between atoms: C_11  and  C_7 
ROOT
ATOM      1  C   UNL d   1     -41.499-122.458 -52.944  0.00  0.00     0.116 A 
ATOM      2  N   UNL d   1     -41.873-121.433 -53.861  0.00  0.00    -0.152 NA
ATOM      3  N   UNL d   1     -42.236-122.786 -54.122  0.00  0.00    -0.152 NA
ATOM      4  C   UNL d   1     -41.866-123.024 -53.423  0.00  0.00     0.288 A 
ATOM      5  C   UNL d   1     -41.503-121.667 -53.162  0.00  0.00     0.288 A 
ATOM      6  C   UNL d   1     -42.240-121.995 -54.340  0.00  0.00     0.374 A 
ATOM      7  O   UNL d   1     -41.130-121.083 -52.678  0.00  0.00    -0.265 OA
ATOM      8  O   UNL d   1     -41.862-123.817 -53.204  0.00  0.00    -0.265 OA
ATOM      9  O   UNL d   1     -42.608-121.741 -55.040  0.00  0.00    -0.242 OA
ENDROOT
BRANCH   1  10
ATOM     10  C   UNL d   1     -41.123-122.693 -52.235  0.00  0.00     0.010 C 
BRANCH  10  11
ATOM     11  C   UNL d   1     -41.550-122.707 -51.527  0.00  0.00     0.001 A 
ATOM     12  C   UNL d   1     -41.843-122.011 -51.207  0.00  0.00     0.003 A 
ATOM     13  C   UNL d   1     -42.269-122.029 -50.501  0.00  0.00     0.042 A 
ATOM     14  C   UNL d   1     -42.397-122.743 -50.124  0.00  0.00     0.196 A 
ATOM     15  C   UNL d   1     -42.105-123.439 -50.444  0.00  0.00     0.042 A 
ATOM     16  O   UNL d   1     -42.831-122.771 -49.403  0.00  0.00    -0.287 OA
ATOM     17  C   UNL d   1     -41.680-123.429 -51.145  0.00  0.00     0.003 A 
ENDBRANCH  10  11
ENDBRANCH   1  10
TORSDOF 2
ENDMDL
MODEL 2
REMARK VINA RESULT:      -5.0      1.782      3.592
REMARK  2 active torsions:
REMARK  status: ('A' for Active; 'I' for Inactive)
REMARK    1  A    between atoms: C_7  and  C_1 
REMARK    2  A    between atoms: C_11  and  C_7 
ROOT
ATOM      1  C   UNL d   1     -41.852-122.667 -50.651  0.00  0.00     0.116 A 
ATOM      2  N   UNL d   1     -42.451-123.510 -49.671  0.00  0.00    -0.152 NA
ATOM      3  N   UNL d   1     -43.168-122.387 -50.174  0.00  0.00    -0.152 NA
ATOM      4  C   UNL d   1     -42.531-122.194 -50.663  0.00  0.00     0.288 A 
ATOM      5  C   UNL d   1     -41.813-123.321 -50.158  0.00  0.00     0.288 A 
ATOM      6  C   UNL d   1     -43.128-123.041 -49.681  0.00  0.00     0.374 A 
ATOM      7  O   UNL d   1     -41.123-123.808 -50.140  0.00  0.00    -0.265 OA
ATOM      8  O   UNL d   1     -42.570-121.538 -51.158  0.00  0.00    -0.265 OA
ATOM      9  O   UNL d   1     -43.762-123.247 -49.183  0.00  0.00    -0.242 OA
ENDROOT
BRANCH   1  10
ATOM     10  C   UNL d   1     -41.203-122.477 -51.144  0.00  0.00     0.010 C 
BRANCH  10  11
ATOM     11  C   UNL d   1     -41.191-122.739 -51.928  0.00  0.00     0.001 A 
ATOM     12  C   UNL d   1     -41.194-123.542 -52.095  0.00  0.00     0.003 A 
ATOM     13  C   UNL d   1     -41.182-123.801 -52.878  0.00  0.00     0.042 A 
ATOM     14  C   UNL d   1     -41.168-123.253 -53.485  0.00  0.00     0.196 A 
ATOM     15  C   UNL d   1     -41.166-122.450 -53.318  0.00  0.00     0.042 A 
ATOM     16  O   UNL d   1     -41.156-123.508 -54.287  0.00  0.00    -0.287 OA
ATOM     17  C   UNL d   1     -41.177-122.186 -52.542  0.00  0.00     0.003 A 
ENDBRANCH  10  11
ENDBRANCH   1  10
TORSDOF 2
ENDMDL
MODEL 3
REMARK VINA RESULT:      -4.9      0.566      1.308
REMARK  2 active torsions:
REMARK  status: ('A' for Active; 'I' for Inactive)
REMARK    1  A    between atoms: C_7  and  C_1 
REMARK    2  A    between atoms: C_11  and  C_7 
ROOT
ATOM      1  C   UNL d   1     -41.604-122.377 -53.447  0.00  0.00     0.116 A 
ATOM      2  N   UNL d   1     -42.242-123.014 -54.550  0.00  0.00    -0.152 NA
ATOM      3  N   UNL d   1     -42.387-121.610 -54.360  0.00  0.00    -0.152 NA
ATOM      4  C   UNL d   1     -41.913-121.648 -53.685  0.00  0.00     0.288 A 
ATOM      5  C   UNL d   1     -41.768-123.056 -53.877  0.00  0.00     0.288 A 
ATOM      6  C   UNL d   1     -42.551-122.289 -54.790  0.00  0.00     0.374 A 
ATOM      7  O   UNL d   1     -41.456-123.805 -53.639  0.00  0.00    -0.265 OA
ATOM      8  O   UNL d   1     -41.748-120.966 -53.254  0.00  0.00    -0.265 OA
ATOM      9  O   UNL d   1     -43.027-122.265 -55.472  0.00  0.00    -0.242 OA
ENDROOT
BRANCH   1  10
ATOM     10  C   UNL d   1     -41.123-122.422 -52.764  0.00  0.00     0.010 C 
BRANCH  10  11
ATOM     11  C   UNL d   1     -41.470-122.538 -52.022  0.00  0.00     0.001 A 
ATOM     12  C   UNL d   1     -41.760-121.899 -51.597  0.00  0.00     0.003 A 
ATOM     13  C   UNL d   1     -42.106-122.018 -50.858  0.00  0.00     0.042 A 
ATOM     14  C   UNL d   1     -42.158-122.775 -50.553  0.00  0.00     0.196 A 
ATOM     15  C   UNL d   1     -41.868-123.414 -50.978  0.00  0.00     0.042 A 
ATOM     16  O   UNL d   1     -42.509-122.906 -49.799  0.00  0.00    -0.287 OA
ATOM     17  C   UNL d   1     -41.522-123.303 -51.713  0.00  0.00     0.003 A 
ENDBRANCH  10  11
ENDBRANCH   1  10
TORSDOF 2
ENDMDL
