MODEL 1
REMARK VINA RESULT:      -4.9      0.000      0.000
REMARK  1 active torsions:
REMARK  status: ('A' for Active; 'I' for Inactive)
REMARK    1  A    between atoms: C_5  and  C_2 
ROOT
ATOM      1  N   UNL d   1     -41.897-121.930 -54.024  0.00  0.00    -0.217 NA
ATOM      2  C   UNL d   1     -41.503-122.429 -53.521  0.00  0.00     0.113 A 
ATOM      3  C   UNL d   1     -41.904-122.278 -54.776  0.00  0.00     0.215 A 
ATOM      4  S   UNL d   1     -41.498-123.009 -54.714  0.00  0.00    -0.045 SA
ATOM      5  C   UNL d   1     -41.252-123.102 -53.944  0.00  0.00     0.060 A 
ATOM      6  N   UNL d   1     -42.253-121.954 -55.467  0.00  0.00    -0.120 N 
ENDROOT
BRANCH   2   7
ATOM      7  C   UNL d   1     -41.352-122.317 -52.696  0.00  0.00     0.118 A 
ATOM      8  O   UNL d   1     -41.267-121.591 -52.284  0.00  0.00    -0.304 OA
ATOM      9  C   UNL d   1     -41.124-121.780 -51.480  0.00  0.00     0.123 A 
ATOM     10  C   UNL d   1     -41.123-122.601 -51.411  0.00  0.00     0.029 A 
ATOM     11  C   UNL d   1     -41.261-122.927 -52.148  0.00  0.00     0.028 A 
ENDBRANCH   2   7
TORSDOF 1
ENDMDL
MODEL 2
REMARK VINA RESULT:      -4.6      1.775      2.858
REMARK  1 active torsions:
REMARK  status: ('A' for Active; 'I' for Inactive)
REMARK    1  A    between atoms: C_5  and  C_2 
ROOT
ATOM      1  N   UNL d   1     -41.675-123.084 -52.150  0.00  0.00    -0.217 NA
ATOM      2  C   UNL d   1     -41.462-122.479 -52.646  0.00  0.00     0.113 A 
ATOM      3  C   UNL d   1     -41.475-122.864 -51.377  0.00  0.00     0.215 A 
ATOM      4  S   UNL d   1     -41.131-122.100 -51.419  0.00  0.00    -0.045 SA
ATOM      5  C   UNL d   1     -41.123-121.864 -52.197  0.00  0.00     0.060 A 
ATOM      6  N   UNL d   1     -41.597-123.324 -50.686  0.00  0.00    -0.120 N 
ENDROOT
BRANCH   2   7
ATOM      7  C   UNL d   1     -41.554-122.443 -53.486  0.00  0.00     0.118 A 
ATOM      8  O   UNL d   1     -42.071-121.949 -53.925  0.00  0.00    -0.304 OA
ATOM      9  C   UNL d   1     -41.951-122.124 -54.736  0.00  0.00     0.123 A 
ATOM     10  C   UNL d   1     -41.374-122.712 -54.783  0.00  0.00     0.029 A 
ATOM     11  C   UNL d   1     -41.133-122.905 -54.025  0.00  0.00     0.028 A 
ENDBRANCH   2   7
TORSDOF 1
ENDMDL
MODEL 3
REMARK VINA RESULT:      -4.0      2.170      2.833
REMARK  1 active torsions:
REMARK  status: ('A' for Active; 'I' for Inactive)
REMARK    1  A    between atoms: C_5  and  C_2 
ROOT
ATOM      1  N   UNL d   1     -41.771-123.058 -51.639  0.00  0.00    -0.217 NA
ATOM      2  C   UNL d   1     -41.808-122.582 -50.984  0.00  0.00     0.113 A 
ATOM      3  C   UNL d   1     -41.345-122.654 -52.224  0.00  0.00     0.215 A 
ATOM      4  S   UNL d   1     -41.123-121.913 -51.901  0.00  0.00    -0.045 SA
ATOM      5  C   UNL d   1     -41.407-121.868 -51.140  0.00  0.00     0.060 A 
ATOM      6  N   UNL d   1     -41.172-122.940 -52.993  0.00  0.00    -0.120 N 
ENDROOT
BRANCH   2   7
ATOM      7  C   UNL d   1     -42.184-122.749 -50.244  0.00  0.00     0.118 A 
ATOM      8  O   UNL d   1     -43.001-122.698 -50.061  0.00  0.00    -0.304 OA
ATOM      9  C   UNL d   1     -43.088-122.920 -49.258  0.00  0.00     0.123 A 
ATOM     10  C   UNL d   1     -42.339-123.102 -48.965  0.00  0.00     0.029 A 
ATOM     11  C   UNL d   1     -41.791-122.998 -49.563  0.00  0.00     0.028 A 
ENDBRANCH   2   7
TORSDOF 1
ENDMDL
MODEL 4
REMARK VINA RESULT:      -3.8      2.700      3.621
REMARK  1 active torsions:
REMARK  status: ('A' for Active; 'I' for Inactive)
REMARK    1  A    between atoms: C_5  and  C_2 
ROOT
ATOM      1  N   UNL d   1     -42.430-122.682 -50.433  0.00  0.00    -0.217 NA
ATOM      2  C   UNL d   1     -41.716-122.880 -50.762  0.00  0.00     0.113 A 
ATOM      3  C   UNL d   1     -42.384-122.823 -49.617  0.00  0.00     0.215 A 
ATOM      4  S   UNL d   1     -41.613-123.115 -49.461  0.00  0.00    -0.045 SA
ATOM      5  C   UNL d   1     -41.203-123.150 -50.163  0.00  0.00     0.060 A 
ATOM      6  N   UNL d   1     -42.996-122.696 -49.059  0.00  0.00    -0.120 N 
ENDROOT
BRANCH   2   7
ATOM      7  C   UNL d   1     -41.493-122.833 -51.577  0.00  0.00     0.118 A 
ATOM      8  O   UNL d   1     -41.407-123.465 -52.122  0.00  0.00    -0.304 OA
ATOM      9  C   UNL d   1     -41.178-123.129 -52.855  0.00  0.00     0.123 A 
ATOM     10  C   UNL d   1     -41.126-122.312 -52.751  0.00  0.00     0.029 A 
ATOM     11  C   UNL d   1     -41.317-122.133 -51.977  0.00  0.00     0.028 A 
ENDBRANCH   2   7
TORSDOF 1
ENDMDL
MODEL 5
REMARK VINA RESULT:      -2.8      9.657      9.977
REMARK  1 active torsions:
REMARK  status: ('A' for Active; 'I' for Inactive)
REMARK    1  A    between atoms: C_5  and  C_2 
ROOT
ATOM      1  N   UNL d   1     -42.573-114.399 -47.730  0.00  0.00    -0.217 NA
ATOM      2  C   UNL d   1     -43.016-114.890 -47.260  0.00  0.00     0.113 A 
ATOM      3  C   UNL d   1     -41.780-114.474 -47.502  0.00  0.00     0.215 A 
ATOM      4  S   UNL d   1     -41.755-115.030 -46.874  0.00  0.00    -0.045 SA
ATOM      5  C   UNL d   1     -42.513-115.285 -46.726  0.00  0.00     0.060 A 
ATOM      6  N   UNL d   1     -41.128-114.068 -47.840  0.00  0.00    -0.120 N 
ENDROOT
BRANCH   2   7
ATOM      7  C   UNL d   1     -43.854-115.007 -47.281  0.00  0.00     0.118 A 
ATOM      8  O   UNL d   1     -44.412-114.820 -46.684  0.00  0.00    -0.304 OA
ATOM      9  C   UNL d   1     -45.167-115.043 -46.974  0.00  0.00     0.123 A 
ATOM     10  C   UNL d   1     -45.063-115.357 -47.729  0.00  0.00     0.029 A 
ATOM     11  C   UNL d   1     -44.266-115.335 -47.916  0.00  0.00     0.028 A 
ENDBRANCH   2   7
TORSDOF 1
ENDMDL
