MODEL 1
REMARK VINA RESULT:      10.6      0.000      0.000
REMARK  3 active torsions:
REMARK  status: ('A' for Active; 'I' for Inactive)
REMARK    1  A    between atoms: S_11  and  C_2 
REMARK    2  A    between atoms: C_7  and  C_12 
REMARK    3  A    between atoms: C_12  and  S_11 
ROOT
ATOM      1  S   UNL d   1      58.846  49.707  50.226  0.00  0.00    -0.058 SA
ENDROOT
BRANCH   1   2
ATOM      2  C   UNL d   1      59.601  49.693  50.573  0.00  0.00     0.164 A 
ATOM      3  S   UNL d   1      59.767  49.700  51.383  0.00  0.00    -0.039 SA
ATOM      4  C   UNL d   1      60.587  49.681  51.476  0.00  0.00     0.134 A 
ATOM      5  N   UNL d   1      60.932  49.662  50.722  0.00  0.00    -0.140 NA
ATOM      6  C   UNL d   1      61.003  49.680  52.197  0.00  0.00     0.030 C 
ATOM      7  N   UNL d   1      60.321  49.670  50.156  0.00  0.00    -0.134 NA
ENDBRANCH   1   2
BRANCH   1   8
ATOM      8  C   UNL d   1      58.173  49.703  50.702  0.00  0.00     0.057 C 
BRANCH   8   9
ATOM      9  C   UNL d   1      57.424  49.592  50.368  0.00  0.00     0.095 A 
ATOM     10  N   UNL d   1      57.262  49.372  49.606  0.00  0.00    -0.238 NA
ATOM     11  C   UNL d   1      56.455  49.330  49.515  0.00  0.00     0.111 A 
ATOM     12  C   UNL d   1      56.034  49.128  48.835  0.00  0.00     0.028 C 
ATOM     13  S   UNL d   1      56.115  49.526  50.227  0.00  0.00    -0.066 SA
ATOM     14  C   UNL d   1      56.709  49.687  50.751  0.00  0.00     0.057 A 
ENDBRANCH   8   9
ENDBRANCH   1   8
TORSDOF 3
ENDMDL
