MODEL 1
REMARK VINA RESULT:      -6.1      0.000      0.000
REMARK  3 active torsions:
REMARK  status: ('A' for Active; 'I' for Inactive)
REMARK    1  A    between atoms: C_2  and  C_4 
REMARK    2  A    between atoms: N_3  and  C_2 
REMARK    3  A    between atoms: C_5  and  N_3 
ROOT
ATOM      1  N   UNL d   1     -42.153-122.448 -51.043  0.00  0.00    -0.243 NA
ATOM      2  C   UNL d   1     -41.570-122.772 -51.547  0.00  0.00     0.109 A 
ATOM      3  C   UNL d   1     -42.287-122.783 -50.301  0.00  0.00     0.081 A 
ATOM      4  C   UNL d   1     -41.131-123.426 -51.301  0.00  0.00     0.021 A 
ATOM      5  C   UNL d   1     -41.841-123.443 -50.058  0.00  0.00     0.018 A 
ATOM      6  C   UNL d   1     -41.265-123.763 -50.557  0.00  0.00     0.003 A 
ATOM      7  C   UNL d   1     -42.859-122.469 -49.800  0.00  0.00     0.019 A 
ATOM      8  C   UNL d   1     -41.977-123.774 -49.319  0.00  0.00     0.002 A 
ATOM      9  C   UNL d   1     -42.989-122.804 -49.066  0.00  0.00     0.002 A 
ATOM     10  C   UNL d   1     -42.548-123.457 -48.825  0.00  0.00     0.000 A 
ENDROOT
BRANCH   2  11
ATOM     11  C   UNL d   1     -41.437-122.435 -52.292  0.00  0.00     0.153 C 
ATOM     12  S   UNL d   1     -41.352-121.616 -52.366  0.00  0.00    -0.056 SA
BRANCH  11  13
ATOM     13  N   UNL d   1     -41.389-122.918 -52.957  0.00  0.00    -0.233 NA
BRANCH  13  14
ATOM     14  C   UNL d   1     -41.611-122.625 -53.695  0.00  0.00     0.082 A 
ATOM     15  C   UNL d   1     -41.476-123.078 -54.379  0.00  0.00     0.018 A 
ATOM     16  C   UNL d   1     -41.123-123.816 -54.320  0.00  0.00     0.002 C 
ATOM     17  C   UNL d   1     -41.701-122.777 -55.113  0.00  0.00     0.002 A 
ATOM     18  C   UNL d   1     -42.056-122.035 -55.174  0.00  0.00     0.000 A 
ATOM     19  C   UNL d   1     -42.189-121.587 -54.492  0.00  0.00     0.002 A 
ATOM     20  C   UNL d   1     -41.965-121.883 -53.751  0.00  0.00     0.019 A 
ENDBRANCH  13  14
ENDBRANCH  11  13
ENDBRANCH   2  11
TORSDOF 3
ENDMDL
MODEL 2
REMARK VINA RESULT:      -5.0      1.067      4.548
REMARK  3 active torsions:
REMARK  status: ('A' for Active; 'I' for Inactive)
REMARK    1  A    between atoms: C_2  and  C_4 
REMARK    2  A    between atoms: N_3  and  C_2 
REMARK    3  A    between atoms: C_5  and  N_3 
ROOT
ATOM      1  N   UNL d   1     -41.536-123.478 -51.989  0.00  0.00    -0.243 NA
ATOM      2  C   UNL d   1     -41.483-122.910 -51.377  0.00  0.00     0.109 A 
ATOM      3  C   UNL d   1     -41.481-123.239 -52.777  0.00  0.00     0.081 A 
ATOM      4  C   UNL d   1     -41.378-122.114 -51.563  0.00  0.00     0.021 A 
ATOM      5  C   UNL d   1     -41.375-122.434 -52.959  0.00  0.00     0.018 A 
ATOM      6  C   UNL d   1     -41.323-121.872 -52.354  0.00  0.00     0.003 A 
ATOM      7  C   UNL d   1     -41.532-123.792 -53.384  0.00  0.00     0.019 A 
ATOM      8  C   UNL d   1     -41.321-122.199 -53.744  0.00  0.00     0.002 A 
ATOM      9  C   UNL d   1     -41.478-123.551 -54.163  0.00  0.00     0.002 A 
ATOM     10  C   UNL d   1     -41.372-122.754 -54.344  0.00  0.00     0.000 A 
ENDROOT
BRANCH   2  11
ATOM     11  C   UNL d   1     -41.538-123.152 -50.587  0.00  0.00     0.153 C 
ATOM     12  S   UNL d   1     -41.123-123.817 -50.327  0.00  0.00    -0.056 SA
BRANCH  11  13
ATOM     13  N   UNL d   1     -42.008-122.726 -50.061  0.00  0.00    -0.233 NA
BRANCH  13  14
ATOM     14  C   UNL d   1     -41.995-122.909 -49.257  0.00  0.00     0.082 A 
ATOM     15  C   UNL d   1     -42.706-122.940 -48.828  0.00  0.00     0.018 A 
ATOM     16  C   UNL d   1     -43.420-122.787 -49.203  0.00  0.00     0.002 C 
ATOM     17  C   UNL d   1     -42.686-123.124 -48.024  0.00  0.00     0.002 A 
ATOM     18  C   UNL d   1     -41.969-123.278 -47.646  0.00  0.00     0.000 A 
ATOM     19  C   UNL d   1     -41.263-123.247 -48.076  0.00  0.00     0.002 A 
ATOM     20  C   UNL d   1     -41.277-123.062 -48.883  0.00  0.00     0.019 A 
ENDBRANCH  13  14
ENDBRANCH  11  13
ENDBRANCH   2  11
TORSDOF 3
ENDMDL
MODEL 3
REMARK VINA RESULT:      -3.4      0.919      1.530
REMARK  3 active torsions:
REMARK  status: ('A' for Active; 'I' for Inactive)
REMARK    1  A    between atoms: C_2  and  C_4 
REMARK    2  A    between atoms: N_3  and  C_2 
REMARK    3  A    between atoms: C_5  and  N_3 
ROOT
ATOM      1  N   UNL d   1     -41.305-123.076 -50.328  0.00  0.00    -0.243 NA
ATOM      2  C   UNL d   1     -41.807-123.058 -50.996  0.00  0.00     0.109 A 
ATOM      3  C   UNL d   1     -41.628-123.034 -49.570  0.00  0.00     0.081 A 
ATOM      4  C   UNL d   1     -42.623-122.997 -50.896  0.00  0.00     0.021 A 
ATOM      5  C   UNL d   1     -42.453-122.973 -49.474  0.00  0.00     0.018 A 
ATOM      6  C   UNL d   1     -42.949-122.955 -50.135  0.00  0.00     0.003 A 
ATOM      7  C   UNL d   1     -41.140-123.052 -48.908  0.00  0.00     0.019 A 
ATOM      8  C   UNL d   1     -42.772-122.932 -48.718  0.00  0.00     0.002 A 
ATOM      9  C   UNL d   1     -41.464-123.010 -48.159  0.00  0.00     0.002 A 
ATOM     10  C   UNL d   1     -42.280-122.950 -48.064  0.00  0.00     0.000 A 
ENDROOT
BRANCH   2  11
ATOM     11  C   UNL d   1     -41.481-123.100 -51.756  0.00  0.00     0.153 C 
ATOM     12  S   UNL d   1     -41.123-123.799 -52.016  0.00  0.00    -0.056 SA
BRANCH  11  13
ATOM     13  N   UNL d   1     -41.514-122.443 -52.253  0.00  0.00    -0.233 NA
BRANCH  13  14
ATOM     14  C   UNL d   1     -41.463-122.542 -53.070  0.00  0.00     0.082 A 
ATOM     15  C   UNL d   1     -41.682-121.922 -53.577  0.00  0.00     0.018 A 
ATOM     16  C   UNL d   1     -41.948-121.210 -53.266  0.00  0.00     0.002 C 
ATOM     17  C   UNL d   1     -41.627-122.028 -54.393  0.00  0.00     0.002 A 
ATOM     18  C   UNL d   1     -41.360-122.743 -54.708  0.00  0.00     0.000 A 
ATOM     19  C   UNL d   1     -41.143-123.358 -54.200  0.00  0.00     0.002 A 
ATOM     20  C   UNL d   1     -41.195-123.257 -53.379  0.00  0.00     0.019 A 
ENDBRANCH  13  14
ENDBRANCH  11  13
ENDBRANCH   2  11
TORSDOF 3
ENDMDL
