MODEL 1
REMARK VINA RESULT:      22.0      0.000      0.000
REMARK  3 active torsions:
REMARK  status: ('A' for Active; 'I' for Inactive)
REMARK    1  A    between atoms: S_11  and  C_4 
REMARK    2  A    between atoms: C_14  and  S_11 
REMARK    3  A    between atoms: O_15  and  C_12 
ROOT
ATOM      1  N   UNL d   1     -55.039-101.036 -44.385  0.00  0.00    -0.195 NA
ATOM      2  C   UNL d   1     -55.380-100.306 -44.583  0.00  0.00     0.086 C 
ATOM      3  C   UNL d   1     -55.720 -99.574 -44.792  0.00  0.00     0.168 C 
ENDROOT
BRANCH   3   4
ATOM      4  S   UNL d   1     -56.122 -99.109 -44.213  0.00  0.00    -0.078 SA
BRANCH   4   5
ATOM      5  C   UNL d   1     -56.968 -99.018 -44.260  0.00  0.00     0.108 A 
ATOM      6  N   UNL d   1     -57.419 -99.017 -43.569  0.00  0.00    -0.239 NA
ATOM      7  C   UNL d   1     -58.229 -98.930 -43.633  0.00  0.00     0.084 A 
ATOM      8  C   UNL d   1     -58.585 -98.845 -44.359  0.00  0.00     0.018 A 
ATOM      9  C   UNL d   1     -58.679 -98.928 -42.942  0.00  0.00     0.043 A 
ATOM     10  C   UNL d   1     -58.146 -98.845 -45.055  0.00  0.00     0.004 A 
ATOM     11  C   UNL d   1     -59.406 -98.756 -44.429  0.00  0.00     0.004 A 
ATOM     12  C   UNL d   1     -57.324 -98.934 -44.987  0.00  0.00     0.025 A 
ATOM     13  C   UNL d   1     -58.502 -98.761 -45.782  0.00  0.00     0.000 C 
ATOM     14  C   UNL d   1     -59.861 -98.755 -43.725  0.00  0.00     0.024 A 
ATOM     15  C   UNL d   1     -59.505 -98.840 -42.998  0.00  0.00     0.096 A 
BRANCH  15  16
ATOM     16  O   UNL d   1     -59.959 -98.838 -42.305  0.00  0.00    -0.328 OA
ATOM     17  C   UNL d   1     -59.584 -98.978 -41.574  0.00  0.00     0.181 C 
ENDBRANCH  15  16
ENDBRANCH   4   5
ENDBRANCH   3   4
TORSDOF 3
ENDMDL
MODEL 2
REMARK VINA RESULT:      23.4      1.218      2.182
REMARK  3 active torsions:
REMARK  status: ('A' for Active; 'I' for Inactive)
REMARK    1  A    between atoms: S_11  and  C_4 
REMARK    2  A    between atoms: C_14  and  S_11 
REMARK    3  A    between atoms: O_15  and  C_12 
ROOT
ATOM      1  N   UNL d   1     -55.294-100.651 -43.443  0.00  0.00    -0.195 NA
ATOM      2  C   UNL d   1     -55.520-100.092 -44.014  0.00  0.00     0.086 C 
ATOM      3  C   UNL d   1     -55.743 -99.539 -44.595  0.00  0.00     0.168 C 
ENDROOT
BRANCH   3   4
ATOM      4  S   UNL d   1     -56.138 -98.825 -44.375  0.00  0.00    -0.078 SA
BRANCH   4   5
ATOM      5  C   UNL d   1     -56.989 -98.809 -44.338  0.00  0.00     0.108 A 
ATOM      6  N   UNL d   1     -57.429 -98.802 -45.036  0.00  0.00    -0.239 NA
ATOM      7  C   UNL d   1     -58.245 -98.787 -44.981  0.00  0.00     0.084 A 
ATOM      8  C   UNL d   1     -58.616 -98.778 -44.258  0.00  0.00     0.018 A 
ATOM      9  C   UNL d   1     -58.684 -98.780 -45.679  0.00  0.00     0.043 A 
ATOM     10  C   UNL d   1     -58.188 -98.785 -43.555  0.00  0.00     0.004 A 
ATOM     11  C   UNL d   1     -59.443 -98.763 -44.198  0.00  0.00     0.004 A 
ATOM     12  C   UNL d   1     -57.360 -98.800 -43.614  0.00  0.00     0.025 A 
ATOM     13  C   UNL d   1     -58.559 -98.777 -42.831  0.00  0.00     0.000 C 
ATOM     14  C   UNL d   1     -59.886 -98.756 -44.909  0.00  0.00     0.024 A 
ATOM     15  C   UNL d   1     -59.516 -98.764 -45.633  0.00  0.00     0.096 A 
BRANCH  15  16
ATOM     16  O   UNL d   1     -59.959 -98.757 -46.333  0.00  0.00    -0.328 OA
ATOM     17  C   UNL d   1     -59.563 -98.805 -47.064  0.00  0.00     0.181 C 
ENDBRANCH  15  16
ENDBRANCH   4   5
ENDBRANCH   3   4
TORSDOF 3
ENDMDL
