MODEL 1
REMARK VINA RESULT:     101.0      0.000      0.000
REMARK  8 active torsions:
REMARK  status: ('A' for Active; 'I' for Inactive)
REMARK    1  A    between atoms: N_5  and  C_1 
REMARK    2  A    between atoms: N_7  and  C_1 
REMARK    3  A    between atoms: N_2  and  C_3 
REMARK    4  A    between atoms: C_3  and  C_4 
REMARK    5  A    between atoms: C_6  and  C_3 
REMARK    6  A    between atoms: C_4  and  N_5 
REMARK    7  A    between atoms: C_8  and  N_7 
REMARK    8  A    between atoms: C_25  and  N_10 
ROOT
ATOM      1  C   UNL d   1      61.255  46.838  50.404  0.00  0.00     0.088 C 
ENDROOT
BRANCH   1   2
ATOM      2  N   UNL d   1      61.702  46.263  50.010  0.00  0.00    -0.300 N 
ATOM      3  C   UNL d   1      61.333  45.734  49.499  0.00  0.00     0.100 A 
ATOM      4  C   UNL d   1      61.775  45.164  49.109  0.00  0.00     0.100 A 
ATOM      5  N   UNL d   1      62.593  45.113  49.223  0.00  0.00    -0.300 N 
ATOM      6  C   UNL d   1      62.963  45.646  49.739  0.00  0.00     0.100 A 
ATOM      7  C   UNL d   1      62.524  46.223  50.136  0.00  0.00     0.100 A 
BRANCH   5   8
ATOM      8  C   UNL d   1      63.033  44.541  48.831  0.00  0.00     0.080 C 
ATOM      9  C   UNL d   1      63.154  43.804  49.187  0.00  0.00     0.021 C 
ENDBRANCH   5   8
ENDBRANCH   1   2
BRANCH   1  10
ATOM     10  C   UNL d   1      61.193  47.597  50.095  0.00  0.00     0.100 C 
ATOM     11  C   UNL d   1      61.354  47.729  49.305  0.00  0.00     0.022 C 
BRANCH  10  12
ATOM     12  N   UNL d   1      60.971  48.216  50.587  0.00  0.00    -0.216 NA
BRANCH  12  13
ATOM     13  C   UNL d   1      61.145  48.997  50.371  0.00  0.00     0.221 C 
ATOM     14  S   UNL d   1      61.625  49.139  49.721  0.00  0.00    -0.037 SA
BRANCH  13  15
ATOM     15  N   UNL d   1      60.836  49.620  50.808  0.00  0.00    -0.217 NA
BRANCH  15  16
ATOM     16  C   UNL d   1      60.032  49.648  50.986  0.00  0.00     0.084 A 
ATOM     17  C   UNL d   1      59.786  49.678  51.766  0.00  0.00     0.018 A 
ATOM     18  C   UNL d   1      58.990  49.707  51.949  0.00  0.00     0.002 A 
ATOM     19  C   UNL d   1      60.354  49.678  52.373  0.00  0.00     0.002 C 
ATOM     20  C   UNL d   1      58.426  49.706  51.339  0.00  0.00     0.000 A 
ATOM     21  C   UNL d   1      58.675  49.676  50.543  0.00  0.00     0.002 A 
ATOM     22  C   UNL d   1      59.476  49.648  50.372  0.00  0.00     0.019 A 
ATOM     23  C   UNL d   1      58.120  49.676  49.936  0.00  0.00     0.000 C 
ENDBRANCH  15  16
ENDBRANCH  13  15
ENDBRANCH  12  13
ENDBRANCH  10  12
ENDBRANCH   1  10
BRANCH   1  24
ATOM     24  C   UNL d   1      60.872  46.645  51.105  0.00  0.00     0.047 A 
ATOM     25  S   UNL d   1      60.271  46.085  51.201  0.00  0.00    -0.085 SA
ATOM     26  C   UNL d   1      60.052  46.076  51.994  0.00  0.00     0.035 A 
ATOM     27  C   UNL d   1      60.512  46.627  52.402  0.00  0.00     0.007 A 
ATOM     28  C   UNL d   1      61.024  46.984  51.852  0.00  0.00     0.009 A 
ENDBRANCH   1  24
TORSDOF 8
ENDMDL
