MODEL 1
REMARK VINA RESULT:      -4.8      0.000      0.000
REMARK  7 active torsions:
REMARK  status: ('A' for Active; 'I' for Inactive)
REMARK    1  A    between atoms: C_3  and  N_1 
REMARK       I    between atoms: C_2  and  N_4 
REMARK    2  A    between atoms: C_11  and  C_2 
REMARK    3  A    between atoms: N_4  and  C_12 
REMARK    4  A    between atoms: O_5  and  C_11 
REMARK    5  A    between atoms: C_6  and  O_5 
REMARK    6  A    between atoms: O_15  and  C_8 
REMARK    7  A    between atoms: C_20  and  O_15 
ROOT
ATOM      1  C   UNL d   1      57.877  -1.220  30.237  0.00  0.00     0.353 C 
ATOM      2  N   UNL d   1      57.448  -0.954  30.887  0.00  0.00    -0.363 NA
ATOM      3  O   UNL d   1      57.806  -2.004  29.988  0.00  0.00    -0.249 OA
ENDROOT
BRANCH   1   4
ATOM      4  C   UNL d   1      58.378  -0.709  29.830  0.00  0.00     0.199 C 
BRANCH   4   5
ATOM      5  O   UNL d   1      58.929  -1.006  29.287  0.00  0.00    -0.297 OA
BRANCH   5   6
ATOM      6  C   UNL d   1      59.596  -0.567  29.087  0.00  0.00     0.123 A 
ATOM      7  C   UNL d   1      60.263  -0.948  28.764  0.00  0.00     0.123 A 
ATOM      8  C   UNL d   1      60.931  -0.510  28.563  0.00  0.00     0.027 A 
ATOM      9  C   UNL d   1      60.938   0.305  28.683  0.00  0.00     0.002 A 
ATOM     10  C   UNL d   1      60.278   0.681  29.003  0.00  0.00     0.002 A 
ATOM     11  C   UNL d   1      59.603   0.247  29.206  0.00  0.00     0.027 A 
BRANCH   7  12
ATOM     12  O   UNL d   1      60.253  -1.770  28.645  0.00  0.00    -0.303 OA
BRANCH  12  13
ATOM     13  C   UNL d   1      60.957  -2.171  28.492  0.00  0.00     0.123 C 
ATOM     14  C   UNL d   1      60.977  -2.994  28.519  0.00  0.00     0.029 C 
ENDBRANCH  12  13
ENDBRANCH   7  12
ENDBRANCH   5   6
ENDBRANCH   4   5
ENDBRANCH   1   4
BRANCH   2  15
ATOM     15  C   UNL d   1      57.023  -0.681  31.536  0.00  0.00     0.135 A 
ATOM     16  C   UNL d   1      57.062   0.109  31.759  0.00  0.00     0.034 A 
ATOM     17  C   UNL d   1      56.636   0.382  32.408  0.00  0.00     0.020 A 
ATOM     18  C   UNL d   1      56.164  -0.139  32.844  0.00  0.00     0.064 A 
ATOM     19  C   UNL d   1      56.120  -0.933  32.627  0.00  0.00     0.020 A 
ATOM     20  C   UNL d   1      56.548  -1.215  31.971  0.00  0.00     0.034 A 
BRANCH  18  21
ATOM     21  N   UNL d   1      55.739   0.135  33.493  0.00  0.00    -0.304 N 
ATOM     22  C   UNL d   1      56.117   0.226  34.222  0.00  0.00     0.080 A 
ATOM     23  C   UNL d   1      55.699   0.497  34.868  0.00  0.00     0.019 A 
ATOM     24  C   UNL d   1      54.894   0.682  34.795  0.00  0.00     0.003 A 
ATOM     25  C   UNL d   1      54.517   0.590  34.067  0.00  0.00     0.019 A 
ATOM     26  C   UNL d   1      54.936   0.315  33.407  0.00  0.00     0.080 A 
ENDBRANCH  18  21
ENDBRANCH   2  15
TORSDOF 7
ENDMDL
