MODEL 1
REMARK VINA RESULT:      39.1      0.000      0.000
REMARK  4 active torsions:
REMARK  status: ('A' for Active; 'I' for Inactive)
REMARK    1  A    between atoms: C_18  and  C_5 
REMARK    2  A    between atoms: C_7  and  C_8 
REMARK       I    between atoms: C_8  and  N_17 
REMARK    3  A    between atoms: N_17  and  C_19 
REMARK    4  A    between atoms: C_19  and  C_18 
ROOT
ATOM      1  C   UNL d   1     -52.043  24.683  33.340  0.00  0.00     0.148 A 
ATOM      2  N   UNL d   1     -51.577  24.001  33.374  0.00  0.00    -0.288 N 
ATOM      3  N   UNL d   1     -51.545  25.330  33.311  0.00  0.00    -0.227 NA
ATOM      4  C   UNL d   1     -50.783  24.242  33.365  0.00  0.00     0.101 A 
ATOM      5  C   UNL d   1     -50.770  25.065  33.326  0.00  0.00     0.102 A 
ATOM      6  C   UNL d   1     -52.864  24.608  33.341  0.00  0.00     0.035 A 
ATOM      7  C   UNL d   1     -51.924  23.256  33.408  0.00  0.00     0.082 A 
ATOM      8  C   UNL d   1     -52.741  23.189  33.409  0.00  0.00     0.019 A 
ATOM      9  C   UNL d   1     -53.219  23.869  33.375  0.00  0.00     0.004 A 
ATOM     10  C   UNL d   1     -53.346  25.290  33.307  0.00  0.00     0.003 C 
ENDROOT
BRANCH   5  11
ATOM     11  C   UNL d   1     -50.093  25.546  33.306  0.00  0.00     0.042 C 
BRANCH  11  12
ATOM     12  C   UNL d   1     -50.082  26.263  33.721  0.00  0.00     0.104 C 
BRANCH  12  13
ATOM     13  N   UNL d   1     -50.483  26.914  33.426  0.00  0.00    -0.205 NA
ATOM     14  C   UNL d   1     -50.268  27.677  33.666  0.00  0.00     0.302 C 
ATOM     15  O   UNL d   1     -50.670  28.319  33.370  0.00  0.00    -0.263 OA
BRANCH  14  16
ATOM     16  C   UNL d   1     -49.648  27.776  34.203  0.00  0.00     0.158 A 
ATOM     17  O   UNL d   1     -49.060  28.326  34.054  0.00  0.00    -0.300 OA
ATOM     18  C   UNL d   1     -48.520  28.303  34.679  0.00  0.00     0.123 A 
ATOM     19  C   UNL d   1     -48.772  27.742  35.211  0.00  0.00     0.029 A 
ATOM     20  C   UNL d   1     -49.479  27.408  34.918  0.00  0.00     0.032 A 
ENDBRANCH  14  16
ENDBRANCH  12  13
ENDBRANCH  11  12
ENDBRANCH   5  11
TORSDOF 4
ENDMDL
