MODEL 1
REMARK VINA RESULT:      43.5      0.000      0.000
REMARK  4 active torsions:
REMARK  status: ('A' for Active; 'I' for Inactive)
REMARK    1  A    between atoms: C_5  and  C_1 
REMARK    2  A    between atoms: O_8  and  C_5 
REMARK    3  A    between atoms: C_11  and  O_8 
REMARK    4  A    between atoms: C_12  and  C_11 
ROOT
ATOM      1  C   UNL d   1      59.521  49.574  51.527  0.00  0.00     0.127 A 
ATOM      2  C   UNL d   1      59.979  49.490  52.174  0.00  0.00     0.305 A 
ATOM      3  C   UNL d   1      59.847  49.649  50.773  0.00  0.00     0.013 A 
ATOM      4  O   UNL d   1      60.802  49.474  52.121  0.00  0.00    -0.273 OA
ATOM      5  C   UNL d   1      60.671  49.632  50.720  0.00  0.00     0.023 A 
ATOM      6  C   UNL d   1      61.129  49.548  51.367  0.00  0.00     0.103 A 
ATOM      7  O   UNL d   1      59.653  49.416  52.928  0.00  0.00    -0.259 OA
ATOM      8  C   UNL d   1      60.997  49.706  49.966  0.00  0.00     0.002 A 
ATOM      9  C   UNL d   1      61.952  49.531  51.314  0.00  0.00     0.025 A 
ATOM     10  C   UNL d   1      62.279  49.605  50.560  0.00  0.00     0.002 A 
ATOM     11  C   UNL d   1      61.820  49.689  49.913  0.00  0.00     0.000 A 
ENDROOT
BRANCH   1  12
ATOM     12  C   UNL d   1      58.697  49.591  51.579  0.00  0.00     0.305 C 
ATOM     13  O   UNL d   1      58.308  49.705  52.310  0.00  0.00    -0.259 OA
BRANCH  12  14
ATOM     14  O   UNL d   1      58.261  49.495  50.909  0.00  0.00    -0.271 OA
BRANCH  14  15
ATOM     15  C   UNL d   1      57.454  49.511  50.930  0.00  0.00     0.126 C 
BRANCH  15  16
ATOM     16  C   UNL d   1      57.015  49.286  50.291  0.00  0.00     0.025 A 
ATOM     17  C   UNL d   1      57.090  49.706  49.575  0.00  0.00     0.002 A 
ATOM     18  C   UNL d   1      56.625  49.459  48.921  0.00  0.00     0.000 A 
ATOM     19  C   UNL d   1      56.115  48.836  48.963  0.00  0.00     0.000 A 
ATOM     20  C   UNL d   1      56.040  48.416  49.679  0.00  0.00     0.000 A 
ATOM     21  C   UNL d   1      56.480  48.640  50.318  0.00  0.00     0.002 A 
ENDBRANCH  15  16
ENDBRANCH  14  15
ENDBRANCH  12  14
ENDBRANCH   1  12
TORSDOF 4
ENDMDL
MODEL 2
REMARK VINA RESULT:      45.3      1.309      4.535
REMARK  4 active torsions:
REMARK  status: ('A' for Active; 'I' for Inactive)
REMARK    1  A    between atoms: C_5  and  C_1 
REMARK    2  A    between atoms: O_8  and  C_5 
REMARK    3  A    between atoms: C_11  and  O_8 
REMARK    4  A    between atoms: C_12  and  C_11 
ROOT
ATOM      1  C   UNL d   1      59.134  49.576  50.213  0.00  0.00     0.127 A 
ATOM      2  C   UNL d   1      58.896  49.635  49.453  0.00  0.00     0.305 A 
ATOM      3  C   UNL d   1      58.593  49.556  50.835  0.00  0.00     0.013 A 
ATOM      4  O   UNL d   1      58.096  49.678  49.254  0.00  0.00    -0.273 OA
ATOM      5  C   UNL d   1      57.793  49.599  50.635  0.00  0.00     0.023 A 
ATOM      6  C   UNL d   1      57.555  49.658  49.876  0.00  0.00     0.103 A 
ATOM      7  O   UNL d   1      59.437  49.655  48.831  0.00  0.00    -0.259 OA
ATOM      8  C   UNL d   1      57.252  49.579  51.258  0.00  0.00     0.002 A 
ATOM      9  C   UNL d   1      56.755  49.702  49.677  0.00  0.00     0.025 A 
ATOM     10  C   UNL d   1      56.214  49.682  50.299  0.00  0.00     0.002 A 
ATOM     11  C   UNL d   1      56.453  49.623  51.058  0.00  0.00     0.000 A 
ENDROOT
BRANCH   1  12
ATOM     12  C   UNL d   1      59.933  49.532  50.412  0.00  0.00     0.305 C 
ATOM     13  O   UNL d   1      60.527  49.477  49.828  0.00  0.00    -0.259 OA
BRANCH  12  14
ATOM     14  O   UNL d   1      60.143  49.543  51.190  0.00  0.00    -0.271 OA
BRANCH  14  15
ATOM     15  C   UNL d   1      60.903  49.694  51.416  0.00  0.00     0.126 C 
BRANCH  15  16
ATOM     16  C   UNL d   1      61.137  49.603  52.183  0.00  0.00     0.025 A 
ATOM     17  C   UNL d   1      60.561  49.571  52.786  0.00  0.00     0.002 A 
ATOM     18  C   UNL d   1      60.822  49.476  53.578  0.00  0.00     0.000 A 
ATOM     19  C   UNL d   1      61.603  49.415  53.772  0.00  0.00     0.000 A 
ATOM     20  C   UNL d   1      62.179  49.446  53.169  0.00  0.00     0.000 A 
ATOM     21  C   UNL d   1      61.944  49.537  52.403  0.00  0.00     0.002 A 
ENDBRANCH  15  16
ENDBRANCH  14  15
ENDBRANCH  12  14
ENDBRANCH   1  12
TORSDOF 4
ENDMDL
