MODEL 1
REMARK VINA RESULT:      -6.4      0.000      0.000
REMARK  5 active torsions:
REMARK  status: ('A' for Active; 'I' for Inactive)
REMARK    1  A    between atoms: C_3  and  C_2 
REMARK    2  A    between atoms: C_7  and  C_3 
REMARK    3  A    between atoms: C_10  and  C_4 
REMARK    4  A    between atoms: C_12  and  C_7 
REMARK    5  A    between atoms: C_18  and  C_11 
ROOT
ATOM      1  C   UNL d   1     -41.691-122.972 -51.295  0.00  0.00     0.092 C 
ATOM      2  C   UNL d   1     -41.407-122.261 -50.987  0.00  0.00     0.103 C 
ATOM      3  N   UNL d   1     -41.124-121.551 -50.679  0.00  0.00    -0.191 NA
ENDROOT
BRANCH   1   4
ATOM      4  C   UNL d   1     -41.523-123.175 -52.076  0.00  0.00     0.120 A 
ATOM      5  N   UNL d   1     -41.770-122.690 -52.689  0.00  0.00    -0.238 NA
ATOM      6  C   UNL d   1     -41.520-123.038 -53.404  0.00  0.00     0.088 A 
ATOM      7  C   UNL d   1     -41.129-123.722 -53.212  0.00  0.00     0.056 A 
ATOM      8  S   UNL d   1     -41.123-123.817 -52.405  0.00  0.00    -0.065 SA
BRANCH   6   9
ATOM      9  C   UNL d   1     -41.695-122.664 -54.119  0.00  0.00     0.018 A 
ATOM     10  C   UNL d   1     -41.176-122.676 -54.748  0.00  0.00     0.005 A 
ATOM     11  C   UNL d   1     -41.361-122.307 -55.440  0.00  0.00     0.042 A 
ATOM     12  C   UNL d   1     -42.075-121.906 -55.541  0.00  0.00     0.196 A 
ATOM     13  C   UNL d   1     -42.608-121.887 -54.912  0.00  0.00     0.042 A 
ATOM     14  O   UNL d   1     -42.397-121.517 -56.108  0.00  0.00    -0.287 OA
ATOM     15  C   UNL d   1     -42.415-122.265 -54.207  0.00  0.00     0.005 A 
ENDBRANCH   6   9
ENDBRANCH   1   4
BRANCH   1  16
ATOM     16  C   UNL d   1     -42.143-123.480 -50.827  0.00  0.00     0.012 C 
BRANCH  16  17
ATOM     17  C   UNL d   1     -42.070-123.462 -49.987  0.00  0.00     0.001 A 
ATOM     18  C   UNL d   1     -42.700-123.150 -49.561  0.00  0.00     0.000 A 
ATOM     19  C   UNL d   1     -42.640-123.126 -48.700  0.00  0.00     0.000 A 
ATOM     20  C   UNL d   1     -41.948-123.418 -48.340  0.00  0.00     0.000 A 
ATOM     21  C   UNL d   1     -41.331-123.726 -48.792  0.00  0.00     0.000 A 
ATOM     22  C   UNL d   1     -41.378-123.754 -49.602  0.00  0.00     0.000 A 
BRANCH  20  23
ATOM     23  C   UNL d   1     -41.913-123.383 -47.493  0.00  0.00     0.000 C 
ATOM     24  C   UNL d   1     -42.556-123.593 -47.030  0.00  0.00     0.000 C 
ATOM     25  C   UNL d   1     -41.208-123.131 -47.139  0.00  0.00     0.000 C 
ENDBRANCH  20  23
ENDBRANCH  16  17
ENDBRANCH   1  16
TORSDOF 5
ENDMDL
MODEL 2
REMARK VINA RESULT:      -4.6      2.117      5.630
REMARK  5 active torsions:
REMARK  status: ('A' for Active; 'I' for Inactive)
REMARK    1  A    between atoms: C_3  and  C_2 
REMARK    2  A    between atoms: C_7  and  C_3 
REMARK    3  A    between atoms: C_10  and  C_4 
REMARK    4  A    between atoms: C_12  and  C_7 
REMARK    5  A    between atoms: C_18  and  C_11 
ROOT
ATOM      1  C   UNL d   1     -41.407-122.468 -51.623  0.00  0.00     0.092 C 
ATOM      2  C   UNL d   1     -41.265-121.658 -51.545  0.00  0.00     0.103 C 
ATOM      3  N   UNL d   1     -41.123-120.850 -51.468  0.00  0.00    -0.191 NA
ENDROOT
BRANCH   1   4
ATOM      4  C   UNL d   1     -41.833-122.865 -51.040  0.00  0.00     0.120 A 
ATOM      5  N   UNL d   1     -41.579-122.846 -50.261  0.00  0.00    -0.238 NA
ATOM      6  C   UNL d   1     -42.117-123.293 -49.808  0.00  0.00     0.088 A 
ATOM      7  C   UNL d   1     -42.682-123.573 -50.318  0.00  0.00     0.056 A 
ATOM      8  S   UNL d   1     -42.521-123.319 -51.072  0.00  0.00    -0.065 SA
BRANCH   6   9
ATOM      9  C   UNL d   1     -41.996-123.370 -48.994  0.00  0.00     0.018 A 
ATOM     10  C   UNL d   1     -42.581-123.194 -48.455  0.00  0.00     0.005 A 
ATOM     11  C   UNL d   1     -42.448-123.273 -47.664  0.00  0.00     0.042 A 
ATOM     12  C   UNL d   1     -41.722-123.533 -47.369  0.00  0.00     0.196 A 
ATOM     13  C   UNL d   1     -41.123-123.714 -47.905  0.00  0.00     0.042 A 
ATOM     14  O   UNL d   1     -41.438-123.660 -46.677  0.00  0.00    -0.287 OA
ATOM     15  C   UNL d   1     -41.262-123.632 -48.713  0.00  0.00     0.005 A 
ENDBRANCH   6   9
ENDBRANCH   1   4
BRANCH   1  16
ATOM     16  C   UNL d   1     -41.125-122.881 -52.280  0.00  0.00     0.012 C 
BRANCH  16  17
ATOM     17  C   UNL d   1     -41.405-122.694 -53.053  0.00  0.00     0.001 A 
ATOM     18  C   UNL d   1     -41.266-123.243 -53.648  0.00  0.00     0.000 A 
ATOM     19  C   UNL d   1     -41.546-123.065 -54.444  0.00  0.00     0.000 A 
ATOM     20  C   UNL d   1     -41.944-122.346 -54.575  0.00  0.00     0.000 A 
ATOM     21  C   UNL d   1     -42.071-121.811 -53.960  0.00  0.00     0.000 A 
ATOM     22  C   UNL d   1     -41.811-121.969 -53.207  0.00  0.00     0.000 A 
BRANCH  20  23
ATOM     23  C   UNL d   1     -42.211-122.193 -55.367  0.00  0.00     0.000 C 
ATOM     24  C   UNL d   1     -42.891-122.541 -55.662  0.00  0.00     0.000 C 
ATOM     25  C   UNL d   1     -41.764-121.680 -55.839  0.00  0.00     0.000 C 
ENDBRANCH  20  23
ENDBRANCH  16  17
ENDBRANCH   1  16
TORSDOF 5
ENDMDL
