MODEL 1
REMARK VINA RESULT:      -2.9      0.000      0.000
REMARK  5 active torsions:
REMARK  status: ('A' for Active; 'I' for Inactive)
REMARK    1  A    between atoms: C_2  and  S_1 
REMARK    2  A    between atoms: N_5  and  S_1 
REMARK    3  A    between atoms: C_12  and  N_5 
REMARK    4  A    between atoms: O_16  and  C_8 
REMARK    5  A    between atoms: C_13  and  C_12 
ROOT
ATOM      1  S   UNL d   1      33.006  20.579 -21.738  0.00  0.00     0.286 S 
ATOM      2  O   UNL d   1      32.771  20.186 -21.052  0.00  0.00    -0.198 OA
ATOM      3  O   UNL d   1      33.241  20.972 -22.424  0.00  0.00    -0.198 OA
ENDROOT
BRANCH   1   4
ATOM      4  C   UNL d   1      32.871  21.304 -21.368  0.00  0.00     0.117 A 
ATOM      5  C   UNL d   1      32.617  21.952 -21.812  0.00  0.00     0.027 A 
ATOM      6  C   UNL d   1      32.482  22.677 -21.443  0.00  0.00     0.081 A 
ATOM      7 CL   UNL d   1      32.227  23.326 -21.890  0.00  0.00    -0.080 Cl
ATOM      8  C   UNL d   1      32.601  22.754 -20.630  0.00  0.00     0.105 A 
ATOM      9  C   UNL d   1      32.855  22.107 -20.187  0.00  0.00     0.037 A 
ATOM     10  C   UNL d   1      32.990  21.381 -20.556  0.00  0.00     0.072 A 
ATOM     11 CL   UNL d   1      33.241  20.738 -20.121  0.00  0.00    -0.082 Cl
BRANCH   8  12
ATOM     12  O   UNL d   1      32.466  23.480 -20.260  0.00  0.00    -0.327 OA
ATOM     13  C   UNL d   1      32.865  23.668 -19.564  0.00  0.00     0.181 C 
ENDBRANCH   8  12
ENDBRANCH   1   4
BRANCH   1  14
ATOM     14  N   UNL d   1      33.141  19.854 -22.107  0.00  0.00    -0.155 NA
BRANCH  14  15
ATOM     15  C   UNL d   1      32.907  19.740 -22.891  0.00  0.00     0.131 C 
BRANCH  15  16
ATOM     16  C   UNL d   1      32.997  19.000 -23.245  0.00  0.00     0.101 A 
ATOM     17  N   UNL d   1      32.933  18.315 -22.789  0.00  0.00    -0.242 NA
ATOM     18  C   UNL d   1      33.023  17.575 -23.143  0.00  0.00     0.099 A 
ATOM     19  C   UNL d   1      33.176  17.520 -23.952  0.00  0.00     0.021 A 
ATOM     20  C   UNL d   1      33.241  18.208 -24.411  0.00  0.00     0.003 A 
ATOM     21  C   UNL d   1      33.151  18.948 -24.057  0.00  0.00     0.021 A 
ENDBRANCH  15  16
ENDBRANCH  14  15
ENDBRANCH   1  14
TORSDOF 5
ENDMDL
MODEL 2
REMARK VINA RESULT:      -2.4      1.716      4.671
REMARK  5 active torsions:
REMARK  status: ('A' for Active; 'I' for Inactive)
REMARK    1  A    between atoms: C_2  and  S_1 
REMARK    2  A    between atoms: N_5  and  S_1 
REMARK    3  A    between atoms: C_12  and  N_5 
REMARK    4  A    between atoms: O_16  and  C_8 
REMARK    5  A    between atoms: C_13  and  C_12 
ROOT
ATOM      1  S   UNL d   1      33.220  20.232 -22.314  0.00  0.00     0.286 S 
ATOM      2  O   UNL d   1      33.238  19.722 -21.666  0.00  0.00    -0.198 OA
ATOM      3  O   UNL d   1      33.201  20.742 -22.963  0.00  0.00    -0.198 OA
ENDROOT
BRANCH   1   4
ATOM      4  C   UNL d   1      33.199  19.583 -22.824  0.00  0.00     0.117 A 
ATOM      5  C   UNL d   1      33.167  18.818 -22.516  0.00  0.00     0.027 A 
ATOM      6  C   UNL d   1      33.146  18.170 -23.025  0.00  0.00     0.081 A 
ATOM      7 CL   UNL d   1      33.114  17.402 -22.714  0.00  0.00    -0.080 Cl
ATOM      8  C   UNL d   1      33.157  18.287 -23.842  0.00  0.00     0.105 A 
ATOM      9  C   UNL d   1      33.188  19.051 -24.149  0.00  0.00     0.037 A 
ATOM     10  C   UNL d   1      33.209  19.700 -23.640  0.00  0.00     0.072 A 
ATOM     11 CL   UNL d   1      33.241  20.458 -23.940  0.00  0.00    -0.082 Cl
BRANCH   8  12
ATOM     12  O   UNL d   1      33.136  17.637 -24.352  0.00  0.00    -0.327 OA
ATOM     13  C   UNL d   1      32.580  17.609 -24.959  0.00  0.00     0.181 C 
ENDBRANCH   8  12
ENDBRANCH   1   4
BRANCH   1  14
ATOM     14  N   UNL d   1      33.241  20.881 -21.805  0.00  0.00    -0.155 NA
BRANCH  14  15
ATOM     15  C   UNL d   1      32.591  21.049 -21.324  0.00  0.00     0.131 C 
BRANCH  15  16
ATOM     16  C   UNL d   1      32.568  21.753 -20.893  0.00  0.00     0.101 A 
ATOM     17  N   UNL d   1      32.949  21.802 -20.163  0.00  0.00    -0.242 NA
ATOM     18  C   UNL d   1      32.926  22.505 -19.733  0.00  0.00     0.099 A 
ATOM     19  C   UNL d   1      32.521  23.159 -20.033  0.00  0.00     0.021 A 
ATOM     20  C   UNL d   1      32.137  23.111 -20.766  0.00  0.00     0.003 A 
ATOM     21  C   UNL d   1      32.161  22.408 -21.196  0.00  0.00     0.021 A 
ENDBRANCH  15  16
ENDBRANCH  14  15
ENDBRANCH   1  14
TORSDOF 5
ENDMDL
MODEL 3
REMARK VINA RESULT:      -1.6      3.782      5.767
REMARK  5 active torsions:
REMARK  status: ('A' for Active; 'I' for Inactive)
REMARK    1  A    between atoms: C_2  and  S_1 
REMARK    2  A    between atoms: N_5  and  S_1 
REMARK    3  A    between atoms: C_12  and  N_5 
REMARK    4  A    between atoms: O_16  and  C_8 
REMARK    5  A    between atoms: C_13  and  C_12 
ROOT
ATOM      1  S   UNL d   1      31.532  17.255 -23.835  0.00  0.00     0.286 S 
ATOM      2  O   UNL d   1      31.296  17.038 -23.075  0.00  0.00    -0.198 OA
ATOM      3  O   UNL d   1      31.768  17.473 -24.595  0.00  0.00    -0.198 OA
ENDROOT
BRANCH   1   4
ATOM      4  C   UNL d   1      30.877  16.865 -24.150  0.00  0.00     0.117 A 
ATOM      5  C   UNL d   1      30.217  17.298 -24.393  0.00  0.00     0.027 A 
ATOM      6  C   UNL d   1      29.562  16.909 -24.708  0.00  0.00     0.081 A 
ATOM      7 CL   UNL d   1      28.901  17.345 -24.952  0.00  0.00    -0.080 Cl
ATOM      8  C   UNL d   1      29.567  16.087 -24.780  0.00  0.00     0.105 A 
ATOM      9  C   UNL d   1      30.226  15.655 -24.538  0.00  0.00     0.037 A 
ATOM     10  C   UNL d   1      30.881  16.044 -24.222  0.00  0.00     0.072 A 
ATOM     11 CL   UNL d   1      31.536  15.620 -23.981  0.00  0.00    -0.082 Cl
BRANCH   8  12
ATOM     12  O   UNL d   1      28.911  15.697 -25.096  0.00  0.00    -0.327 OA
ATOM     13  C   UNL d   1      28.290  15.470 -24.604  0.00  0.00     0.181 C 
ENDBRANCH   8  12
ENDBRANCH   1   4
BRANCH   1  14
ATOM     14  N   UNL d   1      32.187  17.645 -23.520  0.00  0.00    -0.155 NA
BRANCH  14  15
ATOM     15  C   UNL d   1      32.435  18.364 -23.841  0.00  0.00     0.131 C 
BRANCH  15  16
ATOM     16  C   UNL d   1      32.703  18.967 -23.346  0.00  0.00     0.101 A 
ATOM     17  N   UNL d   1      32.927  18.794 -22.571  0.00  0.00    -0.242 NA
ATOM     18  C   UNL d   1      33.196  19.397 -22.076  0.00  0.00     0.099 A 
ATOM     19  C   UNL d   1      33.241  20.172 -22.357  0.00  0.00     0.021 A 
ATOM     20  C   UNL d   1      33.016  20.347 -23.136  0.00  0.00     0.003 A 
ATOM     21  C   UNL d   1      32.748  19.744 -23.630  0.00  0.00     0.021 A 
ENDBRANCH  15  16
ENDBRANCH  14  15
ENDBRANCH   1  14
TORSDOF 5
ENDMDL
MODEL 4
REMARK VINA RESULT:      -1.0      1.197      2.033
REMARK  5 active torsions:
REMARK  status: ('A' for Active; 'I' for Inactive)
REMARK    1  A    between atoms: C_2  and  S_1 
REMARK    2  A    between atoms: N_5  and  S_1 
REMARK    3  A    between atoms: C_12  and  N_5 
REMARK    4  A    between atoms: O_16  and  C_8 
REMARK    5  A    between atoms: C_13  and  C_12 
ROOT
ATOM      1  S   UNL d   1      32.652  21.795 -20.954  0.00  0.00     0.286 S 
ATOM      2  O   UNL d   1      32.854  22.447 -21.416  0.00  0.00    -0.198 OA
ATOM      3  O   UNL d   1      32.449  21.142 -20.492  0.00  0.00    -0.198 OA
ENDROOT
BRANCH   1   4
ATOM      4  C   UNL d   1      32.651  22.272 -20.281  0.00  0.00     0.117 A 
ATOM      5  C   UNL d   1      32.945  21.978 -19.568  0.00  0.00     0.027 A 
ATOM      6  C   UNL d   1      32.945  22.455 -18.895  0.00  0.00     0.081 A 
ATOM      7 CL   UNL d   1      33.241  22.158 -18.180  0.00  0.00    -0.080 Cl
ATOM      8  C   UNL d   1      32.651  23.225 -18.935  0.00  0.00     0.105 A 
ATOM      9  C   UNL d   1      32.358  23.518 -19.648  0.00  0.00     0.037 A 
ATOM     10  C   UNL d   1      32.358  23.041 -20.321  0.00  0.00     0.072 A 
ATOM     11 CL   UNL d   1      32.068  23.327 -21.029  0.00  0.00    -0.082 Cl
BRANCH   8  12
ATOM     12  O   UNL d   1      32.651  23.702 -18.261  0.00  0.00    -0.327 OA
ATOM     13  C   UNL d   1      33.236  23.607 -17.689  0.00  0.00     0.181 C 
ENDBRANCH   8  12
ENDBRANCH   1   4
BRANCH   1  14
ATOM     14  N   UNL d   1      32.652  21.318 -21.627  0.00  0.00    -0.155 NA
BRANCH  14  15
ATOM     15  C   UNL d   1      33.232  20.738 -21.722  0.00  0.00     0.131 C 
BRANCH  15  16
ATOM     16  C   UNL d   1      33.152  20.167 -22.313  0.00  0.00     0.101 A 
ATOM     17  N   UNL d   1      32.989  19.384 -22.110  0.00  0.00    -0.242 NA
ATOM     18  C   UNL d   1      32.909  18.813 -22.700  0.00  0.00     0.099 A 
ATOM     19  C   UNL d   1      32.992  19.026 -23.494  0.00  0.00     0.021 A 
ATOM     20  C   UNL d   1      33.155  19.812 -23.699  0.00  0.00     0.003 A 
ATOM     21  C   UNL d   1      33.235  20.383 -23.108  0.00  0.00     0.021 A 
ENDBRANCH  15  16
ENDBRANCH  14  15
ENDBRANCH   1  14
TORSDOF 5
ENDMDL
MODEL 5
REMARK VINA RESULT:      -0.7      1.848      2.744
REMARK  5 active torsions:
REMARK  status: ('A' for Active; 'I' for Inactive)
REMARK    1  A    between atoms: C_2  and  S_1 
REMARK    2  A    between atoms: N_5  and  S_1 
REMARK    3  A    between atoms: C_12  and  N_5 
REMARK    4  A    between atoms: O_16  and  C_8 
REMARK    5  A    between atoms: C_13  and  C_12 
ROOT
ATOM      1  S   UNL d   1      32.823  18.909 -23.433  0.00  0.00     0.286 S 
ATOM      2  O   UNL d   1      32.412  19.320 -24.018  0.00  0.00    -0.198 OA
ATOM      3  O   UNL d   1      33.235  18.498 -22.848  0.00  0.00    -0.198 OA
ENDROOT
BRANCH   1   4
ATOM      4  C   UNL d   1      32.927  19.611 -23.013  0.00  0.00     0.117 A 
ATOM      5  C   UNL d   1      32.821  19.622 -22.195  0.00  0.00     0.027 A 
ATOM      6  C   UNL d   1      32.925  20.324 -21.775  0.00  0.00     0.081 A 
ATOM      7 CL   UNL d   1      32.818  20.333 -20.953  0.00  0.00    -0.080 Cl
ATOM      8  C   UNL d   1      33.135  21.015 -22.174  0.00  0.00     0.105 A 
ATOM      9  C   UNL d   1      33.241  21.005 -22.991  0.00  0.00     0.037 A 
ATOM     10  C   UNL d   1      33.137  20.302 -23.411  0.00  0.00     0.072 A 
ATOM     11 CL   UNL d   1      33.241  20.287 -24.221  0.00  0.00    -0.082 Cl
BRANCH   8  12
ATOM     12  O   UNL d   1      33.239  21.719 -21.753  0.00  0.00    -0.327 OA
ATOM     13  C   UNL d   1      32.928  22.424 -22.046  0.00  0.00     0.181 C 
ENDBRANCH   8  12
ENDBRANCH   1   4
BRANCH   1  14
ATOM     14  N   UNL d   1      32.719  18.206 -23.853  0.00  0.00    -0.155 NA
BRANCH  14  15
ATOM     15  C   UNL d   1      32.503  17.516 -23.456  0.00  0.00     0.131 C 
BRANCH  15  16
ATOM     16  C   UNL d   1      32.187  16.880 -23.875  0.00  0.00     0.101 A 
ATOM     17  N   UNL d   1      32.650  16.480 -24.429  0.00  0.00    -0.242 NA
ATOM     18  C   UNL d   1      32.334  15.844 -24.849  0.00  0.00     0.099 A 
ATOM     19  C   UNL d   1      31.554  15.608 -24.715  0.00  0.00     0.021 A 
ATOM     20  C   UNL d   1      31.087  16.009 -24.159  0.00  0.00     0.003 A 
ATOM     21  C   UNL d   1      31.404  16.645 -23.739  0.00  0.00     0.021 A 
ENDBRANCH  15  16
ENDBRANCH  14  15
ENDBRANCH   1  14
TORSDOF 5
ENDMDL
MODEL 6
REMARK VINA RESULT:      -0.3      4.991      6.562
REMARK  5 active torsions:
REMARK  status: ('A' for Active; 'I' for Inactive)
REMARK    1  A    between atoms: C_2  and  S_1 
REMARK    2  A    between atoms: N_5  and  S_1 
REMARK    3  A    between atoms: C_12  and  N_5 
REMARK    4  A    between atoms: O_16  and  C_8 
REMARK    5  A    between atoms: C_13  and  C_12 
ROOT
ATOM      1  S   UNL d   1      29.682  16.733 -24.313  0.00  0.00     0.286 S 
ATOM      2  O   UNL d   1      29.349  17.488 -24.307  0.00  0.00    -0.198 OA
ATOM      3  O   UNL d   1      30.015  15.978 -24.320  0.00  0.00    -0.198 OA
ENDROOT
BRANCH   1   4
ATOM      4  C   UNL d   1      28.966  16.415 -24.055  0.00  0.00     0.117 A 
ATOM      5  C   UNL d   1      28.583  16.740 -23.401  0.00  0.00     0.027 A 
ATOM      6  C   UNL d   1      27.867  16.422 -23.143  0.00  0.00     0.081 A 
ATOM      7 CL   UNL d   1      27.483  16.750 -22.486  0.00  0.00    -0.080 Cl
ATOM      8  C   UNL d   1      27.535  15.778 -23.539  0.00  0.00     0.105 A 
ATOM      9  C   UNL d   1      27.919  15.453 -24.192  0.00  0.00     0.037 A 
ATOM     10  C   UNL d   1      28.635  15.772 -24.450  0.00  0.00     0.072 A 
ATOM     11 CL   UNL d   1      29.018  15.453 -25.097  0.00  0.00    -0.082 Cl
BRANCH   8  12
ATOM     12  O   UNL d   1      26.818  15.459 -23.280  0.00  0.00    -0.327 OA
ATOM     13  C   UNL d   1      26.119  15.644 -23.675  0.00  0.00     0.181 C 
ENDBRANCH   8  12
ENDBRANCH   1   4
BRANCH   1  14
ATOM     14  N   UNL d   1      30.398  17.051 -24.572  0.00  0.00    -0.155 NA
BRANCH  14  15
ATOM     15  C   UNL d   1      30.827  17.557 -24.079  0.00  0.00     0.131 C 
BRANCH  15  16
ATOM     16  C   UNL d   1      31.586  17.796 -24.295  0.00  0.00     0.101 A 
ATOM     17  N   UNL d   1      32.244  17.399 -23.996  0.00  0.00    -0.242 NA
ATOM     18  C   UNL d   1      33.004  17.639 -24.211  0.00  0.00     0.099 A 
ATOM     19  C   UNL d   1      33.105  18.276 -24.726  0.00  0.00     0.021 A 
ATOM     20  C   UNL d   1      32.444  18.676 -25.028  0.00  0.00     0.003 A 
ATOM     21  C   UNL d   1      31.685  18.436 -24.812  0.00  0.00     0.021 A 
ENDBRANCH  15  16
ENDBRANCH  14  15
ENDBRANCH   1  14
TORSDOF 5
ENDMDL
