MODEL 1
REMARK VINA RESULT:      73.5      0.000      0.000
REMARK  7 active torsions:
REMARK  status: ('A' for Active; 'I' for Inactive)
REMARK    1  A    between atoms: C_11  and  C_3 
REMARK    2  A    between atoms: C_10  and  C_4 
REMARK    3  A    between atoms: O_16  and  C_10 
REMARK    4  A    between atoms: N_15  and  C_11 
REMARK    5  A    between atoms: C_21  and  N_15 
REMARK    6  A    between atoms: C_23  and  O_16 
REMARK    7  A    between atoms: C_18  and  C_21 
ROOT
ATOM      1  C   UNL d   1      58.460  49.373  51.238  0.00  0.00     0.035 A 
ATOM      2  C   UNL d   1      58.339  49.212  50.438  0.00  0.00     0.100 A 
ATOM      3  C   UNL d   1      57.820  49.508  51.740  0.00  0.00     0.060 A 
ATOM      4  C   UNL d   1      59.278  49.363  51.375  0.00  0.00     0.088 A 
ATOM      5  O   UNL d   1      59.071  49.105  50.090  0.00  0.00    -0.307 OA
ATOM      6  C   UNL d   1      59.617  49.199  50.662  0.00  0.00     0.105 A 
ATOM      7  C   UNL d   1      57.051  49.483  51.449  0.00  0.00     0.197 A 
ATOM      8  C   UNL d   1      57.570  49.189  50.153  0.00  0.00     0.026 A 
ATOM      9  C   UNL d   1      56.930  49.324  50.656  0.00  0.00     0.041 A 
ATOM     10  O   UNL d   1      56.415  49.617  51.948  0.00  0.00    -0.286 OA
ATOM     11  C   UNL d   1      60.452  49.134  50.540  0.00  0.00     0.027 C 
ATOM     12  C   UNL d   1      57.446  49.027  49.350  0.00  0.00     0.002 A 
ATOM     13  C   UNL d   1      56.158  49.298  50.361  0.00  0.00     0.003 A 
ATOM     14  C   UNL d   1      56.037  49.138  49.567  0.00  0.00     0.000 A 
ATOM     15  C   UNL d   1      56.677  49.004  49.065  0.00  0.00     0.000 A 
ENDROOT
BRANCH   3  16
ATOM     16  C   UNL d   1      57.935  49.675  52.568  0.00  0.00     0.102 C 
BRANCH  16  17
ATOM     17  N   UNL d   1      57.411  49.378  53.146  0.00  0.00    -0.241 NA
BRANCH  17  18
ATOM     18  C   UNL d   1      57.703  49.156  53.875  0.00  0.00     0.118 C 
BRANCH  18  19
ATOM     19  C   UNL d   1      57.184  49.117  54.533  0.00  0.00     0.101 A 
ATOM     20  N   UNL d   1      57.263  48.525  55.094  0.00  0.00    -0.242 NA
ATOM     21  C   UNL d   1      56.753  48.487  55.742  0.00  0.00     0.099 A 
ATOM     22  C   UNL d   1      56.158  49.041  55.834  0.00  0.00     0.021 A 
ATOM     23  C   UNL d   1      56.074  49.637  55.274  0.00  0.00     0.003 A 
ATOM     24  C   UNL d   1      56.584  49.675  54.627  0.00  0.00     0.021 A 
ENDBRANCH  18  19
ENDBRANCH  17  18
ENDBRANCH  16  17
ENDBRANCH   3  16
BRANCH   4  25
ATOM     25  C   UNL d   1      59.704  49.495  52.102  0.00  0.00     0.302 C 
ATOM     26  O   UNL d   1      59.283  49.697  52.781  0.00  0.00    -0.259 OA
BRANCH  25  27
ATOM     27  O   UNL d   1      60.497  49.422  52.119  0.00  0.00    -0.271 OA
BRANCH  27  28
ATOM     28  C   UNL d   1      60.879  49.099  52.773  0.00  0.00     0.126 C 
ATOM     29  C   UNL d   1      61.570  49.451  53.074  0.00  0.00     0.029 C 
ENDBRANCH  27  28
ENDBRANCH  25  27
ENDBRANCH   4  25
TORSDOF 7
ENDMDL
