MODEL 1
REMARK VINA RESULT:      -5.7      0.000      0.000
REMARK  8 active torsions:
REMARK  status: ('A' for Active; 'I' for Inactive)
REMARK    1  A    between atoms: C_3  and  N_1 
REMARK    2  A    between atoms: C_8  and  N_2 
REMARK    3  A    between atoms: C_6  and  C_3 
REMARK    4  A    between atoms: C_9  and  C_3 
REMARK       I    between atoms: C_4  and  N_7 
REMARK    5  A    between atoms: C_5  and  C_4 
REMARK       I    between atoms: N_10  and  C_5 
REMARK    6  A    between atoms: N_7  and  C_9 
REMARK    7  A    between atoms: C_22  and  N_10 
REMARK    8  A    between atoms: C_24  and  C_22 
ROOT
ATOM      1  C   UNL d   1     -45.204  12.307  22.334  0.00  0.00     0.106 C 
ENDROOT
BRANCH   1   2
ATOM      2  N   UNL d   1     -45.859  12.813  22.417  0.00  0.00    -0.298 N 
ATOM      3  C   UNL d   1     -46.443  12.815  21.834  0.00  0.00     0.100 A 
ATOM      4  C   UNL d   1     -47.097  13.313  21.905  0.00  0.00     0.100 A 
ATOM      5  N   UNL d   1     -47.167  13.810  22.560  0.00  0.00    -0.299 N 
ATOM      6  C   UNL d   1     -46.583  13.806  23.140  0.00  0.00     0.100 A 
ATOM      7  C   UNL d   1     -45.929  13.310  23.072  0.00  0.00     0.100 A 
BRANCH   5   8
ATOM      8  C   UNL d   1     -47.816  14.304  22.630  0.00  0.00     0.092 A 
ATOM      9  C   UNL d   1     -48.480  14.063  23.054  0.00  0.00     0.156 A 
ATOM     10  F   UNL d   1     -48.489  13.319  23.410  0.00  0.00    -0.203 F 
ATOM     11  C   UNL d   1     -49.134  14.558  23.125  0.00  0.00     0.031 A 
ATOM     12  C   UNL d   1     -49.124  15.302  22.769  0.00  0.00     0.002 A 
ATOM     13  C   UNL d   1     -48.457  15.547  22.341  0.00  0.00     0.002 A 
ATOM     14  C   UNL d   1     -47.807  15.048  22.273  0.00  0.00     0.020 A 
ENDBRANCH   5   8
ENDBRANCH   1   2
BRANCH   1  15
ATOM     15  C   UNL d   1     -45.093  11.677  22.856  0.00  0.00     0.118 A 
ATOM     16  O   UNL d   1     -44.419  11.374  23.236  0.00  0.00    -0.304 OA
ATOM     17  C   UNL d   1     -44.645  10.737  23.694  0.00  0.00     0.123 A 
ATOM     18  C   UNL d   1     -45.459  10.633  23.606  0.00  0.00     0.029 A 
ATOM     19  C   UNL d   1     -45.729  11.219  23.086  0.00  0.00     0.028 A 
ENDBRANCH   1  15
BRANCH   1  20
ATOM     20  C   UNL d   1     -44.657  12.438  21.720  0.00  0.00     0.122 C 
BRANCH  20  21
ATOM     21  N   UNL d   1     -43.902  12.720  21.894  0.00  0.00    -0.201 NA
ATOM     22  C   UNL d   1     -43.337  12.813  21.295  0.00  0.00     0.337 C 
ATOM     23  O   UNL d   1     -43.539  12.620  20.519  0.00  0.00    -0.260 OA
BRANCH  22  24
ATOM     24  C   UNL d   1     -42.592  13.092  21.471  0.00  0.00     0.337 C 
ATOM     25  N   UNL d   1     -42.243  13.669  20.994  0.00  0.00    -0.202 NA
ATOM     26  O   UNL d   1     -42.186  12.799  22.127  0.00  0.00    -0.260 OA
BRANCH  25  27
ATOM     27  C   UNL d   1     -41.489  13.951  21.172  0.00  0.00     0.102 C 
BRANCH  27  28
ATOM     28  C   UNL d   1     -41.150  14.540  20.712  0.00  0.00     0.019 A 
ATOM     29  C   UNL d   1     -40.867  14.363  19.957  0.00  0.00     0.002 A 
ATOM     30  C   UNL d   1     -40.528  14.948  19.496  0.00  0.00     0.000 A 
ATOM     31  C   UNL d   1     -40.468  15.726  19.788  0.00  0.00     0.000 A 
ATOM     32  C   UNL d   1     -40.752  15.903  20.542  0.00  0.00     0.000 A 
ATOM     33  C   UNL d   1     -41.092  15.310  21.004  0.00  0.00     0.002 A 
ENDBRANCH  27  28
ENDBRANCH  25  27
ENDBRANCH  22  24
ENDBRANCH  20  21
ENDBRANCH   1  20
TORSDOF 8
ENDMDL
MODEL 2
REMARK VINA RESULT:      -5.0      1.296      1.826
REMARK  8 active torsions:
REMARK  status: ('A' for Active; 'I' for Inactive)
REMARK    1  A    between atoms: C_3  and  N_1 
REMARK    2  A    between atoms: C_8  and  N_2 
REMARK    3  A    between atoms: C_6  and  C_3 
REMARK    4  A    between atoms: C_9  and  C_3 
REMARK       I    between atoms: C_4  and  N_7 
REMARK    5  A    between atoms: C_5  and  C_4 
REMARK       I    between atoms: N_10  and  C_5 
REMARK    6  A    between atoms: N_7  and  C_9 
REMARK    7  A    between atoms: C_22  and  N_10 
REMARK    8  A    between atoms: C_24  and  C_22 
ROOT
ATOM      1  C   UNL d   1     -46.487  12.549  22.792  0.00  0.00     0.106 C 
ENDROOT
BRANCH   1   2
ATOM      2  N   UNL d   1     -47.251  12.838  22.630  0.00  0.00    -0.298 N 
ATOM      3  C   UNL d   1     -47.695  13.169  23.242  0.00  0.00     0.100 A 
ATOM      4  C   UNL d   1     -48.453  13.458  23.092  0.00  0.00     0.100 A 
ATOM      5  N   UNL d   1     -48.767  13.417  22.330  0.00  0.00    -0.299 N 
ATOM      6  C   UNL d   1     -48.321  13.087  21.722  0.00  0.00     0.100 A 
ATOM      7  C   UNL d   1     -47.564  12.798  21.868  0.00  0.00     0.100 A 
BRANCH   5   8
ATOM      8  C   UNL d   1     -49.520  13.705  22.183  0.00  0.00     0.092 A 
ATOM      9  C   UNL d   1     -50.156  13.188  22.110  0.00  0.00     0.156 A 
ATOM     10  F   UNL d   1     -50.034  12.376  22.185  0.00  0.00    -0.203 F 
ATOM     11  C   UNL d   1     -50.914  13.475  21.962  0.00  0.00     0.031 A 
ATOM     12  C   UNL d   1     -51.036  14.288  21.886  0.00  0.00     0.002 A 
ATOM     13  C   UNL d   1     -50.396  14.810  21.959  0.00  0.00     0.002 A 
ATOM     14  C   UNL d   1     -49.642  14.517  22.107  0.00  0.00     0.020 A 
ENDBRANCH   5   8
ENDBRANCH   1   2
BRANCH   1  15
ATOM     15  C   UNL d   1     -46.380  11.777  23.061  0.00  0.00     0.118 A 
ATOM     16  O   UNL d   1     -46.831  11.084  22.975  0.00  0.00    -0.304 OA
ATOM     17  C   UNL d   1     -46.449  10.477  23.364  0.00  0.00     0.123 A 
ATOM     18  C   UNL d   1     -45.758  10.780  23.698  0.00  0.00     0.029 A 
ATOM     19  C   UNL d   1     -45.722  11.585  23.506  0.00  0.00     0.028 A 
ENDBRANCH   1  15
BRANCH   1  20
ATOM     20  C   UNL d   1     -45.827  13.046  22.682  0.00  0.00     0.122 C 
BRANCH  20  21
ATOM     21  N   UNL d   1     -45.208  12.806  22.193  0.00  0.00    -0.201 NA
ATOM     22  C   UNL d   1     -44.636  13.348  21.939  0.00  0.00     0.337 C 
ATOM     23  O   UNL d   1     -44.693  14.134  22.179  0.00  0.00    -0.260 OA
BRANCH  22  24
ATOM     24  C   UNL d   1     -44.025  13.106  21.456  0.00  0.00     0.337 C 
ATOM     25  N   UNL d   1     -43.271  13.428  21.552  0.00  0.00    -0.202 NA
ATOM     26  O   UNL d   1     -44.161  12.539  20.871  0.00  0.00    -0.260 OA
BRANCH  25  27
ATOM     27  C   UNL d   1     -42.653  13.183  21.063  0.00  0.00     0.102 C 
BRANCH  27  28
ATOM     28  C   UNL d   1     -41.932  13.574  21.084  0.00  0.00     0.019 A 
ATOM     29  C   UNL d   1     -41.804  14.234  20.605  0.00  0.00     0.002 A 
ATOM     30  C   UNL d   1     -41.086  14.625  20.623  0.00  0.00     0.000 A 
ATOM     31  C   UNL d   1     -40.480  14.359  21.128  0.00  0.00     0.000 A 
ATOM     32  C   UNL d   1     -40.607  13.699  21.608  0.00  0.00     0.000 A 
ATOM     33  C   UNL d   1     -41.333  13.308  21.585  0.00  0.00     0.002 A 
ENDBRANCH  27  28
ENDBRANCH  25  27
ENDBRANCH  22  24
ENDBRANCH  20  21
ENDBRANCH   1  20
TORSDOF 8
ENDMDL
