MODEL 1
REMARK VINA RESULT:      16.3      0.000      0.000
REMARK  1 active torsions:
REMARK  status: ('A' for Active; 'I' for Inactive)
REMARK    1  A    between atoms: C_7  and  C_1 
ROOT
ATOM      1  C   UNL d   1     -58.521 -98.799 -43.969  0.00  0.00     0.102 A 
ATOM      2  C   UNL d   1     -58.502 -98.772 -44.781  0.00  0.00     0.303 A 
ATOM      3  C   UNL d   1     -57.813 -98.811 -43.540  0.00  0.00     0.011 A 
ATOM      4  O   UNL d   1     -57.774 -98.758 -45.177  0.00  0.00    -0.273 OA
ATOM      5  C   UNL d   1     -57.069 -98.770 -44.747  0.00  0.00     0.106 A 
ATOM      6  C   UNL d   1     -57.088 -98.797 -43.936  0.00  0.00     0.023 A 
ATOM      7  C   UNL d   1     -56.342 -98.755 -45.143  0.00  0.00     0.067 A 
ATOM      8  O   UNL d   1     -59.203 -98.760 -45.210  0.00  0.00    -0.259 OA
ATOM      9  C   UNL d   1     -56.380 -98.809 -43.506  0.00  0.00     0.005 A 
ATOM     10  C   UNL d   1     -55.633 -98.768 -44.713  0.00  0.00     0.198 A 
ATOM     11  C   UNL d   1     -55.652 -98.794 -43.902  0.00  0.00     0.042 A 
ATOM     12  O   UNL d   1     -54.867 -98.756 -45.025  0.00  0.00    -0.286 OA
ENDROOT
BRANCH   1  13
ATOM     13  C   UNL d   1     -59.241 -98.814 -43.573  0.00  0.00     0.201 C 
ATOM     14  O   UNL d   1     -59.261 -98.883 -42.749  0.00  0.00    -0.286 OA
ATOM     15  C   UNL d   1     -59.934 -98.761 -43.984  0.00  0.00     0.045 C 
ENDBRANCH   1  13
TORSDOF 1
ENDMDL
