MODEL 1
REMARK VINA RESULT:      -1.5      0.000      0.000
REMARK  5 active torsions:
REMARK  status: ('A' for Active; 'I' for Inactive)
REMARK    1  A    between atoms: C_12  and  N_1 
REMARK    2  A    between atoms: N_7  and  C_5 
REMARK    3  A    between atoms: C_10  and  N_7 
REMARK    4  A    between atoms: O_14  and  C_13 
REMARK    5  A    between atoms: C_19  and  O_14 
ROOT
ATOM      1  N   UNL d   1      57.684  -0.336  30.504  0.00  0.00    -0.212 N 
ATOM      2  C   UNL d   1      57.284  -0.653  31.153  0.00  0.00     0.170 A 
ATOM      3  C   UNL d   1      56.920  -0.032  31.556  0.00  0.00     0.093 A 
ATOM      4  N   UNL d   1      57.565   0.486  30.507  0.00  0.00    -0.162 NA
ATOM      5  C   UNL d   1      56.473  -0.183  32.238  0.00  0.00     0.169 A 
ATOM      6  C   UNL d   1      57.092   0.668  31.159  0.00  0.00     0.127 A 
ATOM      7  N   UNL d   1      57.208  -1.433  31.426  0.00  0.00    -0.205 NA
ATOM      8  N   UNL d   1      56.397  -0.963  32.511  0.00  0.00    -0.205 NA
ATOM      9  C   UNL d   1      56.765  -1.579  32.103  0.00  0.00     0.202 A 
ENDROOT
BRANCH   5  10
ATOM     10  N   UNL d   1      56.109   0.427  32.642  0.00  0.00    -0.225 NA
BRANCH  10  11
ATOM     11  C   UNL d   1      56.199   0.494  33.451  0.00  0.00     0.106 A 
ATOM     12  C   UNL d   1      55.538   0.579  33.943  0.00  0.00     0.118 A 
ATOM     13  C   UNL d   1      55.625   0.647  34.751  0.00  0.00     0.026 A 
ATOM     14  C   UNL d   1      56.392   0.630  35.084  0.00  0.00     0.002 A 
ATOM     15  C   UNL d   1      57.043   0.547  34.610  0.00  0.00     0.002 A 
ATOM     16  C   UNL d   1      56.952   0.478  33.787  0.00  0.00     0.021 A 
BRANCH  12  17
ATOM     17  O   UNL d   1      54.784   0.595  33.607  0.00  0.00    -0.304 OA
BRANCH  17  18
ATOM     18  C   UNL d   1      54.116   0.682  34.092  0.00  0.00     0.123 C 
ATOM     19  C   UNL d   1      53.365   0.667  33.759  0.00  0.00     0.029 C 
ENDBRANCH  17  18
ENDBRANCH  12  17
ENDBRANCH  10  11
ENDBRANCH   5  10
BRANCH   1  20
ATOM     20  C   UNL d   1      58.125  -0.760  29.949  0.00  0.00     0.085 A 
ATOM     21  C   UNL d   1      58.526  -0.356  29.346  0.00  0.00     0.019 A 
ATOM     22  C   UNL d   1      58.965  -0.777  28.793  0.00  0.00     0.002 A 
ATOM     23  C   UNL d   1      59.007  -1.607  28.839  0.00  0.00     0.000 A 
ATOM     24  C   UNL d   1      58.610  -2.005  29.436  0.00  0.00     0.002 A 
ATOM     25  C   UNL d   1      58.168  -1.590  29.994  0.00  0.00     0.019 A 
ENDBRANCH   1  20
TORSDOF 5
ENDMDL
MODEL 2
REMARK VINA RESULT:      -1.3      0.871      1.643
REMARK  5 active torsions:
REMARK  status: ('A' for Active; 'I' for Inactive)
REMARK    1  A    between atoms: C_12  and  N_1 
REMARK    2  A    between atoms: N_7  and  C_5 
REMARK    3  A    between atoms: C_10  and  N_7 
REMARK    4  A    between atoms: O_14  and  C_13 
REMARK    5  A    between atoms: C_19  and  O_14 
ROOT
ATOM      1  N   UNL d   1      58.368  -0.174  30.625  0.00  0.00    -0.212 N 
ATOM      2  C   UNL d   1      57.728  -0.430  31.080  0.00  0.00     0.170 A 
ATOM      3  C   UNL d   1      57.633   0.100  31.706  0.00  0.00     0.093 A 
ATOM      4  N   UNL d   1      58.669   0.517  30.973  0.00  0.00    -0.162 NA
ATOM      5  C   UNL d   1      57.027  -0.016  32.261  0.00  0.00     0.169 A 
ATOM      6  C   UNL d   1      58.211   0.682  31.641  0.00  0.00     0.127 A 
ATOM      7  N   UNL d   1      57.220  -1.081  31.000  0.00  0.00    -0.205 NA
ATOM      8  N   UNL d   1      56.519  -0.668  32.180  0.00  0.00    -0.205 NA
ATOM      9  C   UNL d   1      56.620  -1.193  31.552  0.00  0.00     0.202 A 
ENDROOT
BRANCH   5  10
ATOM     10  N   UNL d   1      56.926   0.504  32.883  0.00  0.00    -0.225 NA
BRANCH  10  11
ATOM     11  C   UNL d   1      56.247   0.477  33.334  0.00  0.00     0.106 A 
ATOM     12  C   UNL d   1      56.283   0.566  34.158  0.00  0.00     0.118 A 
ATOM     13  C   UNL d   1      55.606   0.539  34.610  0.00  0.00     0.026 A 
ATOM     14  C   UNL d   1      54.866   0.421  34.237  0.00  0.00     0.002 A 
ATOM     15  C   UNL d   1      54.823   0.334  33.434  0.00  0.00     0.002 A 
ATOM     16  C   UNL d   1      55.514   0.361  32.974  0.00  0.00     0.021 A 
BRANCH  12  17
ATOM     17  O   UNL d   1      57.016   0.682  34.518  0.00  0.00    -0.304 OA
BRANCH  17  18
ATOM     18  C   UNL d   1      57.197   0.286  35.225  0.00  0.00     0.123 C 
ATOM     19  C   UNL d   1      57.647   0.663  35.800  0.00  0.00     0.029 C 
ENDBRANCH  17  18
ENDBRANCH  12  17
ENDBRANCH  10  11
ENDBRANCH   5  10
BRANCH   1  20
ATOM     20  C   UNL d   1      58.659  -0.541  29.944  0.00  0.00     0.085 A 
ATOM     21  C   UNL d   1      59.022  -1.284  30.000  0.00  0.00     0.019 A 
ATOM     22  C   UNL d   1      59.311  -1.650  29.323  0.00  0.00     0.002 A 
ATOM     23  C   UNL d   1      59.240  -1.275  28.583  0.00  0.00     0.000 A 
ATOM     24  C   UNL d   1      58.880  -0.540  28.530  0.00  0.00     0.002 A 
ATOM     25  C   UNL d   1      58.587  -0.166  29.204  0.00  0.00     0.019 A 
ENDBRANCH   1  20
TORSDOF 5
ENDMDL
MODEL 3
REMARK VINA RESULT:      -0.3      1.228      1.895
REMARK  5 active torsions:
REMARK  status: ('A' for Active; 'I' for Inactive)
REMARK    1  A    between atoms: C_12  and  N_1 
REMARK    2  A    between atoms: N_7  and  C_5 
REMARK    3  A    between atoms: C_10  and  N_7 
REMARK    4  A    between atoms: O_14  and  C_13 
REMARK    5  A    between atoms: C_19  and  O_14 
ROOT
ATOM      1  N   UNL d   1      58.474  -0.037  30.027  0.00  0.00    -0.212 N 
ATOM      2  C   UNL d   1      58.321   0.181  30.808  0.00  0.00     0.170 A 
ATOM      3  C   UNL d   1      57.524   0.035  30.962  0.00  0.00     0.093 A 
ATOM      4  N   UNL d   1      57.767  -0.319  29.697  0.00  0.00    -0.162 NA
ATOM      5  C   UNL d   1      57.207   0.202  31.710  0.00  0.00     0.169 A 
ATOM      6  C   UNL d   1      57.182  -0.272  30.279  0.00  0.00     0.127 A 
ATOM      7  N   UNL d   1      58.813   0.495  31.399  0.00  0.00    -0.205 NA
ATOM      8  N   UNL d   1      57.699   0.517  32.300  0.00  0.00    -0.205 NA
ATOM      9  C   UNL d   1      58.495   0.660  32.139  0.00  0.00     0.202 A 
ENDROOT
BRANCH   5  10
ATOM     10  N   UNL d   1      56.418   0.061  31.870  0.00  0.00    -0.225 NA
BRANCH  10  11
ATOM     11  C   UNL d   1      56.205  -0.529  32.392  0.00  0.00     0.106 A 
ATOM     12  C   UNL d   1      55.721  -0.361  33.044  0.00  0.00     0.118 A 
ATOM     13  C   UNL d   1      55.507  -0.948  33.567  0.00  0.00     0.026 A 
ATOM     14  C   UNL d   1      55.780  -1.729  33.442  0.00  0.00     0.002 A 
ATOM     15  C   UNL d   1      56.253  -1.901  32.808  0.00  0.00     0.002 A 
ATOM     16  C   UNL d   1      56.470  -1.302  32.276  0.00  0.00     0.021 A 
BRANCH  12  17
ATOM     17  O   UNL d   1      55.456   0.412  33.160  0.00  0.00    -0.304 OA
BRANCH  17  18
ATOM     18  C   UNL d   1      55.002   0.597  33.830  0.00  0.00     0.123 C 
ATOM     19  C   UNL d   1      54.187   0.682  33.760  0.00  0.00     0.029 C 
ENDBRANCH  17  18
ENDBRANCH  12  17
ENDBRANCH  10  11
ENDBRANCH   5  10
BRANCH   1  20
ATOM     20  C   UNL d   1      59.203   0.015  29.640  0.00  0.00     0.085 A 
ATOM     21  C   UNL d   1      59.843  -0.440  29.905  0.00  0.00     0.019 A 
ATOM     22  C   UNL d   1      60.568  -0.389  29.521  0.00  0.00     0.002 A 
ATOM     23  C   UNL d   1      60.659   0.119  28.868  0.00  0.00     0.000 A 
ATOM     24  C   UNL d   1      60.025   0.569  28.607  0.00  0.00     0.002 A 
ATOM     25  C   UNL d   1      59.294   0.523  28.986  0.00  0.00     0.019 A 
ENDBRANCH   1  20
TORSDOF 5
ENDMDL
MODEL 4
REMARK VINA RESULT:      -0.0      1.745      5.049
REMARK  5 active torsions:
REMARK  status: ('A' for Active; 'I' for Inactive)
REMARK    1  A    between atoms: C_12  and  N_1 
REMARK    2  A    between atoms: N_7  and  C_5 
REMARK    3  A    between atoms: C_10  and  N_7 
REMARK    4  A    between atoms: O_14  and  C_13 
REMARK    5  A    between atoms: C_19  and  O_14 
ROOT
ATOM      1  N   UNL d   1      56.463   0.598  33.801  0.00  0.00    -0.212 N 
ATOM      2  C   UNL d   1      56.453   0.622  32.975  0.00  0.00     0.170 A 
ATOM      3  C   UNL d   1      57.234   0.639  32.712  0.00  0.00     0.093 A 
ATOM      4  N   UNL d   1      57.255   0.599  34.047  0.00  0.00    -0.162 NA
ATOM      5  C   UNL d   1      57.399   0.664  31.899  0.00  0.00     0.169 A 
ATOM      6  C   UNL d   1      57.728   0.625  33.370  0.00  0.00     0.127 A 
ATOM      7  N   UNL d   1      55.825   0.631  32.432  0.00  0.00    -0.205 NA
ATOM      8  N   UNL d   1      56.772   0.673  31.356  0.00  0.00    -0.205 NA
ATOM      9  C   UNL d   1      55.993   0.657  31.627  0.00  0.00     0.202 A 
ENDROOT
BRANCH   5  10
ATOM     10  N   UNL d   1      58.171   0.681  31.631  0.00  0.00    -0.225 NA
BRANCH  10  11
ATOM     11  C   UNL d   1      58.331   0.582  30.836  0.00  0.00     0.106 A 
ATOM     12  C   UNL d   1      59.113   0.552  30.564  0.00  0.00     0.118 A 
ATOM     13  C   UNL d   1      59.276   0.454  29.772  0.00  0.00     0.026 A 
ATOM     14  C   UNL d   1      58.643   0.382  29.228  0.00  0.00     0.002 A 
ATOM     15  C   UNL d   1      57.877   0.410  29.487  0.00  0.00     0.002 A 
ATOM     16  C   UNL d   1      57.713   0.511  30.294  0.00  0.00     0.021 A 
BRANCH  12  17
ATOM     17  O   UNL d   1      59.732   0.624  31.106  0.00  0.00    -0.304 OA
BRANCH  17  18
ATOM     18  C   UNL d   1      60.517   0.545  30.850  0.00  0.00     0.123 C 
ATOM     19  C   UNL d   1      61.128   0.550  31.400  0.00  0.00     0.029 C 
ENDBRANCH  17  18
ENDBRANCH  12  17
ENDBRANCH  10  11
ENDBRANCH   5  10
BRANCH   1  20
ATOM     20  C   UNL d   1      55.801   0.576  34.295  0.00  0.00     0.085 A 
ATOM     21  C   UNL d   1      55.044   0.682  33.974  0.00  0.00     0.019 A 
ATOM     22  C   UNL d   1      54.385   0.660  34.465  0.00  0.00     0.002 A 
ATOM     23  C   UNL d   1      54.477   0.532  35.282  0.00  0.00     0.000 A 
ATOM     24  C   UNL d   1      55.227   0.427  35.598  0.00  0.00     0.002 A 
ATOM     25  C   UNL d   1      55.893   0.448  35.113  0.00  0.00     0.019 A 
ENDBRANCH   1  20
TORSDOF 5
ENDMDL
MODEL 5
REMARK VINA RESULT:       0.8      1.457      5.026
REMARK  5 active torsions:
REMARK  status: ('A' for Active; 'I' for Inactive)
REMARK    1  A    between atoms: C_12  and  N_1 
REMARK    2  A    between atoms: N_7  and  C_5 
REMARK    3  A    between atoms: C_10  and  N_7 
REMARK    4  A    between atoms: O_14  and  C_13 
REMARK    5  A    between atoms: C_19  and  O_14 
ROOT
ATOM      1  N   UNL d   1      56.194  -0.336  32.735  0.00  0.00    -0.212 N 
ATOM      2  C   UNL d   1      56.881  -0.075  32.359  0.00  0.00     0.170 A 
ATOM      3  C   UNL d   1      57.027  -0.574  31.719  0.00  0.00     0.093 A 
ATOM      4  N   UNL d   1      55.914  -1.000  32.323  0.00  0.00    -0.162 NA
ATOM      5  C   UNL d   1      57.687  -0.446  31.233  0.00  0.00     0.169 A 
ATOM      6  C   UNL d   1      56.433  -1.143  31.696  0.00  0.00     0.127 A 
ATOM      7  N   UNL d   1      57.392   0.559  32.524  0.00  0.00    -0.205 NA
ATOM      8  N   UNL d   1      58.198   0.187  31.398  0.00  0.00    -0.205 NA
ATOM      9  C   UNL d   1      58.046   0.682  32.040  0.00  0.00     0.202 A 
ENDROOT
BRANCH   5  10
ATOM     10  N   UNL d   1      57.838  -0.937  30.597  0.00  0.00    -0.225 NA
BRANCH  10  11
ATOM     11  C   UNL d   1      58.140  -0.628  29.904  0.00  0.00     0.106 A 
ATOM     12  C   UNL d   1      58.593  -1.100  29.395  0.00  0.00     0.118 A 
ATOM     13  C   UNL d   1      58.895  -0.795  28.702  0.00  0.00     0.026 A 
ATOM     14  C   UNL d   1      58.745   0.005  28.505  0.00  0.00     0.002 A 
ATOM     15  C   UNL d   1      58.303   0.471  28.998  0.00  0.00     0.002 A 
ATOM     16  C   UNL d   1      57.996   0.159  29.703  0.00  0.00     0.021 A 
BRANCH  12  17
ATOM     17  O   UNL d   1      58.737  -1.887  29.596  0.00  0.00    -0.304 OA
BRANCH  17  18
ATOM     18  C   UNL d   1      59.105  -2.393  29.050  0.00  0.00     0.123 C 
ATOM     19  C   UNL d   1      58.890  -3.186  29.019  0.00  0.00     0.029 C 
ENDBRANCH  17  18
ENDBRANCH  12  17
ENDBRANCH  10  11
ENDBRANCH   5  10
BRANCH   1  20
ATOM     20  C   UNL d   1      55.844   0.003  33.403  0.00  0.00     0.085 A 
ATOM     21  C   UNL d   1      56.251   0.003  34.125  0.00  0.00     0.019 A 
ATOM     22  C   UNL d   1      55.905   0.340  34.790  0.00  0.00     0.002 A 
ATOM     23  C   UNL d   1      55.148   0.681  34.738  0.00  0.00     0.000 A 
ATOM     24  C   UNL d   1      54.747   0.681  34.023  0.00  0.00     0.002 A 
ATOM     25  C   UNL d   1      55.087   0.345  33.351  0.00  0.00     0.019 A 
ENDBRANCH   1  20
TORSDOF 5
ENDMDL
