MODEL 1
REMARK VINA RESULT:      -8.0      0.000      0.000
REMARK  9 active torsions:
REMARK  status: ('A' for Active; 'I' for Inactive)
REMARK    1  A    between atoms: C_12  and  N_1 
REMARK    2  A    between atoms: S_7  and  C_2 
REMARK    3  A    between atoms: C_15  and  S_7 
REMARK    4  A    between atoms: C_9  and  C_15 
REMARK    5  A    between atoms: O_14  and  C_9 
REMARK       I    between atoms: C_10  and  N_16 
REMARK    6  A    between atoms: C_19  and  C_12 
REMARK    7  A    between atoms: C_18  and  O_14 
REMARK    8  A    between atoms: N_16  and  C_19 
REMARK    9  A    between atoms: C_20  and  C_18 
ROOT
ATOM      1  N   UNL d   1      53.121  32.699  53.432  0.00  0.00    -0.251 N 
ATOM      2  C   UNL d   1      52.595  33.328  53.529  0.00  0.00     0.182 A 
ATOM      3  C   UNL d   1      53.837  32.682  53.855  0.00  0.00     0.268 A 
ATOM      4  N   UNL d   1      52.777  33.947  54.051  0.00  0.00    -0.222 NA
ATOM      5  C   UNL d   1      54.016  33.303  54.377  0.00  0.00     0.074 A 
ATOM      6  C   UNL d   1      53.491  33.931  54.474  0.00  0.00     0.088 A 
ATOM      7  O   UNL d   1      54.368  32.046  53.757  0.00  0.00    -0.267 OA
ATOM      8  C   UNL d   1      54.734  33.286  54.801  0.00  0.00     0.006 A 
ATOM      9  C   UNL d   1      53.674  34.552  54.997  0.00  0.00     0.019 A 
ATOM     10  C   UNL d   1      54.914  33.908  55.323  0.00  0.00     0.000 A 
ATOM     11  C   UNL d   1      54.388  34.536  55.421  0.00  0.00     0.002 A 
ENDROOT
BRANCH   2  12
ATOM     12  S   UNL d   1      51.870  33.348  53.102  0.00  0.00    -0.044 SA
BRANCH  12  13
ATOM     13  C   UNL d   1      51.341  33.994  53.191  0.00  0.00     0.107 C 
BRANCH  13  14
ATOM     14  C   UNL d   1      50.752  34.125  52.629  0.00  0.00     0.307 C 
ATOM     15  O   UNL d   1      50.871  33.899  51.845  0.00  0.00    -0.258 OA
BRANCH  14  16
ATOM     16  O   UNL d   1      50.038  34.485  52.858  0.00  0.00    -0.271 OA
BRANCH  16  17
ATOM     17  C   UNL d   1      49.589  34.887  52.295  0.00  0.00     0.126 C 
BRANCH  17  18
ATOM     18  C   UNL d   1      48.900  35.272  52.524  0.00  0.00     0.025 A 
ATOM     19  C   UNL d   1      48.847  35.619  53.270  0.00  0.00     0.002 A 
ATOM     20  C   UNL d   1      48.161  36.002  53.500  0.00  0.00     0.000 A 
ATOM     21  C   UNL d   1      47.517  36.044  52.985  0.00  0.00     0.000 A 
ATOM     22  C   UNL d   1      47.569  35.694  52.232  0.00  0.00     0.000 A 
ATOM     23  C   UNL d   1      48.262  35.309  52.006  0.00  0.00     0.002 A 
ENDBRANCH  17  18
ENDBRANCH  16  17
ENDBRANCH  14  16
ENDBRANCH  13  14
ENDBRANCH  12  13
ENDBRANCH   2  12
BRANCH   1  24
ATOM     24  C   UNL d   1      52.936  32.075  52.905  0.00  0.00     0.106 C 
BRANCH  24  25
ATOM     25  C   UNL d   1      52.806  31.310  53.183  0.00  0.00     0.121 C 
BRANCH  25  26
ATOM     26  N   UNL d   1      52.818  30.655  52.670  0.00  0.00    -0.205 NA
ATOM     27  C   UNL d   1      52.597  29.903  52.943  0.00  0.00     0.280 C 
ATOM     28  O   UNL d   1      52.363  29.801  53.728  0.00  0.00    -0.265 OA
ATOM     29  C   UNL d   1      52.612  29.258  52.431  0.00  0.00     0.068 C 
ENDBRANCH  25  26
ENDBRANCH  24  25
ENDBRANCH   1  24
TORSDOF 9
ENDMDL
MODEL 2
REMARK VINA RESULT:      -7.8      1.146      2.965
REMARK  9 active torsions:
REMARK  status: ('A' for Active; 'I' for Inactive)
REMARK    1  A    between atoms: C_12  and  N_1 
REMARK    2  A    between atoms: S_7  and  C_2 
REMARK    3  A    between atoms: C_15  and  S_7 
REMARK    4  A    between atoms: C_9  and  C_15 
REMARK    5  A    between atoms: O_14  and  C_9 
REMARK       I    between atoms: C_10  and  N_16 
REMARK    6  A    between atoms: C_19  and  C_12 
REMARK    7  A    between atoms: C_18  and  O_14 
REMARK    8  A    between atoms: N_16  and  C_19 
REMARK    9  A    between atoms: C_20  and  C_18 
ROOT
ATOM      1  N   UNL d   1      53.061  33.270  53.240  0.00  0.00    -0.251 N 
ATOM      2  C   UNL d   1      52.340  33.090  52.882  0.00  0.00     0.182 A 
ATOM      3  C   UNL d   1      53.565  32.661  53.498  0.00  0.00     0.268 A 
ATOM      4  N   UNL d   1      52.113  32.298  52.777  0.00  0.00    -0.222 NA
ATOM      5  C   UNL d   1      53.336  31.870  53.392  0.00  0.00     0.074 A 
ATOM      6  C   UNL d   1      52.614  31.690  53.034  0.00  0.00     0.088 A 
ATOM      7  O   UNL d   1      54.295  32.843  53.860  0.00  0.00    -0.267 OA
ATOM      8  C   UNL d   1      53.841  31.259  53.650  0.00  0.00     0.006 A 
ATOM      9  C   UNL d   1      52.388  30.896  52.929  0.00  0.00     0.019 A 
ATOM     10  C   UNL d   1      53.611  30.466  53.543  0.00  0.00     0.000 A 
ATOM     11  C   UNL d   1      52.890  30.286  53.186  0.00  0.00     0.002 A 
ENDROOT
BRANCH   2  12
ATOM     12  S   UNL d   1      51.828  33.704  52.621  0.00  0.00    -0.044 SA
BRANCH  12  13
ATOM     13  C   UNL d   1      51.004  33.565  52.535  0.00  0.00     0.107 C 
BRANCH  13  14
ATOM     14  C   UNL d   1      50.538  34.096  52.108  0.00  0.00     0.307 C 
ATOM     15  O   UNL d   1      50.701  34.243  51.314  0.00  0.00    -0.258 OA
BRANCH  14  16
ATOM     16  O   UNL d   1      49.905  34.481  52.486  0.00  0.00    -0.271 OA
BRANCH  16  17
ATOM     17  C   UNL d   1      49.279  34.769  52.033  0.00  0.00     0.126 C 
BRANCH  17  18
ATOM     18  C   UNL d   1      48.712  35.250  52.383  0.00  0.00     0.025 A 
ATOM     19  C   UNL d   1      48.807  35.504  53.161  0.00  0.00     0.002 A 
ATOM     20  C   UNL d   1      48.242  35.983  53.511  0.00  0.00     0.000 A 
ATOM     21  C   UNL d   1      47.574  36.215  53.086  0.00  0.00     0.000 A 
ATOM     22  C   UNL d   1      47.476  35.959  52.300  0.00  0.00     0.000 A 
ATOM     23  C   UNL d   1      48.049  35.477  51.953  0.00  0.00     0.002 A 
ENDBRANCH  17  18
ENDBRANCH  16  17
ENDBRANCH  14  16
ENDBRANCH  13  14
ENDBRANCH  12  13
ENDBRANCH   2  12
BRANCH   1  24
ATOM     24  C   UNL d   1      53.289  34.069  53.346  0.00  0.00     0.106 C 
BRANCH  24  25
ATOM     25  C   UNL d   1      53.211  34.440  54.078  0.00  0.00     0.121 C 
BRANCH  25  26
ATOM     26  N   UNL d   1      53.222  35.269  54.147  0.00  0.00    -0.205 NA
ATOM     27  C   UNL d   1      53.208  35.629  54.895  0.00  0.00     0.280 C 
ATOM     28  O   UNL d   1      53.182  35.163  55.576  0.00  0.00    -0.265 OA
ATOM     29  C   UNL d   1      53.219  36.450  54.957  0.00  0.00     0.068 C 
ENDBRANCH  25  26
ENDBRANCH  24  25
ENDBRANCH   1  24
TORSDOF 9
ENDMDL
MODEL 3
REMARK VINA RESULT:      -6.8      1.552      5.338
REMARK  9 active torsions:
REMARK  status: ('A' for Active; 'I' for Inactive)
REMARK    1  A    between atoms: C_12  and  N_1 
REMARK    2  A    between atoms: S_7  and  C_2 
REMARK    3  A    between atoms: C_15  and  S_7 
REMARK    4  A    between atoms: C_9  and  C_15 
REMARK    5  A    between atoms: O_14  and  C_9 
REMARK       I    between atoms: C_10  and  N_16 
REMARK    6  A    between atoms: C_19  and  C_12 
REMARK    7  A    between atoms: C_18  and  O_14 
REMARK    8  A    between atoms: N_16  and  C_19 
REMARK    9  A    between atoms: C_20  and  C_18 
ROOT
ATOM      1  N   UNL d   1      52.602  33.708  53.259  0.00  0.00    -0.251 N 
ATOM      2  C   UNL d   1      52.279  33.008  52.966  0.00  0.00     0.182 A 
ATOM      3  C   UNL d   1      52.129  34.388  53.337  0.00  0.00     0.268 A 
ATOM      4  N   UNL d   1      51.478  32.978  52.746  0.00  0.00    -0.222 NA
ATOM      5  C   UNL d   1      51.329  34.355  53.116  0.00  0.00     0.074 A 
ATOM      6  C   UNL d   1      51.006  33.655  52.823  0.00  0.00     0.088 A 
ATOM      7  O   UNL d   1      52.456  35.096  53.633  0.00  0.00    -0.267 OA
ATOM      8  C   UNL d   1      50.855  35.036  53.194  0.00  0.00     0.006 A 
ATOM      9  C   UNL d   1      50.204  33.626  52.603  0.00  0.00     0.019 A 
ATOM     10  C   UNL d   1      50.054  35.004  52.973  0.00  0.00     0.000 A 
ATOM     11  C   UNL d   1      49.730  34.304  52.680  0.00  0.00     0.002 A 
ENDROOT
BRANCH   2  12
ATOM     12  S   UNL d   1      52.754  32.318  52.886  0.00  0.00    -0.044 SA
BRANCH  12  13
ATOM     13  C   UNL d   1      52.399  31.558  52.841  0.00  0.00     0.107 C 
BRANCH  13  14
ATOM     14  C   UNL d   1      52.873  30.885  52.791  0.00  0.00     0.307 C 
ATOM     15  O   UNL d   1      53.126  30.610  52.057  0.00  0.00    -0.258 OA
BRANCH  14  16
ATOM     16  O   UNL d   1      53.093  30.485  53.487  0.00  0.00    -0.271 OA
BRANCH  16  17
ATOM     17  C   UNL d   1      53.058  29.662  53.509  0.00  0.00     0.126 C 
BRANCH  17  18
ATOM     18  C   UNL d   1      53.204  29.268  54.216  0.00  0.00     0.025 A 
ATOM     19  C   UNL d   1      52.977  29.606  54.933  0.00  0.00     0.002 A 
ATOM     20  C   UNL d   1      53.122  29.214  55.638  0.00  0.00     0.000 A 
ATOM     21  C   UNL d   1      53.497  28.479  55.634  0.00  0.00     0.000 A 
ATOM     22  C   UNL d   1      53.727  28.137  54.911  0.00  0.00     0.000 A 
ATOM     23  C   UNL d   1      53.578  28.536  54.204  0.00  0.00     0.002 A 
ENDBRANCH  17  18
ENDBRANCH  16  17
ENDBRANCH  14  16
ENDBRANCH  13  14
ENDBRANCH  12  13
ENDBRANCH   2  12
BRANCH   1  24
ATOM     24  C   UNL d   1      53.409  33.737  53.480  0.00  0.00     0.106 C 
BRANCH  24  25
ATOM     25  C   UNL d   1      53.634  33.690  54.272  0.00  0.00     0.121 C 
BRANCH  25  26
ATOM     26  N   UNL d   1      54.393  33.924  54.521  0.00  0.00    -0.205 NA
ATOM     27  C   UNL d   1      54.734  33.590  55.201  0.00  0.00     0.280 C 
ATOM     28  O   UNL d   1      54.320  33.023  55.633  0.00  0.00    -0.265 OA
ATOM     29  C   UNL d   1      55.485  33.826  55.442  0.00  0.00     0.068 C 
ENDBRANCH  25  26
ENDBRANCH  24  25
ENDBRANCH   1  24
TORSDOF 9
ENDMDL
MODEL 4
REMARK VINA RESULT:      -6.7      1.485      4.995
REMARK  9 active torsions:
REMARK  status: ('A' for Active; 'I' for Inactive)
REMARK    1  A    between atoms: C_12  and  N_1 
REMARK    2  A    between atoms: S_7  and  C_2 
REMARK    3  A    between atoms: C_15  and  S_7 
REMARK    4  A    between atoms: C_9  and  C_15 
REMARK    5  A    between atoms: O_14  and  C_9 
REMARK       I    between atoms: C_10  and  N_16 
REMARK    6  A    between atoms: C_19  and  C_12 
REMARK    7  A    between atoms: C_18  and  O_14 
REMARK    8  A    between atoms: N_16  and  C_19 
REMARK    9  A    between atoms: C_20  and  C_18 
ROOT
ATOM      1  N   UNL d   1      52.858  33.775  53.378  0.00  0.00    -0.251 N 
ATOM      2  C   UNL d   1      53.126  33.002  53.485  0.00  0.00     0.182 A 
ATOM      3  C   UNL d   1      53.156  34.392  53.849  0.00  0.00     0.268 A 
ATOM      4  N   UNL d   1      53.696  32.835  54.065  0.00  0.00    -0.222 NA
ATOM      5  C   UNL d   1      53.726  34.222  54.429  0.00  0.00     0.074 A 
ATOM      6  C   UNL d   1      53.994  33.449  54.536  0.00  0.00     0.088 A 
ATOM      7  O   UNL d   1      52.885  35.173  53.741  0.00  0.00    -0.267 OA
ATOM      8  C   UNL d   1      54.026  34.839  54.902  0.00  0.00     0.006 A 
ATOM      9  C   UNL d   1      54.565  33.282  55.118  0.00  0.00     0.019 A 
ATOM     10  C   UNL d   1      54.596  34.670  55.483  0.00  0.00     0.000 A 
ATOM     11  C   UNL d   1      54.864  33.897  55.590  0.00  0.00     0.002 A 
ENDROOT
BRANCH   2  12
ATOM     12  S   UNL d   1      52.826  32.376  53.009  0.00  0.00    -0.044 SA
BRANCH  12  13
ATOM     13  C   UNL d   1      53.249  31.654  52.938  0.00  0.00     0.107 C 
BRANCH  13  14
ATOM     14  C   UNL d   1      52.839  30.944  52.845  0.00  0.00     0.307 C 
ATOM     15  O   UNL d   1      52.506  30.751  52.117  0.00  0.00    -0.258 OA
BRANCH  14  16
ATOM     16  O   UNL d   1      52.766  30.425  53.492  0.00  0.00    -0.271 OA
BRANCH  16  17
ATOM     17  C   UNL d   1      53.144  29.693  53.468  0.00  0.00     0.126 C 
BRANCH  17  18
ATOM     18  C   UNL d   1      53.244  29.265  54.163  0.00  0.00     0.025 A 
ATOM     19  C   UNL d   1      52.944  29.554  54.874  0.00  0.00     0.002 A 
ATOM     20  C   UNL d   1      53.043  29.128  55.567  0.00  0.00     0.000 A 
ATOM     21  C   UNL d   1      53.444  28.407  55.556  0.00  0.00     0.000 A 
ATOM     22  C   UNL d   1      53.747  28.114  54.839  0.00  0.00     0.000 A 
ATOM     23  C   UNL d   1      53.644  28.547  54.144  0.00  0.00     0.002 A 
ENDBRANCH  17  18
ENDBRANCH  16  17
ENDBRANCH  14  16
ENDBRANCH  13  14
ENDBRANCH  12  13
ENDBRANCH   2  12
BRANCH   1  24
ATOM     24  C   UNL d   1      52.283  33.943  52.792  0.00  0.00     0.106 C 
BRANCH  24  25
ATOM     25  C   UNL d   1      51.507  34.125  52.999  0.00  0.00     0.121 C 
BRANCH  25  26
ATOM     26  N   UNL d   1      50.917  34.231  52.421  0.00  0.00    -0.205 NA
ATOM     27  C   UNL d   1      50.141  34.425  52.642  0.00  0.00     0.280 C 
ATOM     28  O   UNL d   1      49.950  34.515  53.440  0.00  0.00    -0.265 OA
ATOM     29  C   UNL d   1      49.562  34.529  52.066  0.00  0.00     0.068 C 
ENDBRANCH  25  26
ENDBRANCH  24  25
ENDBRANCH   1  24
TORSDOF 9
ENDMDL
