MODEL 1
REMARK VINA RESULT:      53.1      0.000      0.000
REMARK  5 active torsions:
REMARK  status: ('A' for Active; 'I' for Inactive)
REMARK    1  A    between atoms: S_6  and  C_2 
REMARK    2  A    between atoms: C_8  and  C_4 
REMARK    3  A    between atoms: C_11  and  S_6 
REMARK    4  A    between atoms: C_7  and  C_11 
REMARK       I    between atoms: N_9  and  C_7 
REMARK    5  A    between atoms: C_15  and  N_9 
ROOT
ATOM      1  N   UNL d   1     -57.668 -98.894 -43.697  0.00  0.00    -0.244 NA
ATOM      2  C   UNL d   1     -57.691 -98.842 -44.523  0.00  0.00     0.125 A 
ATOM      3  N   UNL d   1     -58.942 -98.970 -44.083  0.00  0.00    -0.250 NA
ATOM      4  C   UNL d   1     -58.459 -98.887 -44.756  0.00  0.00     0.101 A 
ATOM      5  C   UNL d   1     -58.433 -98.978 -43.343  0.00  0.00     0.168 A 
ATOM      6  C   UNL d   1     -59.205 -99.060 -43.036  0.00  0.00     0.050 C 
ATOM      7  C   UNL d   1     -57.781 -98.961 -42.825  0.00  0.00     0.050 C 
ENDROOT
BRANCH   2   8
ATOM      8  S   UNL d   1     -57.034 -98.756 -45.027  0.00  0.00    -0.061 SA
BRANCH   8   9
ATOM      9  C   UNL d   1     -56.315 -99.107 -44.829  0.00  0.00     0.099 C 
BRANCH   9  10
ATOM     10  C   UNL d   1     -55.793 -99.331 -45.417  0.00  0.00     0.286 C 
ATOM     11  N   UNL d   1     -55.248 -99.923 -45.281  0.00  0.00    -0.208 NA
ATOM     12  O   UNL d   1     -55.819 -98.955 -46.145  0.00  0.00    -0.265 OA
BRANCH  11  13
ATOM     13  C   UNL d   1     -55.222-100.295 -44.561  0.00  0.00     0.085 A 
ATOM     14  C   UNL d   1     -55.363-101.096 -44.515  0.00  0.00     0.019 A 
ATOM     15  C   UNL d   1     -55.339-101.487 -43.786  0.00  0.00     0.002 A 
ATOM     16  C   UNL d   1     -55.170-101.060 -43.107  0.00  0.00     0.000 A 
ATOM     17  C   UNL d   1     -55.026-100.251 -43.150  0.00  0.00     0.002 A 
ATOM     18  C   UNL d   1     -55.052 -99.872 -43.874  0.00  0.00     0.019 A 
ENDBRANCH  11  13
ENDBRANCH   9  10
ENDBRANCH   8   9
ENDBRANCH   2   8
BRANCH   4  19
ATOM     19  C   UNL d   1     -58.774 -98.862 -45.519  0.00  0.00     0.019 A 
ATOM     20  C   UNL d   1     -58.269 -98.841 -46.176  0.00  0.00     0.002 A 
ATOM     21  C   UNL d   1     -58.579 -98.816 -46.929  0.00  0.00     0.011 A 
ATOM     22  C   UNL d   1     -59.413 -98.811 -47.048  0.00  0.00     0.058 A 
ATOM     23  C   UNL d   1     -59.894 -98.830 -46.410  0.00  0.00     0.011 A 
ATOM     24 CL   UNL d   1     -59.729 -98.785 -47.820  0.00  0.00    -0.082 Cl
ATOM     25  C   UNL d   1     -59.592 -98.856 -45.633  0.00  0.00     0.002 A 
ENDBRANCH   4  19
TORSDOF 5
ENDMDL
