MODEL 1
REMARK VINA RESULT:      -7.3      0.000      0.000
REMARK  3 active torsions:
REMARK  status: ('A' for Active; 'I' for Inactive)
REMARK    1  A    between atoms: N_5  and  C_2 
REMARK    2  A    between atoms: C_8  and  C_3 
REMARK       I    between atoms: C_7  and  N_5 
REMARK    3  A    between atoms: C_10  and  C_7 
ROOT
ATOM      1  N   UNL d   1     -48.317  13.989  23.027  0.00  0.00    -0.200 NA
ATOM      2  C   UNL d   1     -48.812  14.361  22.484  0.00  0.00     0.216 A 
ATOM      3  C   UNL d   1     -48.087  13.258  22.699  0.00  0.00     0.172 A 
ATOM      4  N   UNL d   1     -48.451  13.198  21.953  0.00  0.00    -0.187 NA
ATOM      5  S   UNL d   1     -48.896  13.884  21.831  0.00  0.00     0.054 SA
ENDROOT
BRANCH   2   6
ATOM      6  N   UNL d   1     -49.172  15.110  22.586  0.00  0.00    -0.181 NA
ATOM      7  C   UNL d   1     -49.964  15.175  22.795  0.00  0.00     0.281 C 
ATOM      8  O   UNL d   1     -50.303  15.920  22.891  0.00  0.00    -0.265 OA
BRANCH   7   9
ATOM      9  C   UNL d   1     -50.415  14.495  22.908  0.00  0.00     0.058 C 
ATOM     10  C   UNL d   1     -50.803  14.142  22.272  0.00  0.00     0.005 C 
ATOM     11  C   UNL d   1     -50.479  14.167  23.662  0.00  0.00     0.005 C 
ENDBRANCH   7   9
ENDBRANCH   2   6
BRANCH   3  12
ATOM     12  C   UNL d   1     -47.595  12.680  23.022  0.00  0.00     0.036 A 
ATOM     13  C   UNL d   1     -47.922  12.002  23.374  0.00  0.00     0.003 A 
ATOM     14  C   UNL d   1     -47.430  11.424  23.698  0.00  0.00     0.000 A 
ATOM     15  C   UNL d   1     -46.605  11.520  23.674  0.00  0.00     0.000 A 
ATOM     16  C   UNL d   1     -46.278  12.197  23.322  0.00  0.00     0.000 A 
ATOM     17  C   UNL d   1     -46.770  12.776  22.998  0.00  0.00     0.003 A 
ENDBRANCH   3  12
TORSDOF 3
ENDMDL
MODEL 2
REMARK VINA RESULT:      -7.2      1.711      3.826
REMARK  3 active torsions:
REMARK  status: ('A' for Active; 'I' for Inactive)
REMARK    1  A    between atoms: N_5  and  C_2 
REMARK    2  A    between atoms: C_8  and  C_3 
REMARK       I    between atoms: C_7  and  N_5 
REMARK    3  A    between atoms: C_10  and  C_7 
ROOT
ATOM      1  N   UNL d   1     -48.304  13.338  23.417  0.00  0.00    -0.200 NA
ATOM      2  C   UNL d   1     -47.841  12.824  22.972  0.00  0.00     0.216 A 
ATOM      3  C   UNL d   1     -48.828  13.723  22.894  0.00  0.00     0.172 A 
ATOM      4  N   UNL d   1     -48.671  13.431  22.131  0.00  0.00    -0.187 NA
ATOM      5  S   UNL d   1     -48.061  12.877  22.190  0.00  0.00     0.054 SA
ENDROOT
BRANCH   2   6
ATOM      6  N   UNL d   1     -47.239  12.325  23.272  0.00  0.00    -0.181 NA
ATOM      7  C   UNL d   1     -46.448  12.536  23.220  0.00  0.00     0.281 C 
ATOM      8  O   UNL d   1     -45.868  12.033  23.521  0.00  0.00    -0.265 OA
BRANCH   7   9
ATOM      9  C   UNL d   1     -46.236  13.251  22.868  0.00  0.00     0.058 C 
ATOM     10  C   UNL d   1     -46.177  13.937  23.321  0.00  0.00     0.005 C 
ATOM     11  C   UNL d   1     -46.083  13.277  22.058  0.00  0.00     0.005 C 
ENDBRANCH   7   9
ENDBRANCH   2   6
BRANCH   3  12
ATOM     12  C   UNL d   1     -49.404  14.288  23.066  0.00  0.00     0.036 A 
ATOM     13  C   UNL d   1     -49.276  15.087  22.873  0.00  0.00     0.003 A 
ATOM     14  C   UNL d   1     -49.851  15.652  23.045  0.00  0.00     0.000 A 
ATOM     15  C   UNL d   1     -50.561  15.425  23.411  0.00  0.00     0.000 A 
ATOM     16  C   UNL d   1     -50.689  14.627  23.605  0.00  0.00     0.000 A 
ATOM     17  C   UNL d   1     -50.113  14.061  23.433  0.00  0.00     0.003 A 
ENDBRANCH   3  12
TORSDOF 3
ENDMDL
