MODEL 1
REMARK VINA RESULT:      83.4      0.000      0.000
REMARK  5 active torsions:
REMARK  status: ('A' for Active; 'I' for Inactive)
REMARK    1  A    between atoms: C_14  and  N_4 
REMARK    2  A    between atoms: C_15  and  C_9 
REMARK    3  A    between atoms: O_18  and  C_12 
REMARK    4  A    between atoms: O_19  and  C_13 
REMARK    5  A    between atoms: C_16  and  C_14 
ROOT
ATOM      1  C   UNL d   1     -58.655 -98.807 -44.247  0.00  0.00     0.056 A 
ATOM      2  C   UNL d   1     -59.140 -98.826 -44.921  0.00  0.00     0.107 A 
ATOM      3  C   UNL d   1     -58.804 -98.822 -45.672  0.00  0.00     0.038 A 
ATOM      4  N   UNL d   1     -57.499 -98.782 -45.093  0.00  0.00    -0.304 N 
ATOM      5  N   UNL d   1     -59.921 -98.845 -44.663  0.00  0.00    -0.148 NA
ATOM      6  C   UNL d   1     -57.835 -98.786 -44.333  0.00  0.00     0.083 A 
ATOM      7  N   UNL d   1     -59.919 -98.839 -43.838  0.00  0.00    -0.148 NA
ATOM      8  C   UNL d   1     -57.984 -98.800 -45.758  0.00  0.00     0.068 A 
ATOM      9  C   UNL d   1     -59.142 -98.816 -43.576  0.00  0.00     0.106 A 
ATOM     10  C   UNL d   1     -57.648 -98.796 -46.511  0.00  0.00     0.044 A 
ATOM     11  C   UNL d   1     -59.288 -98.840 -46.338  0.00  0.00     0.029 A 
ATOM     12  C   UNL d   1     -58.133 -98.815 -47.176  0.00  0.00     0.118 A 
ATOM     13  C   UNL d   1     -58.953 -98.837 -47.089  0.00  0.00     0.116 A 
ENDROOT
BRANCH   4  14
ATOM     14  C   UNL d   1     -56.679 -98.760 -45.180  0.00  0.00     0.080 C 
BRANCH  14  15
ATOM     15  C   UNL d   1     -56.217 -99.370 -44.876  0.00  0.00     0.018 A 
ATOM     16  C   UNL d   1     -56.576-100.009 -44.481  0.00  0.00     0.004 A 
ATOM     17  C   UNL d   1     -56.115-100.619 -44.177  0.00  0.00     0.030 A 
ATOM     18  C   UNL d   1     -55.285-100.601 -44.262  0.00  0.00     0.140 A 
ATOM     19  C   UNL d   1     -54.926 -99.962 -44.657  0.00  0.00     0.030 A 
ATOM     20  F   UNL d   1     -54.814-101.219 -43.954  0.00  0.00    -0.204 F 
ATOM     21  C   UNL d   1     -55.391 -99.351 -44.962  0.00  0.00     0.004 A 
ENDBRANCH  14  15
ENDBRANCH   4  14
BRANCH   9  22
ATOM     22  C   UNL d   1     -58.978 -98.805 -42.767  0.00  0.00     0.019 A 
ATOM     23  C   UNL d   1     -59.595 -98.768 -42.223  0.00  0.00     0.002 A 
ATOM     24  C   UNL d   1     -59.426 -98.758 -41.412  0.00  0.00     0.000 A 
ATOM     25  C   UNL d   1     -58.640 -98.785 -41.147  0.00  0.00     0.000 A 
ATOM     26  C   UNL d   1     -58.025 -98.822 -41.700  0.00  0.00     0.000 A 
ATOM     27  C   UNL d   1     -58.193 -98.832 -42.506  0.00  0.00     0.002 A 
ENDBRANCH   9  22
BRANCH  12  28
ATOM     28  O   UNL d   1     -57.786 -98.811 -47.941  0.00  0.00    -0.326 OA
ATOM     29  C   UNL d   1     -58.269 -98.774 -48.611  0.00  0.00     0.181 C 
ENDBRANCH  12  28
BRANCH  13  30
ATOM     30  O   UNL d   1     -59.438 -98.855 -47.767  0.00  0.00    -0.326 OA
ATOM     31  C   UNL d   1     -59.116 -99.072 -48.499  0.00  0.00     0.181 C 
ENDBRANCH  13  30
TORSDOF 5
ENDMDL
