MODEL 1
REMARK VINA RESULT:      -3.6      0.000      0.000
REMARK  5 active torsions:
REMARK  status: ('A' for Active; 'I' for Inactive)
REMARK    1  A    between atoms: C_13  and  N_2 
REMARK    2  A    between atoms: C_10  and  N_4 
REMARK    3  A    between atoms: C_11  and  C_10 
REMARK       I    between atoms: N_15  and  C_11 
REMARK    4  A    between atoms: C_16  and  N_15 
REMARK    5  A    between atoms: O_21  and  C_19 
ROOT
ATOM      1  C   UNL d   1     -38.940  14.184  19.980  0.00  0.00     0.172 A 
ATOM      2  N   UNL d   1     -39.845  14.700  18.986  0.00  0.00    -0.226 N 
ATOM      3  C   UNL d   1     -40.439  14.760  19.584  0.00  0.00     0.342 A 
ATOM      4  N   UNL d   1     -40.274  14.535  20.352  0.00  0.00    -0.252 N 
ATOM      5  C   UNL d   1     -39.532  14.249  20.552  0.00  0.00     0.098 A 
ATOM      6  C   UNL d   1     -39.101  14.411  19.195  0.00  0.00     0.292 A 
ATOM      7  O   UNL d   1     -38.260  13.885  20.327  0.00  0.00    -0.301 OA
ATOM      8  C   UNL d   1     -39.191  13.983  21.250  0.00  0.00     0.041 A 
ATOM      9  C   UNL d   1     -38.417  13.765  21.098  0.00  0.00     0.102 A 
ATOM     10  O   UNL d   1     -41.205  15.052  19.391  0.00  0.00    -0.245 OA
ATOM     11  O   UNL d   1     -38.505  14.347  18.612  0.00  0.00    -0.264 OA
ATOM     12  C   UNL d   1     -39.503  13.913  22.019  0.00  0.00     0.004 A 
ATOM     13  C   UNL d   1     -37.940  13.473  21.710  0.00  0.00     0.025 A 
ATOM     14  C   UNL d   1     -39.025  13.620  22.632  0.00  0.00     0.000 A 
ATOM     15  C   UNL d   1     -38.254  13.407  22.464  0.00  0.00     0.002 A 
ENDROOT
BRANCH   4  16
ATOM     16  C   UNL d   1     -40.867  14.595  20.949  0.00  0.00     0.147 C 
BRANCH  16  17
ATOM     17  C   UNL d   1     -41.523  14.056  20.936  0.00  0.00     0.297 C 
ATOM     18  N   UNL d   1     -41.989  13.973  21.595  0.00  0.00    -0.207 NA
ATOM     19  O   UNL d   1     -41.674  13.625  20.249  0.00  0.00    -0.264 OA
BRANCH  18  20
ATOM     20  C   UNL d   1     -42.616  13.456  21.581  0.00  0.00     0.087 A 
ATOM     21  C   UNL d   1     -43.392  13.757  21.628  0.00  0.00     0.043 A 
ATOM     22  C   UNL d   1     -44.035  13.237  21.614  0.00  0.00     0.096 A 
ATOM     23  C   UNL d   1     -43.902  12.416  21.554  0.00  0.00     0.024 A 
ATOM     24  C   UNL d   1     -43.128  12.123  21.508  0.00  0.00     0.004 A 
ATOM     25  C   UNL d   1     -42.493  12.641  21.521  0.00  0.00     0.019 A 
BRANCH  22  26
ATOM     26  O   UNL d   1     -44.818  13.528  21.660  0.00  0.00    -0.328 OA
ATOM     27  C   UNL d   1     -45.330  13.237  22.237  0.00  0.00     0.181 C 
ENDBRANCH  22  26
ENDBRANCH  18  20
ENDBRANCH  16  17
ENDBRANCH   4  16
BRANCH   2  28
ATOM     28  C   UNL d   1     -39.999  14.925  18.199  0.00  0.00     0.071 A 
ATOM     29  C   UNL d   1     -40.310  14.378  17.667  0.00  0.00     0.018 A 
ATOM     30  C   UNL d   1     -40.462  14.612  16.882  0.00  0.00     0.002 A 
ATOM     31  C   UNL d   1     -40.303  15.372  16.649  0.00  0.00     0.000 A 
ATOM     32  C   UNL d   1     -39.993  15.919  17.180  0.00  0.00     0.002 A 
ATOM     33  C   UNL d   1     -39.844  15.689  17.950  0.00  0.00     0.018 A 
ENDBRANCH   2  28
TORSDOF 5
ENDMDL
MODEL 2
REMARK VINA RESULT:      -3.4      0.889      3.195
REMARK  5 active torsions:
REMARK  status: ('A' for Active; 'I' for Inactive)
REMARK    1  A    between atoms: C_13  and  N_2 
REMARK    2  A    between atoms: C_10  and  N_4 
REMARK    3  A    between atoms: C_11  and  C_10 
REMARK       I    between atoms: N_15  and  C_11 
REMARK    4  A    between atoms: C_16  and  N_15 
REMARK    5  A    between atoms: O_21  and  C_19 
ROOT
ATOM      1  C   UNL d   1     -39.144  14.142  19.731  0.00  0.00     0.172 A 
ATOM      2  N   UNL d   1     -39.153  14.134  21.170  0.00  0.00    -0.226 N 
ATOM      3  C   UNL d   1     -39.972  14.343  21.149  0.00  0.00     0.342 A 
ATOM      4  N   UNL d   1     -40.351  14.444  20.432  0.00  0.00    -0.252 N 
ATOM      5  C   UNL d   1     -39.943  14.346  19.727  0.00  0.00     0.098 A 
ATOM      6  C   UNL d   1     -38.750  14.037  20.458  0.00  0.00     0.292 A 
ATOM      7  O   UNL d   1     -38.877  14.080  18.959  0.00  0.00    -0.301 OA
ATOM      8  C   UNL d   1     -40.150  14.405  18.935  0.00  0.00     0.041 A 
ATOM      9  C   UNL d   1     -39.491  14.240  18.479  0.00  0.00     0.102 A 
ATOM     10  O   UNL d   1     -40.400  14.446  21.866  0.00  0.00    -0.245 OA
ATOM     11  O   UNL d   1     -37.940  13.830  20.466  0.00  0.00    -0.264 OA
ATOM     12  C   UNL d   1     -40.876  14.592  18.571  0.00  0.00     0.004 A 
ATOM     13  C   UNL d   1     -39.543  14.260  17.651  0.00  0.00     0.025 A 
ATOM     14  C   UNL d   1     -40.928  14.612  17.742  0.00  0.00     0.000 A 
ATOM     15  C   UNL d   1     -40.261  14.445  17.301  0.00  0.00     0.002 A 
ENDROOT
BRANCH   4  16
ATOM     16  C   UNL d   1     -41.168  14.653  20.411  0.00  0.00     0.147 C 
BRANCH  16  17
ATOM     17  C   UNL d   1     -41.717  14.228  20.902  0.00  0.00     0.297 C 
ATOM     18  N   UNL d   1     -42.185  13.652  20.576  0.00  0.00    -0.207 NA
ATOM     19  O   UNL d   1     -41.761  14.413  21.704  0.00  0.00    -0.264 OA
BRANCH  18  20
ATOM     20  C   UNL d   1     -42.709  13.247  21.047  0.00  0.00     0.087 A 
ATOM     21  C   UNL d   1     -43.466  13.568  21.183  0.00  0.00     0.043 A 
ATOM     22  C   UNL d   1     -44.005  13.162  21.662  0.00  0.00     0.096 A 
ATOM     23  C   UNL d   1     -43.786  12.434  22.005  0.00  0.00     0.024 A 
ATOM     24  C   UNL d   1     -43.031  12.120  21.866  0.00  0.00     0.004 A 
ATOM     25  C   UNL d   1     -42.500  12.525  21.391  0.00  0.00     0.019 A 
BRANCH  22  26
ATOM     26  O   UNL d   1     -44.767  13.475  21.804  0.00  0.00    -0.328 OA
ATOM     27  C   UNL d   1     -45.314  13.038  22.239  0.00  0.00     0.181 C 
ENDBRANCH  22  26
ENDBRANCH  18  20
ENDBRANCH  16  17
ENDBRANCH   4  16
BRANCH   2  28
ATOM     28  C   UNL d   1     -38.754  14.027  21.894  0.00  0.00     0.071 A 
ATOM     29  C   UNL d   1     -38.706  13.276  22.232  0.00  0.00     0.018 A 
ATOM     30  C   UNL d   1     -38.305  13.178  22.955  0.00  0.00     0.002 A 
ATOM     31  C   UNL d   1     -37.966  13.817  23.319  0.00  0.00     0.000 A 
ATOM     32  C   UNL d   1     -38.013  14.568  22.982  0.00  0.00     0.002 A 
ATOM     33  C   UNL d   1     -38.406  14.664  22.272  0.00  0.00     0.018 A 
ENDBRANCH   2  28
TORSDOF 5
ENDMDL
MODEL 3
REMARK VINA RESULT:      -1.3      1.234      4.408
REMARK  5 active torsions:
REMARK  status: ('A' for Active; 'I' for Inactive)
REMARK    1  A    between atoms: C_13  and  N_2 
REMARK    2  A    between atoms: C_10  and  N_4 
REMARK    3  A    between atoms: C_11  and  C_10 
REMARK       I    between atoms: N_15  and  C_11 
REMARK    4  A    between atoms: C_16  and  N_15 
REMARK    5  A    between atoms: O_21  and  C_19 
ROOT
ATOM      1  C   UNL d   1     -40.377  14.021  21.875  0.00  0.00     0.172 A 
ATOM      2  N   UNL d   1     -41.694  13.863  21.316  0.00  0.00    -0.226 N 
ATOM      3  C   UNL d   1     -41.521  14.490  20.775  0.00  0.00     0.342 A 
ATOM      4  N   UNL d   1     -40.793  14.861  20.797  0.00  0.00    -0.252 N 
ATOM      5  C   UNL d   1     -40.223  14.631  21.340  0.00  0.00     0.098 A 
ATOM      6  C   UNL d   1     -41.117  13.638  21.859  0.00  0.00     0.292 A 
ATOM      7  O   UNL d   1     -39.719  13.907  22.350  0.00  0.00    -0.301 OA
ATOM      8  C   UNL d   1     -39.459  14.880  21.506  0.00  0.00     0.041 A 
ATOM      9  C   UNL d   1     -39.165  14.430  22.123  0.00  0.00     0.102 A 
ATOM     10  O   UNL d   1     -42.098  14.734  20.213  0.00  0.00    -0.245 OA
ATOM     11  O   UNL d   1     -41.276  13.020  22.399  0.00  0.00    -0.264 OA
ATOM     12  C   UNL d   1     -38.989  15.474  21.159  0.00  0.00     0.004 A 
ATOM     13  C   UNL d   1     -38.396  14.564  22.406  0.00  0.00     0.025 A 
ATOM     14  C   UNL d   1     -38.220  15.609  21.442  0.00  0.00     0.000 A 
ATOM     15  C   UNL d   1     -37.941  15.151  22.059  0.00  0.00     0.002 A 
ENDROOT
BRANCH   4  16
ATOM     16  C   UNL d   1     -40.620  15.486  20.257  0.00  0.00     0.147 C 
BRANCH  16  17
ATOM     17  C   UNL d   1     -40.548  15.310  19.429  0.00  0.00     0.297 C 
ATOM     18  N   UNL d   1     -40.507  15.916  18.892  0.00  0.00    -0.207 NA
ATOM     19  O   UNL d   1     -40.522  14.522  19.188  0.00  0.00    -0.264 OA
BRANCH  18  20
ATOM     20  C   UNL d   1     -40.438  15.746  18.100  0.00  0.00     0.087 A 
ATOM     21  C   UNL d   1     -39.680  15.708  17.755  0.00  0.00     0.043 A 
ATOM     22  C   UNL d   1     -39.602  15.536  16.950  0.00  0.00     0.096 A 
ATOM     23  C   UNL d   1     -40.284  15.401  16.489  0.00  0.00     0.024 A 
ATOM     24  C   UNL d   1     -41.035  15.440  16.837  0.00  0.00     0.004 A 
ATOM     25  C   UNL d   1     -41.108  15.611  17.635  0.00  0.00     0.019 A 
BRANCH  22  26
ATOM     26  O   UNL d   1     -38.846  15.495  16.595  0.00  0.00    -0.328 OA
ATOM     27  C   UNL d   1     -38.695  14.927  16.018  0.00  0.00     0.181 C 
ENDBRANCH  22  26
ENDBRANCH  18  20
ENDBRANCH  16  17
ENDBRANCH   4  16
BRANCH   2  28
ATOM     28  C   UNL d   1     -42.432  13.476  21.306  0.00  0.00     0.071 A 
ATOM     29  C   UNL d   1     -42.481  12.689  21.066  0.00  0.00     0.018 A 
ATOM     30  C   UNL d   1     -43.222  12.309  21.059  0.00  0.00     0.002 A 
ATOM     31  C   UNL d   1     -43.886  12.714  21.287  0.00  0.00     0.000 A 
ATOM     32  C   UNL d   1     -43.837  13.501  21.527  0.00  0.00     0.002 A 
ATOM     33  C   UNL d   1     -43.110  13.873  21.533  0.00  0.00     0.018 A 
ENDBRANCH   2  28
TORSDOF 5
ENDMDL
