MODEL 1
REMARK VINA RESULT:      22.0      0.000      0.000
REMARK  3 active torsions:
REMARK  status: ('A' for Active; 'I' for Inactive)
REMARK    1  A    between atoms: C_6  and  C_1 
REMARK    2  A    between atoms: C_7  and  C_2 
REMARK    3  A    between atoms: O_14  and  C_12 
ROOT
ATOM      1  C   UNL d   1     -51.690  25.671  33.332  0.00  0.00     0.084 A 
ATOM      2  C   UNL d   1     -50.871  25.769  33.319  0.00  0.00     0.105 A 
ATOM      3  C   UNL d   1     -51.846  24.864  33.331  0.00  0.00     0.031 A 
ATOM      4  O   UNL d   1     -50.522  25.021  33.309  0.00  0.00    -0.307 OA
ATOM      5  C   UNL d   1     -51.129  24.465  33.317  0.00  0.00     0.100 A 
ATOM      6  C   UNL d   1     -52.548  24.439  33.341  0.00  0.00     0.026 A 
ATOM      7  C   UNL d   1     -51.108  23.638  33.313  0.00  0.00     0.027 A 
ATOM      8  C   UNL d   1     -52.541  23.614  33.337  0.00  0.00     0.094 A 
ATOM      9  C   UNL d   1     -51.812  23.208  33.323  0.00  0.00     0.026 A 
ENDROOT
BRANCH   2  10
ATOM     10  C   UNL d   1     -50.471  26.495  33.315  0.00  0.00     0.023 A 
ATOM     11  C   UNL d   1     -49.647  26.503  33.315  0.00  0.00     0.002 A 
ATOM     12  C   UNL d   1     -49.251  27.214  33.311  0.00  0.00     0.000 A 
ATOM     13  C   UNL d   1     -49.680  27.919  33.308  0.00  0.00     0.000 A 
ATOM     14  C   UNL d   1     -50.508  27.896  33.308  0.00  0.00     0.000 A 
ATOM     15  C   UNL d   1     -50.896  27.198  33.312  0.00  0.00     0.002 A 
ENDBRANCH   2  10
BRANCH   1  16
ATOM     16  C   UNL d   1     -52.254  26.273  33.345  0.00  0.00     0.299 C 
ATOM     17  O   UNL d   1     -52.018  27.055  33.391  0.00  0.00    -0.264 OA
ATOM     18  N   UNL d   1     -53.052  26.097  33.311  0.00  0.00    -0.102 N 
ENDBRANCH   1  16
BRANCH   8  19
ATOM     19  O   UNL d   1     -53.243  23.189  33.348  0.00  0.00    -0.328 OA
ATOM     20  C   UNL d   1     -53.761  23.265  33.991  0.00  0.00     0.181 C 
ENDBRANCH   8  19
TORSDOF 3
ENDMDL
MODEL 2
REMARK VINA RESULT:      24.4      1.156      3.940
REMARK  3 active torsions:
REMARK  status: ('A' for Active; 'I' for Inactive)
REMARK    1  A    between atoms: C_6  and  C_1 
REMARK    2  A    between atoms: C_7  and  C_2 
REMARK    3  A    between atoms: O_14  and  C_12 
ROOT
ATOM      1  C   UNL d   1     -51.431  25.273  33.536  0.00  0.00     0.084 A 
ATOM      2  C   UNL d   1     -52.245  25.263  33.403  0.00  0.00     0.105 A 
ATOM      3  C   UNL d   1     -51.184  26.057  33.520  0.00  0.00     0.031 A 
ATOM      4  O   UNL d   1     -52.500  26.042  33.306  0.00  0.00    -0.307 OA
ATOM      5  C   UNL d   1     -51.840  26.528  33.378  0.00  0.00     0.100 A 
ATOM      6  C   UNL d   1     -50.447  26.403  33.615  0.00  0.00     0.026 A 
ATOM      7  C   UNL d   1     -51.765  27.351  33.331  0.00  0.00     0.027 A 
ATOM      8  C   UNL d   1     -50.357  27.222  33.570  0.00  0.00     0.094 A 
ATOM      9  C   UNL d   1     -51.024  27.702  33.427  0.00  0.00     0.026 A 
ENDROOT
BRANCH   2  10
ATOM     10  C   UNL d   1     -52.721  24.585  33.375  0.00  0.00     0.023 A 
ATOM     11  C   UNL d   1     -53.542  24.666  33.377  0.00  0.00     0.002 A 
ATOM     12  C   UNL d   1     -54.013  24.003  33.349  0.00  0.00     0.000 A 
ATOM     13  C   UNL d   1     -53.663  23.257  33.318  0.00  0.00     0.000 A 
ATOM     14  C   UNL d   1     -52.837  23.189  33.316  0.00  0.00     0.000 A 
ATOM     15  C   UNL d   1     -52.375  23.840  33.344  0.00  0.00     0.002 A 
ENDBRANCH   2  10
BRANCH   1  16
ATOM     16  C   UNL d   1     -50.948  24.616  33.662  0.00  0.00     0.299 C 
ATOM     17  O   UNL d   1     -51.202  24.008  34.148  0.00  0.00    -0.264 OA
ATOM     18  N   UNL d   1     -50.214  24.564  33.306  0.00  0.00    -0.102 N 
ENDBRANCH   1  16
BRANCH   8  19
ATOM     19  O   UNL d   1     -49.619  27.569  33.666  0.00  0.00    -0.328 OA
ATOM     20  C   UNL d   1     -49.170  27.402  34.343  0.00  0.00     0.181 C 
ENDBRANCH   8  19
TORSDOF 3
ENDMDL
