MODEL 1
REMARK VINA RESULT:      -4.1      0.000      0.000
REMARK  3 active torsions:
REMARK  status: ('A' for Active; 'I' for Inactive)
REMARK       I    between atoms: C_2  and  N_1 
REMARK    1  A    between atoms: C_5  and  C_2 
REMARK    2  A    between atoms: S_8  and  C_3 
REMARK    3  A    between atoms: O_13  and  C_11 
ROOT
ATOM      1  N   UNL d   1      58.554   0.282  30.582  0.00  0.00    -0.251 N 
ATOM      2  C   UNL d   1      57.772   0.049  30.500  0.00  0.00     0.266 C 
ATOM      3  C   UNL d   1      59.106   0.363  29.974  0.00  0.00     0.178 A 
ATOM      4  N   UNL d   1      59.810   0.605  30.309  0.00  0.00    -0.219 NA
ATOM      5  O   UNL d   1      57.468  -0.132  29.756  0.00  0.00    -0.267 OA
ATOM      6  C   UNL d   1      58.926   0.478  31.295  0.00  0.00     0.106 A 
ATOM      7  C   UNL d   1      59.707   0.678  31.120  0.00  0.00     0.120 A 
ENDROOT
BRANCH   2   8
ATOM      8  C   UNL d   1      57.285  -0.007  31.165  0.00  0.00     0.059 A 
ATOM      9  C   UNL d   1      57.072  -0.750  31.450  0.00  0.00     0.029 A 
ATOM     10  C   UNL d   1      56.593  -0.796  32.104  0.00  0.00     0.094 A 
ATOM     11  C   UNL d   1      56.321  -0.105  32.481  0.00  0.00     0.024 A 
ATOM     12  C   UNL d   1      56.531   0.620  32.201  0.00  0.00     0.002 A 
ATOM     13  C   UNL d   1      57.020   0.677  31.534  0.00  0.00     0.005 A 
BRANCH  10  14
ATOM     14  O   UNL d   1      56.375  -1.535  32.396  0.00  0.00    -0.328 OA
ATOM     15  C   UNL d   1      55.924  -1.598  33.080  0.00  0.00     0.181 C 
ENDBRANCH  10  14
ENDBRANCH   2   8
BRANCH   3  16
ATOM     16  S   UNL d   1      58.961   0.222  29.182  0.00  0.00    -0.076 SA
ATOM     17  C   UNL d   1      59.557   0.332  28.621  0.00  0.00     0.077 C 
ENDBRANCH   3  16
TORSDOF 3
ENDMDL
MODEL 2
REMARK VINA RESULT:      -3.6      1.395      1.868
REMARK  3 active torsions:
REMARK  status: ('A' for Active; 'I' for Inactive)
REMARK       I    between atoms: C_2  and  N_1 
REMARK    1  A    between atoms: C_5  and  C_2 
REMARK    2  A    between atoms: S_8  and  C_3 
REMARK    3  A    between atoms: O_13  and  C_11 
ROOT
ATOM      1  N   UNL d   1      57.570   0.303  31.721  0.00  0.00    -0.251 N 
ATOM      2  C   UNL d   1      56.777   0.109  31.641  0.00  0.00     0.266 C 
ATOM      3  C   UNL d   1      58.076   0.549  31.118  0.00  0.00     0.178 A 
ATOM      4  N   UNL d   1      58.811   0.681  31.449  0.00  0.00    -0.219 NA
ATOM      5  O   UNL d   1      56.412   0.150  30.905  0.00  0.00    -0.267 OA
ATOM      6  C   UNL d   1      58.002   0.285  32.428  0.00  0.00     0.106 A 
ATOM      7  C   UNL d   1      58.773   0.521  32.252  0.00  0.00     0.120 A 
ENDROOT
BRANCH   2   8
ATOM      8  C   UNL d   1      56.341  -0.129  32.301  0.00  0.00     0.059 A 
ATOM      9  C   UNL d   1      55.809   0.397  32.646  0.00  0.00     0.029 A 
ATOM     10  C   UNL d   1      55.384   0.156  33.294  0.00  0.00     0.094 A 
ATOM     11  C   UNL d   1      55.484  -0.610  33.607  0.00  0.00     0.024 A 
ATOM     12  C   UNL d   1      56.004  -1.122  33.268  0.00  0.00     0.002 A 
ATOM     13  C   UNL d   1      56.443  -0.885  32.606  0.00  0.00     0.005 A 
BRANCH  10  14
ATOM     14  O   UNL d   1      54.850   0.675  33.646  0.00  0.00    -0.328 OA
ATOM     15  C   UNL d   1      54.631   0.582  34.433  0.00  0.00     0.181 C 
ENDBRANCH  10  14
ENDBRANCH   2   8
BRANCH   3  16
ATOM     16  S   UNL d   1      57.867   0.640  30.333  0.00  0.00    -0.076 SA
ATOM     17  C   UNL d   1      58.438   0.590  29.739  0.00  0.00     0.077 C 
ENDBRANCH   3  16
TORSDOF 3
ENDMDL
MODEL 3
REMARK VINA RESULT:      -3.4      2.768      4.419
REMARK  3 active torsions:
REMARK  status: ('A' for Active; 'I' for Inactive)
REMARK       I    between atoms: C_2  and  N_1 
REMARK    1  A    between atoms: C_5  and  C_2 
REMARK    2  A    between atoms: S_8  and  C_3 
REMARK    3  A    between atoms: O_13  and  C_11 
ROOT
ATOM      1  N   UNL d   1      55.768   0.278  33.739  0.00  0.00    -0.251 N 
ATOM      2  C   UNL d   1      56.557   0.140  33.561  0.00  0.00     0.266 C 
ATOM      3  C   UNL d   1      55.466   0.508  34.471  0.00  0.00     0.178 A 
ATOM      4  N   UNL d   1      54.656   0.580  34.394  0.00  0.00    -0.219 NA
ATOM      5  O   UNL d   1      57.135   0.228  34.140  0.00  0.00    -0.267 OA
ATOM      6  C   UNL d   1      55.135   0.209  33.210  0.00  0.00     0.106 A 
ATOM      7  C   UNL d   1      54.446   0.398  33.622  0.00  0.00     0.120 A 
ENDROOT
BRANCH   2   8
ATOM      8  C   UNL d   1      56.774  -0.088  32.798  0.00  0.00     0.059 A 
ATOM      9  C   UNL d   1      57.273   0.397  32.356  0.00  0.00     0.029 A 
ATOM     10  C   UNL d   1      57.482   0.166  31.607  0.00  0.00     0.094 A 
ATOM     11  C   UNL d   1      57.199  -0.549  31.288  0.00  0.00     0.024 A 
ATOM     12  C   UNL d   1      56.712  -1.021  31.721  0.00  0.00     0.002 A 
ATOM     13  C   UNL d   1      56.492  -0.794  32.487  0.00  0.00     0.005 A 
BRANCH  10  14
ATOM     14  O   UNL d   1      57.981   0.645  31.159  0.00  0.00    -0.328 OA
ATOM     15  C   UNL d   1      58.112   0.484  30.364  0.00  0.00     0.181 C 
ENDBRANCH  10  14
ENDBRANCH   2   8
BRANCH   3  16
ATOM     16  S   UNL d   1      55.909   0.637  35.147  0.00  0.00    -0.076 SA
ATOM     17  C   UNL d   1      55.566   0.557  35.894  0.00  0.00     0.077 C 
ENDBRANCH   3  16
TORSDOF 3
ENDMDL
MODEL 4
REMARK VINA RESULT:      -3.3      2.127      3.411
REMARK  3 active torsions:
REMARK  status: ('A' for Active; 'I' for Inactive)
REMARK       I    between atoms: C_2  and  N_1 
REMARK    1  A    between atoms: C_5  and  C_2 
REMARK    2  A    between atoms: S_8  and  C_3 
REMARK    3  A    between atoms: O_13  and  C_11 
ROOT
ATOM      1  N   UNL d   1      56.961   0.332  32.783  0.00  0.00    -0.251 N 
ATOM      2  C   UNL d   1      56.621   0.114  32.070  0.00  0.00     0.266 C 
ATOM      3  C   UNL d   1      56.566   0.443  33.499  0.00  0.00     0.178 A 
ATOM      4  N   UNL d   1      57.121   0.656  34.058  0.00  0.00    -0.219 NA
ATOM      5  O   UNL d   1      55.809  -0.015  32.019  0.00  0.00    -0.267 OA
ATOM      6  C   UNL d   1      57.766   0.478  32.909  0.00  0.00     0.106 A 
ATOM      7  C   UNL d   1      57.860   0.679  33.704  0.00  0.00     0.120 A 
ENDROOT
BRANCH   2   8
ATOM      8  C   UNL d   1      57.092   0.024  31.397  0.00  0.00     0.059 A 
ATOM      9  C   UNL d   1      57.358  -0.727  31.187  0.00  0.00     0.029 A 
ATOM     10  C   UNL d   1      57.821  -0.807  30.525  0.00  0.00     0.094 A 
ATOM     11  C   UNL d   1      58.024  -0.143  30.066  0.00  0.00     0.024 A 
ATOM     12  C   UNL d   1      57.763   0.590  30.273  0.00  0.00     0.002 A 
ATOM     13  C   UNL d   1      57.290   0.682  30.947  0.00  0.00     0.005 A 
BRANCH  10  14
ATOM     14  O   UNL d   1      58.092  -1.554  30.307  0.00  0.00    -0.328 OA
ATOM     15  C   UNL d   1      58.535  -1.655  29.622  0.00  0.00     0.181 C 
ENDBRANCH  10  14
ENDBRANCH   2   8
BRANCH   3  16
ATOM     16  S   UNL d   1      55.761   0.354  33.614  0.00  0.00    -0.076 SA
ATOM     17  C   UNL d   1      55.416   0.556  34.336  0.00  0.00     0.077 C 
ENDBRANCH   3  16
TORSDOF 3
ENDMDL
MODEL 5
REMARK VINA RESULT:      -3.3      1.675      3.434
REMARK  3 active torsions:
REMARK  status: ('A' for Active; 'I' for Inactive)
REMARK       I    between atoms: C_2  and  N_1 
REMARK    1  A    between atoms: C_5  and  C_2 
REMARK    2  A    between atoms: S_8  and  C_3 
REMARK    3  A    between atoms: O_13  and  C_11 
ROOT
ATOM      1  N   UNL d   1      57.319  -0.218  31.723  0.00  0.00    -0.251 N 
ATOM      2  C   UNL d   1      57.402  -0.605  31.004  0.00  0.00     0.266 C 
ATOM      3  C   UNL d   1      56.853  -0.462  32.358  0.00  0.00     0.178 A 
ATOM      4  N   UNL d   1      56.937   0.089  32.954  0.00  0.00    -0.219 NA
ATOM      5  O   UNL d   1      56.999  -1.309  30.863  0.00  0.00    -0.267 OA
ATOM      6  C   UNL d   1      57.692   0.490  31.934  0.00  0.00     0.106 A 
ATOM      7  C   UNL d   1      57.451   0.676  32.701  0.00  0.00     0.120 A 
ENDROOT
BRANCH   2   8
ATOM      8  C   UNL d   1      57.892  -0.290  30.419  0.00  0.00     0.059 A 
ATOM      9  C   UNL d   1      58.629  -0.632  30.280  0.00  0.00     0.029 A 
ATOM     10  C   UNL d   1      59.105  -0.317  29.704  0.00  0.00     0.094 A 
ATOM     11  C   UNL d   1      58.854   0.341  29.259  0.00  0.00     0.024 A 
ATOM     12  C   UNL d   1      58.135   0.674  29.396  0.00  0.00     0.002 A 
ATOM     13  C   UNL d   1      57.641   0.359  29.983  0.00  0.00     0.005 A 
BRANCH  10  14
ATOM     14  O   UNL d   1      59.843  -0.653  29.558  0.00  0.00    -0.328 OA
ATOM     15  C   UNL d   1      60.530  -0.209  29.648  0.00  0.00     0.181 C 
ENDBRANCH  10  14
ENDBRANCH   2   8
BRANCH   3  16
ATOM     16  S   UNL d   1      56.392  -1.138  32.375  0.00  0.00    -0.076 SA
ATOM     17  C   UNL d   1      55.880  -1.280  33.007  0.00  0.00     0.077 C 
ENDBRANCH   3  16
TORSDOF 3
ENDMDL
MODEL 6
REMARK VINA RESULT:      -3.1      8.245      9.490
REMARK  3 active torsions:
REMARK  status: ('A' for Active; 'I' for Inactive)
REMARK       I    between atoms: C_2  and  N_1 
REMARK    1  A    between atoms: C_5  and  C_2 
REMARK    2  A    between atoms: S_8  and  C_3 
REMARK    3  A    between atoms: O_13  and  C_11 
ROOT
ATOM      1  N   UNL d   1      59.812  -7.045  35.717  0.00  0.00    -0.251 N 
ATOM      2  C   UNL d   1      60.226  -7.753  35.708  0.00  0.00     0.266 C 
ATOM      3  C   UNL d   1      60.105  -6.311  35.954  0.00  0.00     0.178 A 
ATOM      4  N   UNL d   1      59.503  -5.765  35.871  0.00  0.00    -0.219 NA
ATOM      5  O   UNL d   1      61.012  -7.778  35.952  0.00  0.00    -0.267 OA
ATOM      6  C   UNL d   1      59.023  -6.945  35.488  0.00  0.00     0.106 A 
ATOM      7  C   UNL d   1      58.836  -6.147  35.586  0.00  0.00     0.120 A 
ENDROOT
BRANCH   2   8
ATOM      8  C   UNL d   1      59.854  -8.445  35.455  0.00  0.00     0.059 A 
ATOM      9  C   UNL d   1      59.918  -8.674  34.666  0.00  0.00     0.029 A 
ATOM     10  C   UNL d   1      59.550  -9.356  34.425  0.00  0.00     0.094 A 
ATOM     11  C   UNL d   1      59.115  -9.818  34.964  0.00  0.00     0.024 A 
ATOM     12  C   UNL d   1      59.054  -9.593  35.734  0.00  0.00     0.002 A 
ATOM     13  C   UNL d   1      59.426  -8.898  35.990  0.00  0.00     0.005 A 
BRANCH  10  14
ATOM     14  O   UNL d   1      59.609  -9.592  33.637  0.00  0.00    -0.328 OA
ATOM     15  C   UNL d   1      58.938  -9.645  33.165  0.00  0.00     0.181 C 
ENDBRANCH  10  14
ENDBRANCH   2   8
BRANCH   3  16
ATOM     16  S   UNL d   1      60.865  -6.168  36.221  0.00  0.00    -0.076 SA
ATOM     17  C   UNL d   1      61.133  -5.395  36.328  0.00  0.00     0.077 C 
ENDBRANCH   3  16
TORSDOF 3
ENDMDL
MODEL 7
REMARK VINA RESULT:      -2.1      1.980      2.562
REMARK  3 active torsions:
REMARK  status: ('A' for Active; 'I' for Inactive)
REMARK       I    between atoms: C_2  and  N_1 
REMARK    1  A    between atoms: C_5  and  C_2 
REMARK    2  A    between atoms: S_8  and  C_3 
REMARK    3  A    between atoms: O_13  and  C_11 
ROOT
ATOM      1  N   UNL d   1      59.185  -1.338  29.190  0.00  0.00    -0.251 N 
ATOM      2  C   UNL d   1      59.265  -0.596  29.529  0.00  0.00     0.266 C 
ATOM      3  C   UNL d   1      59.787  -1.788  28.850  0.00  0.00     0.178 A 
ATOM      4  N   UNL d   1      59.456  -2.485  28.584  0.00  0.00    -0.219 NA
ATOM      5  O   UNL d   1      60.001  -0.228  29.553  0.00  0.00    -0.267 OA
ATOM      6  C   UNL d   1      58.479  -1.767  29.131  0.00  0.00     0.106 A 
ATOM      7  C   UNL d   1      58.654  -2.480  28.753  0.00  0.00     0.120 A 
ENDROOT
BRANCH   2   8
ATOM      8  C   UNL d   1      58.606  -0.214  29.849  0.00  0.00     0.059 A 
ATOM      9  C   UNL d   1      58.398  -0.355  30.634  0.00  0.00     0.029 A 
ATOM     10  C   UNL d   1      57.750   0.024  30.941  0.00  0.00     0.094 A 
ATOM     11  C   UNL d   1      57.301   0.546  30.472  0.00  0.00     0.024 A 
ATOM     12  C   UNL d   1      57.506   0.682  29.706  0.00  0.00     0.002 A 
ATOM     13  C   UNL d   1      58.167   0.299  29.383  0.00  0.00     0.005 A 
BRANCH  10  14
ATOM     14  O   UNL d   1      57.535  -0.110  31.725  0.00  0.00    -0.328 OA
ATOM     15  C   UNL d   1      56.778   0.076  31.989  0.00  0.00     0.181 C 
ENDBRANCH  10  14
ENDBRANCH   2   8
BRANCH   3  16
ATOM     16  S   UNL d   1      60.572  -1.563  28.794  0.00  0.00    -0.076 SA
ATOM     17  C   UNL d   1      61.133  -2.078  28.477  0.00  0.00     0.077 C 
ENDBRANCH   3  16
TORSDOF 3
ENDMDL
MODEL 8
REMARK VINA RESULT:      -1.6      2.264      3.196
REMARK  3 active torsions:
REMARK  status: ('A' for Active; 'I' for Inactive)
REMARK       I    between atoms: C_2  and  N_1 
REMARK    1  A    between atoms: C_5  and  C_2 
REMARK    2  A    between atoms: S_8  and  C_3 
REMARK    3  A    between atoms: O_13  and  C_11 
ROOT
ATOM      1  N   UNL d   1      59.818  -1.722  29.037  0.00  0.00    -0.251 N 
ATOM      2  C   UNL d   1      59.009  -1.595  29.085  0.00  0.00     0.266 C 
ATOM      3  C   UNL d   1      60.191  -2.448  28.921  0.00  0.00     0.178 A 
ATOM      4  N   UNL d   1      60.997  -2.314  28.910  0.00  0.00    -0.219 NA
ATOM      5  O   UNL d   1      58.484  -2.225  29.016  0.00  0.00    -0.267 OA
ATOM      6  C   UNL d   1      60.402  -1.139  29.097  0.00  0.00     0.106 A 
ATOM      7  C   UNL d   1      61.134  -1.512  29.017  0.00  0.00     0.120 A 
ENDROOT
BRANCH   2   8
ATOM      8  C   UNL d   1      58.717  -0.831  29.203  0.00  0.00     0.059 A 
ATOM      9  C   UNL d   1      58.548  -0.576  29.968  0.00  0.00     0.029 A 
ATOM     10  C   UNL d   1      58.262   0.176  30.076  0.00  0.00     0.094 A 
ATOM     11  C   UNL d   1      58.141   0.682  29.425  0.00  0.00     0.024 A 
ATOM     12  C   UNL d   1      58.306   0.431  28.679  0.00  0.00     0.002 A 
ATOM     13  C   UNL d   1      58.599  -0.336  28.559  0.00  0.00     0.005 A 
BRANCH  10  14
ATOM     14  O   UNL d   1      58.090   0.440  30.838  0.00  0.00    -0.328 OA
ATOM     15  C   UNL d   1      57.314   0.589  31.063  0.00  0.00     0.181 C 
ENDBRANCH  10  14
ENDBRANCH   2   8
BRANCH   3  16
ATOM     16  S   UNL d   1      59.812  -3.167  28.835  0.00  0.00    -0.076 SA
ATOM     17  C   UNL d   1      60.247  -3.859  28.714  0.00  0.00     0.077 C 
ENDBRANCH   3  16
TORSDOF 3
ENDMDL
MODEL 9
REMARK VINA RESULT:      -1.5      3.556      4.411
REMARK  3 active torsions:
REMARK  status: ('A' for Active; 'I' for Inactive)
REMARK       I    between atoms: C_2  and  N_1 
REMARK    1  A    between atoms: C_5  and  C_2 
REMARK    2  A    between atoms: S_8  and  C_3 
REMARK    3  A    between atoms: O_13  and  C_11 
ROOT
ATOM      1  N   UNL d   1      59.742  -2.073  28.842  0.00  0.00    -0.251 N 
ATOM      2  C   UNL d   1      60.476  -1.752  29.017  0.00  0.00     0.266 C 
ATOM      3  C   UNL d   1      59.571  -2.873  28.738  0.00  0.00     0.178 A 
ATOM      4  N   UNL d   1      58.774  -2.937  28.573  0.00  0.00    -0.219 NA
ATOM      5  O   UNL d   1      61.133  -2.241  29.105  0.00  0.00    -0.267 OA
ATOM      6  C   UNL d   1      59.041  -1.644  28.740  0.00  0.00     0.106 A 
ATOM      7  C   UNL d   1      58.442  -2.187  28.572  0.00  0.00     0.120 A 
ENDROOT
BRANCH   2   8
ATOM      8  C   UNL d   1      60.560  -0.935  29.106  0.00  0.00     0.059 A 
ATOM      9  C   UNL d   1      60.453  -0.596  29.849  0.00  0.00     0.029 A 
ATOM     10  C   UNL d   1      60.537   0.207  29.928  0.00  0.00     0.094 A 
ATOM     11  C   UNL d   1      60.728   0.682  29.271  0.00  0.00     0.024 A 
ATOM     12  C   UNL d   1      60.831   0.349  28.546  0.00  0.00     0.002 A 
ATOM     13  C   UNL d   1      60.748  -0.472  28.455  0.00  0.00     0.005 A 
BRANCH  10  14
ATOM     14  O   UNL d   1      60.433   0.556  30.668  0.00  0.00    -0.328 OA
ATOM     15  C   UNL d   1      61.073   0.672  31.170  0.00  0.00     0.181 C 
ENDBRANCH  10  14
ENDBRANCH   2   8
BRANCH   3  16
ATOM     16  S   UNL d   1      60.112  -3.483  28.792  0.00  0.00    -0.076 SA
ATOM     17  C   UNL d   1      59.922  -4.238  28.516  0.00  0.00     0.077 C 
ENDBRANCH   3  16
TORSDOF 3
ENDMDL
