MODEL 1
REMARK VINA RESULT:     -10.0      0.000      0.000
REMARK  7 active torsions:
REMARK  status: ('A' for Active; 'I' for Inactive)
REMARK    1  A    between atoms: C_2  and  S_1 
REMARK    2  A    between atoms: N_5  and  S_1 
REMARK    3  A    between atoms: C_3  and  C_7 
REMARK       I    between atoms: N_8  and  C_3 
REMARK    4  A    between atoms: C_16  and  N_5 
REMARK    5  A    between atoms: C_21  and  N_8 
REMARK    6  A    between atoms: C_15  and  C_16 
REMARK    7  A    between atoms: C_30  and  C_23 
ROOT
ATOM      1  C   UNL d   1      51.924  33.922  52.802  0.00  0.00     0.133 A 
ATOM      2  C   UNL d   1      52.000  33.121  52.913  0.00  0.00     0.020 A 
ATOM      3  C   UNL d   1      52.736  32.761  52.808  0.00  0.00     0.059 A 
ATOM      4  C   UNL d   1      52.576  34.377  52.585  0.00  0.00     0.152 A 
ATOM      5  C   UNL d   1      53.389  33.216  52.592  0.00  0.00     0.007 A 
ATOM      6  C   UNL d   1      53.301  34.028  52.481  0.00  0.00     0.030 A 
ATOM      7  F   UNL d   1      52.490  35.210  52.471  0.00  0.00    -0.203 F 
ENDROOT
BRANCH   1   8
ATOM      8  S   UNL d   1      51.163  34.284  52.912  0.00  0.00     0.288 S 
ATOM      9  O   UNL d   1      50.933  34.011  52.169  0.00  0.00    -0.198 OA
ATOM     10  O   UNL d   1      51.420  34.550  53.664  0.00  0.00    -0.198 OA
BRANCH   8  11
ATOM     11  N   UNL d   1      50.443  34.636  53.036  0.00  0.00    -0.155 NA
BRANCH  11  12
ATOM     12  C   UNL d   1      49.785  34.433  52.579  0.00  0.00     0.139 C 
BRANCH  12  13
ATOM     13  C   UNL d   1      49.112  34.925  52.596  0.00  0.00     0.145 A 
ATOM     14  O   UNL d   1      48.842  35.246  53.301  0.00  0.00    -0.301 OA
ATOM     15  C   UNL d   1      48.174  35.733  53.305  0.00  0.00     0.123 A 
ATOM     16  C   UNL d   1      47.902  36.057  54.016  0.00  0.00     0.027 A 
ATOM     17  C   UNL d   1      47.779  35.895  52.599  0.00  0.00     0.123 A 
ATOM     18  C   UNL d   1      47.235  36.542  54.020  0.00  0.00     0.002 A 
ATOM     19  C   UNL d   1      46.838  36.705  53.313  0.00  0.00     0.002 A 
ATOM     20  C   UNL d   1      47.110  36.382  52.603  0.00  0.00     0.027 A 
ATOM     21  O   UNL d   1      48.049  35.573  51.893  0.00  0.00    -0.301 OA
ATOM     22  C   UNL d   1      48.715  35.089  51.893  0.00  0.00     0.149 A 
ENDBRANCH  12  13
ENDBRANCH  11  12
ENDBRANCH   8  11
ENDBRANCH   1   8
BRANCH   3  23
ATOM     23  C   UNL d   1      52.826  31.940  52.920  0.00  0.00     0.279 C 
ATOM     24  N   UNL d   1      53.313  31.648  53.519  0.00  0.00    -0.208 NA
ATOM     25  O   UNL d   1      52.427  31.419  52.429  0.00  0.00    -0.265 OA
BRANCH  24  26
ATOM     26  C   UNL d   1      53.715  32.172  54.013  0.00  0.00     0.085 A 
ATOM     27  C   UNL d   1      54.443  32.467  53.777  0.00  0.00     0.019 A 
ATOM     28  C   UNL d   1      54.848  32.996  54.275  0.00  0.00     0.002 A 
ATOM     29  C   UNL d   1      54.517  33.218  55.000  0.00  0.00     0.000 A 
ATOM     30  C   UNL d   1      53.790  32.915  55.221  0.00  0.00     0.002 A 
ATOM     31  C   UNL d   1      53.384  32.386  54.723  0.00  0.00     0.019 A 
BRANCH  29  32
ATOM     32  C   UNL d   1      54.912  33.738  55.494  0.00  0.00     0.000 C 
ATOM     33  C   UNL d   1      55.613  34.093  55.243  0.00  0.00     0.000 C 
ENDBRANCH  29  32
ENDBRANCH  24  26
ENDBRANCH   3  23
TORSDOF 7
ENDMDL
MODEL 2
REMARK VINA RESULT:      -9.5      1.083      1.889
REMARK  7 active torsions:
REMARK  status: ('A' for Active; 'I' for Inactive)
REMARK    1  A    between atoms: C_2  and  S_1 
REMARK    2  A    between atoms: N_5  and  S_1 
REMARK    3  A    between atoms: C_3  and  C_7 
REMARK       I    between atoms: N_8  and  C_3 
REMARK    4  A    between atoms: C_16  and  N_5 
REMARK    5  A    between atoms: C_21  and  N_8 
REMARK    6  A    between atoms: C_15  and  C_16 
REMARK    7  A    between atoms: C_30  and  C_23 
ROOT
ATOM      1  C   UNL d   1      51.910  34.486  53.094  0.00  0.00     0.133 A 
ATOM      2  C   UNL d   1      52.186  34.449  53.858  0.00  0.00     0.020 A 
ATOM      3  C   UNL d   1      52.999  34.452  54.001  0.00  0.00     0.059 A 
ATOM      4  C   UNL d   1      52.438  34.525  52.462  0.00  0.00     0.152 A 
ATOM      5  C   UNL d   1      53.527  34.491  53.368  0.00  0.00     0.007 A 
ATOM      6  C   UNL d   1      53.237  34.527  52.597  0.00  0.00     0.030 A 
ATOM      7  F   UNL d   1      52.144  34.562  51.671  0.00  0.00    -0.203 F 
ENDROOT
BRANCH   1   8
ATOM      8  S   UNL d   1      51.072  34.483  52.957  0.00  0.00     0.288 S 
ATOM      9  O   UNL d   1      51.016  35.221  53.319  0.00  0.00    -0.198 OA
ATOM     10  O   UNL d   1      51.153  33.732  52.593  0.00  0.00    -0.198 OA
BRANCH   8  11
ATOM     11  N   UNL d   1      50.273  34.461  52.817  0.00  0.00    -0.155 NA
BRANCH  11  12
ATOM     12  C   UNL d   1      49.757  34.966  53.218  0.00  0.00     0.139 C 
BRANCH  12  13
ATOM     13  C   UNL d   1      49.040  35.186  52.852  0.00  0.00     0.145 A 
ATOM     14  O   UNL d   1      48.529  35.719  53.211  0.00  0.00    -0.301 OA
ATOM     15  C   UNL d   1      47.821  35.929  52.838  0.00  0.00     0.123 A 
ATOM     16  C   UNL d   1      47.306  36.465  53.200  0.00  0.00     0.027 A 
ATOM     17  C   UNL d   1      47.630  35.602  52.105  0.00  0.00     0.123 A 
ATOM     18  C   UNL d   1      46.600  36.675  52.828  0.00  0.00     0.002 A 
ATOM     19  C   UNL d   1      46.408  36.349  52.093  0.00  0.00     0.002 A 
ATOM     20  C   UNL d   1      46.923  35.812  51.732  0.00  0.00     0.027 A 
ATOM     21  O   UNL d   1      48.142  35.069  51.746  0.00  0.00    -0.301 OA
ATOM     22  C   UNL d   1      48.845  34.862  52.119  0.00  0.00     0.149 A 
ENDBRANCH  12  13
ENDBRANCH  11  12
ENDBRANCH   8  11
ENDBRANCH   1   8
BRANCH   3  23
ATOM     23  C   UNL d   1      53.293  34.415  54.779  0.00  0.00     0.279 C 
ATOM     24  N   UNL d   1      53.631  33.720  55.068  0.00  0.00    -0.208 NA
ATOM     25  O   UNL d   1      53.245  35.076  55.261  0.00  0.00    -0.265 OA
BRANCH  24  26
ATOM     26  C   UNL d   1      53.680  33.054  54.583  0.00  0.00     0.085 A 
ATOM     27  C   UNL d   1      53.095  32.481  54.631  0.00  0.00     0.019 A 
ATOM     28  C   UNL d   1      53.144  31.809  54.142  0.00  0.00     0.002 A 
ATOM     29  C   UNL d   1      53.776  31.726  53.616  0.00  0.00     0.000 A 
ATOM     30  C   UNL d   1      54.351  32.307  53.580  0.00  0.00     0.002 A 
ATOM     31  C   UNL d   1      54.303  32.978  54.069  0.00  0.00     0.019 A 
BRANCH  29  32
ATOM     32  C   UNL d   1      53.828  31.067  53.132  0.00  0.00     0.000 C 
ATOM     33  C   UNL d   1      53.141  30.700  52.859  0.00  0.00     0.000 C 
ENDBRANCH  29  32
ENDBRANCH  24  26
ENDBRANCH   3  23
TORSDOF 7
ENDMDL
