MODEL 1
REMARK VINA RESULT:      65.3      0.000      0.000
REMARK  5 active torsions:
REMARK  status: ('A' for Active; 'I' for Inactive)
REMARK    1  A    between atoms: N_5  and  C_1 
REMARK    2  A    between atoms: C_8  and  C_3 
REMARK       I    between atoms: C_7  and  N_5 
REMARK    3  A    between atoms: C_11  and  C_7 
REMARK    4  A    between atoms: C_21  and  C_20 
REMARK    5  A    between atoms: C_24  and  C_21 
ROOT
ATOM      1  N   UNL d   1     -48.875  27.850  34.008  0.00  0.00    -0.165 NA
ATOM      2  C   UNL d   1     -48.679  28.038  34.776  0.00  0.00     0.282 C 
ATOM      3  O   UNL d   1     -48.829  27.507  35.392  0.00  0.00    -0.265 OA
ENDROOT
BRANCH   1   4
ATOM      4  C   UNL d   1     -49.227  27.125  33.836  0.00  0.00     0.297 A 
ATOM      5  O   UNL d   1     -50.038  26.981  33.819  0.00  0.00    -0.253 OA
ATOM      6  C   UNL d   1     -50.150  26.185  33.623  0.00  0.00     0.206 A 
ATOM      7  N   UNL d   1     -49.410  25.847  33.522  0.00  0.00    -0.119 NA
ATOM      8  N   UNL d   1     -48.841  26.427  33.653  0.00  0.00    -0.101 NA
BRANCH   6   9
ATOM      9  C   UNL d   1     -50.882  25.806  33.546  0.00  0.00     0.045 A 
ATOM     10  C   UNL d   1     -50.923  24.974  33.537  0.00  0.00     0.030 A 
ATOM     11  C   UNL d   1     -51.637  24.614  33.462  0.00  0.00     0.123 A 
ATOM     12  O   UNL d   1     -51.669  23.785  33.455  0.00  0.00    -0.301 OA
ATOM     13  C   UNL d   1     -52.327  25.053  33.392  0.00  0.00     0.123 A 
ATOM     14  C   UNL d   1     -52.387  23.403  33.379  0.00  0.00     0.149 A 
ATOM     15  C   UNL d   1     -53.081  23.842  33.309  0.00  0.00     0.149 A 
ATOM     16  O   UNL d   1     -53.061  24.665  33.315  0.00  0.00    -0.301 OA
ATOM     17  C   UNL d   1     -52.303  25.861  33.399  0.00  0.00     0.027 A 
ATOM     18  C   UNL d   1     -51.574  26.255  33.476  0.00  0.00     0.006 A 
ENDBRANCH   6   9
ENDBRANCH   1   4
BRANCH   2  19
ATOM     19  C   UNL d   1     -48.326  28.764  34.949  0.00  0.00     0.058 A 
ATOM     20  C   UNL d   1     -48.773  29.450  34.858  0.00  0.00     0.005 A 
ATOM     21  C   UNL d   1     -48.420  30.178  35.031  0.00  0.00     0.000 A 
ATOM     22  C   UNL d   1     -47.638  30.216  35.290  0.00  0.00     0.000 A 
ATOM     23  C   UNL d   1     -47.205  29.519  35.377  0.00  0.00     0.000 A 
ATOM     24  C   UNL d   1     -47.553  28.794  35.205  0.00  0.00     0.005 A 
BRANCH  22  25
ATOM     25  C   UNL d   1     -47.293  30.942  35.461  0.00  0.00     0.000 C 
BRANCH  25  26
ATOM     26  C   UNL d   1     -47.396  31.581  34.950  0.00  0.00     0.000 A 
ATOM     27  C   UNL d   1     -47.769  32.271  35.217  0.00  0.00     0.000 A 
ATOM     28  C   UNL d   1     -47.870  32.908  34.704  0.00  0.00     0.000 A 
ATOM     29  C   UNL d   1     -47.597  32.859  33.916  0.00  0.00     0.000 A 
ATOM     30  C   UNL d   1     -47.225  32.170  33.653  0.00  0.00     0.000 A 
ATOM     31  C   UNL d   1     -47.123  31.527  34.167  0.00  0.00     0.000 A 
ENDBRANCH  25  26
ENDBRANCH  22  25
ENDBRANCH   2  19
TORSDOF 5
ENDMDL
