MODEL 1
REMARK VINA RESULT:      45.4      0.000      0.000
REMARK  4 active torsions:
REMARK  status: ('A' for Active; 'I' for Inactive)
REMARK    1  A    between atoms: C_10  and  C_3 
REMARK    2  A    between atoms: C_12  and  C_5 
REMARK    3  A    between atoms: C_15  and  C_12 
REMARK    4  A    between atoms: C_18  and  C_15 
ROOT
ATOM      1  C   UNL d   1     -54.775-101.323 -42.912  0.00  0.00     0.152 A 
ATOM      2  N   UNL d   1     -54.758-100.621 -42.457  0.00  0.00    -0.258 N 
ATOM      3  C   UNL d   1     -54.795-101.280 -43.733  0.00  0.00     0.056 A 
ATOM      4  C   UNL d   1     -54.761 -99.889 -42.832  0.00  0.00     0.266 A 
ATOM      5  C   UNL d   1     -54.781 -99.841 -43.662  0.00  0.00     0.057 A 
ATOM      6  N   UNL d   1     -54.772-102.061 -42.528  0.00  0.00    -0.227 NA
ATOM      7  C   UNL d   1     -54.798-100.542 -44.117  0.00  0.00     0.009 A 
ATOM      8  C   UNL d   1     -54.735-101.405 -41.248  0.00  0.00     0.086 A 
ATOM      9  C   UNL d   1     -54.752-102.114 -41.691  0.00  0.00     0.099 A 
ATOM     10  O   UNL d   1     -54.744 -99.175 -42.370  0.00  0.00    -0.267 OA
ATOM     11  C   UNL d   1     -54.817-100.506 -44.938  0.00  0.00     0.000 C 
ATOM     12  C   UNL d   1     -54.716-101.453 -40.418  0.00  0.00     0.019 A 
ATOM     13  C   UNL d   1     -54.749-102.837 -41.314  0.00  0.00     0.021 A 
ATOM     14  C   UNL d   1     -54.713-102.195 -40.055  0.00  0.00     0.002 A 
ATOM     15  C   UNL d   1     -54.730-102.876 -40.496  0.00  0.00     0.002 A 
ENDROOT
BRANCH   5  16
ATOM     16  C   UNL d   1     -54.784 -99.109 -44.044  0.00  0.00     0.005 C 
BRANCH  16  17
ATOM     17  C   UNL d   1     -55.481 -98.805 -44.350  0.00  0.00     0.000 C 
BRANCH  17  18
ATOM     18  C   UNL d   1     -55.591 -98.782 -45.162  0.00  0.00     0.000 C 
ATOM     19  C   UNL d   1     -54.930 -98.781 -45.661  0.00  0.00     0.000 C 
ATOM     20  C   UNL d   1     -56.353 -98.761 -45.481  0.00  0.00     0.000 C 
ENDBRANCH  17  18
ENDBRANCH  16  17
ENDBRANCH   5  16
BRANCH   3  21
ATOM     21  C   UNL d   1     -54.811-101.972 -44.177  0.00  0.00     0.125 C 
ATOM     22  N   UNL d   1     -55.274-102.021 -44.851  0.00  0.00    -0.146 N 
ENDBRANCH   3  21
TORSDOF 4
ENDMDL
