MODEL 1
REMARK VINA RESULT:      -3.4      0.000      0.000
REMARK  2 active torsions:
REMARK  status: ('A' for Active; 'I' for Inactive)
REMARK    1  A    between atoms: C_7  and  C_1 
REMARK    2  A    between atoms: C_11  and  C_7 
ROOT
ATOM      1  C   UNL d   1      29.975  16.512 -24.179  0.00  0.00     0.116 A 
ATOM      2  N   UNL d   1      28.992  16.026 -23.269  0.00  0.00    -0.152 NA
ATOM      3  N   UNL d   1      28.661  17.067 -24.182  0.00  0.00    -0.152 NA
ATOM      4  C   UNL d   1      29.427  17.048 -24.488  0.00  0.00     0.288 A 
ATOM      5  C   UNL d   1      29.759  16.004 -23.572  0.00  0.00     0.288 A 
ATOM      6  C   UNL d   1      28.445  16.559 -23.576  0.00  0.00     0.374 A 
ATOM      7  O   UNL d   1      30.314  15.453 -23.251  0.00  0.00    -0.265 OA
ATOM      8  O   UNL d   1      29.644  17.558 -25.097  0.00  0.00    -0.265 OA
ATOM      9  O   UNL d   1      27.676  16.567 -23.257  0.00  0.00    -0.242 OA
ENDROOT
BRANCH   1  10
ATOM     10  C   UNL d   1      30.754  16.488 -24.485  0.00  0.00     0.010 C 
BRANCH  10  11
ATOM     11  C   UNL d   1      31.349  16.940 -24.132  0.00  0.00     0.001 A 
ATOM     12  C   UNL d   1      31.441  17.730 -24.331  0.00  0.00     0.003 A 
ATOM     13  C   UNL d   1      32.036  18.178 -23.977  0.00  0.00     0.042 A 
ATOM     14  C   UNL d   1      32.533  17.830 -23.428  0.00  0.00     0.196 A 
ATOM     15  C   UNL d   1      32.440  17.040 -23.229  0.00  0.00     0.042 A 
ATOM     16  O   UNL d   1      33.142  18.280 -23.062  0.00  0.00    -0.287 OA
ATOM     17  C   UNL d   1      31.851  16.588 -23.577  0.00  0.00     0.003 A 
ENDBRANCH  10  11
ENDBRANCH   1  10
TORSDOF 2
ENDMDL
MODEL 2
REMARK VINA RESULT:      -3.4      1.367      3.475
REMARK  2 active torsions:
REMARK  status: ('A' for Active; 'I' for Inactive)
REMARK    1  A    between atoms: C_7  and  C_1 
REMARK    2  A    between atoms: C_11  and  C_7 
ROOT
ATOM      1  C   UNL d   1      31.382  16.994 -24.184  0.00  0.00     0.116 A 
ATOM      2  N   UNL d   1      32.084  18.232 -24.108  0.00  0.00    -0.152 NA
ATOM      3  N   UNL d   1      32.409  17.175 -23.211  0.00  0.00    -0.152 NA
ATOM      4  C   UNL d   1      31.832  16.697 -23.558  0.00  0.00     0.288 A 
ATOM      5  C   UNL d   1      31.506  17.757 -24.457  0.00  0.00     0.288 A 
ATOM      6  C   UNL d   1      32.534  17.938 -23.484  0.00  0.00     0.374 A 
ATOM      7  O   UNL d   1      31.050  18.069 -25.097  0.00  0.00    -0.265 OA
ATOM      8  O   UNL d   1      31.707  15.931 -23.284  0.00  0.00    -0.265 OA
ATOM      9  O   UNL d   1      33.111  18.430 -23.144  0.00  0.00    -0.242 OA
ENDROOT
BRANCH   1  10
ATOM     10  C   UNL d   1      30.795  16.515 -24.540  0.00  0.00     0.010 C 
BRANCH  10  11
ATOM     11  C   UNL d   1      30.024  16.518 -24.242  0.00  0.00     0.001 A 
ATOM     12  C   UNL d   1      29.490  17.093 -24.482  0.00  0.00     0.003 A 
ATOM     13  C   UNL d   1      28.722  17.093 -24.183  0.00  0.00     0.042 A 
ATOM     14  C   UNL d   1      28.496  16.518 -23.647  0.00  0.00     0.196 A 
ATOM     15  C   UNL d   1      29.030  15.943 -23.407  0.00  0.00     0.042 A 
ATOM     16  O   UNL d   1      27.714  16.510 -23.336  0.00  0.00    -0.287 OA
ATOM     17  C   UNL d   1      29.795  15.936 -23.701  0.00  0.00     0.003 A 
ENDBRANCH  10  11
ENDBRANCH   1  10
TORSDOF 2
ENDMDL
MODEL 3
REMARK VINA RESULT:      -2.7      2.052      3.899
REMARK  2 active torsions:
REMARK  status: ('A' for Active; 'I' for Inactive)
REMARK    1  A    between atoms: C_7  and  C_1 
REMARK    2  A    between atoms: C_11  and  C_7 
ROOT
ATOM      1  C   UNL d   1      32.857  18.097 -23.636  0.00  0.00     0.116 A 
ATOM      2  N   UNL d   1      32.877  19.518 -23.530  0.00  0.00    -0.152 NA
ATOM      3  N   UNL d   1      33.224  18.717 -22.404  0.00  0.00    -0.152 NA
ATOM      4  C   UNL d   1      33.096  18.032 -22.847  0.00  0.00     0.288 A 
ATOM      5  C   UNL d   1      32.748  18.836 -23.975  0.00  0.00     0.288 A 
ATOM      6  C   UNL d   1      33.116  19.456 -22.744  0.00  0.00     0.374 A 
ATOM      7  O   UNL d   1      32.504  18.910 -24.781  0.00  0.00    -0.265 OA
ATOM      8  O   UNL d   1      33.205  17.291 -22.507  0.00  0.00    -0.265 OA
ATOM      9  O   UNL d   1      33.241  20.154 -22.310  0.00  0.00    -0.242 OA
ENDROOT
BRANCH   1  10
ATOM     10  C   UNL d   1      32.725  17.406 -24.090  0.00  0.00     0.010 C 
BRANCH  10  11
ATOM     11  C   UNL d   1      31.980  17.047 -24.087  0.00  0.00     0.001 A 
ATOM     12  C   UNL d   1      31.825  16.422 -23.580  0.00  0.00     0.003 A 
ATOM     13  C   UNL d   1      31.081  16.066 -23.579  0.00  0.00     0.042 A 
ATOM     14  C   UNL d   1      30.501  16.341 -24.086  0.00  0.00     0.196 A 
ATOM     15  C   UNL d   1      30.656  16.967 -24.592  0.00  0.00     0.042 A 
ATOM     16  O   UNL d   1      29.739  15.984 -24.091  0.00  0.00    -0.287 OA
ATOM     17  C   UNL d   1      31.393  17.325 -24.598  0.00  0.00     0.003 A 
ENDBRANCH  10  11
ENDBRANCH   1  10
TORSDOF 2
ENDMDL
MODEL 4
REMARK VINA RESULT:      -2.6      0.678      1.354
REMARK  2 active torsions:
REMARK  status: ('A' for Active; 'I' for Inactive)
REMARK    1  A    between atoms: C_7  and  C_1 
REMARK    2  A    between atoms: C_11  and  C_7 
ROOT
ATOM      1  C   UNL d   1      29.863  15.886 -23.759  0.00  0.00     0.116 A 
ATOM      2  N   UNL d   1      28.569  16.421 -24.022  0.00  0.00    -0.152 NA
ATOM      3  N   UNL d   1      28.905  15.991 -22.706  0.00  0.00    -0.152 NA
ATOM      4  C   UNL d   1      29.659  15.775 -22.965  0.00  0.00     0.288 A 
ATOM      5  C   UNL d   1      29.321  16.207 -24.284  0.00  0.00     0.288 A 
ATOM      6  C   UNL d   1      28.363  16.312 -23.232  0.00  0.00     0.374 A 
ATOM      7  O   UNL d   1      29.522  16.323 -25.097  0.00  0.00    -0.265 OA
ATOM      8  O   UNL d   1      30.203  15.453 -22.438  0.00  0.00    -0.265 OA
ATOM      9  O   UNL d   1      27.601  16.534 -22.985  0.00  0.00    -0.242 OA
ENDROOT
BRANCH   1  10
ATOM     10  C   UNL d   1      30.626  15.669 -24.027  0.00  0.00     0.010 C 
BRANCH  10  11
ATOM     11  C   UNL d   1      31.265  16.179 -23.906  0.00  0.00     0.001 A 
ATOM     12  C   UNL d   1      31.248  16.942 -24.207  0.00  0.00     0.003 A 
ATOM     13  C   UNL d   1      31.888  17.448 -24.085  0.00  0.00     0.042 A 
ATOM     14  C   UNL d   1      32.537  17.185 -23.662  0.00  0.00     0.196 A 
ATOM     15  C   UNL d   1      32.553  16.422 -23.361  0.00  0.00     0.042 A 
ATOM     16  O   UNL d   1      33.193  17.695 -23.532  0.00  0.00    -0.287 OA
ATOM     17  C   UNL d   1      31.921  15.913 -23.479  0.00  0.00     0.003 A 
ENDBRANCH  10  11
ENDBRANCH   1  10
TORSDOF 2
ENDMDL
MODEL 5
REMARK VINA RESULT:      -0.7      3.102      4.749
REMARK  2 active torsions:
REMARK  status: ('A' for Active; 'I' for Inactive)
REMARK    1  A    between atoms: C_7  and  C_1 
REMARK    2  A    between atoms: C_11  and  C_7 
ROOT
ATOM      1  C   UNL d   1      32.908  20.274 -22.348  0.00  0.00     0.116 A 
ATOM      2  N   UNL d   1      32.284  21.510 -22.012  0.00  0.00    -0.152 NA
ATOM      3  N   UNL d   1      32.547  20.548 -20.995  0.00  0.00    -0.152 NA
ATOM      4  C   UNL d   1      32.877  20.039 -21.556  0.00  0.00     0.288 A 
ATOM      5  C   UNL d   1      32.613  21.005 -22.575  0.00  0.00     0.288 A 
ATOM      6  C   UNL d   1      32.252  21.279 -21.222  0.00  0.00     0.374 A 
ATOM      7  O   UNL d   1      32.640  21.251 -23.383  0.00  0.00    -0.265 OA
ATOM      8  O   UNL d   1      33.173  19.306 -21.328  0.00  0.00    -0.265 OA
ATOM      9  O   UNL d   1      31.917  21.801 -20.668  0.00  0.00    -0.242 OA
ENDROOT
BRANCH   1  10
ATOM     10  C   UNL d   1      33.241  19.763 -22.921  0.00  0.00     0.010 C 
BRANCH  10  11
ATOM     11  C   UNL d   1      32.771  19.186 -23.282  0.00  0.00     0.001 A 
ATOM     12  C   UNL d   1      32.589  18.493 -22.884  0.00  0.00     0.003 A 
ATOM     13  C   UNL d   1      32.119  17.919 -23.246  0.00  0.00     0.042 A 
ATOM     14  C   UNL d   1      31.837  18.047 -24.003  0.00  0.00     0.196 A 
ATOM     15  C   UNL d   1      32.019  18.741 -24.401  0.00  0.00     0.042 A 
ATOM     16  O   UNL d   1      31.357  17.468 -24.381  0.00  0.00    -0.287 OA
ATOM     17  C   UNL d   1      32.485  19.315 -24.047  0.00  0.00     0.003 A 
ENDBRANCH  10  11
ENDBRANCH   1  10
TORSDOF 2
ENDMDL
MODEL 6
REMARK VINA RESULT:      -0.5      1.775      2.636
REMARK  2 active torsions:
REMARK  status: ('A' for Active; 'I' for Inactive)
REMARK    1  A    between atoms: C_7  and  C_1 
REMARK    2  A    between atoms: C_11  and  C_7 
ROOT
ATOM      1  C   UNL d   1      32.124  17.749 -23.807  0.00  0.00     0.116 A 
ATOM      2  N   UNL d   1      31.883  16.371 -23.537  0.00  0.00    -0.152 NA
ATOM      3  N   UNL d   1      30.786  17.267 -23.689  0.00  0.00    -0.152 NA
ATOM      4  C   UNL d   1      31.310  17.892 -23.820  0.00  0.00     0.288 A 
ATOM      5  C   UNL d   1      32.409  16.993 -23.667  0.00  0.00     0.288 A 
ATOM      6  C   UNL d   1      31.071  16.511 -23.549  0.00  0.00     0.374 A 
ATOM      7  O   UNL d   1      33.240  16.839 -23.652  0.00  0.00    -0.265 OA
ATOM      8  O   UNL d   1      31.024  18.651 -23.961  0.00  0.00    -0.265 OA
ATOM      9  O   UNL d   1      30.556  15.872 -23.416  0.00  0.00    -0.242 OA
ENDROOT
BRANCH   1  10
ATOM     10  C   UNL d   1      32.660  18.379 -23.939  0.00  0.00     0.010 C 
BRANCH  10  11
ATOM     11  C   UNL d   1      32.806  18.927 -23.338  0.00  0.00     0.001 A 
ATOM     12  C   UNL d   1      33.007  19.700 -23.523  0.00  0.00     0.003 A 
ATOM     13  C   UNL d   1      33.152  20.245 -22.921  0.00  0.00     0.042 A 
ATOM     14  C   UNL d   1      33.094  20.009 -22.140  0.00  0.00     0.196 A 
ATOM     15  C   UNL d   1      32.893  19.236 -21.954  0.00  0.00     0.042 A 
ATOM     16  O   UNL d   1      33.241  20.558 -21.519  0.00  0.00    -0.287 OA
ATOM     17  C   UNL d   1      32.747  18.689 -22.548  0.00  0.00     0.003 A 
ENDBRANCH  10  11
ENDBRANCH   1  10
TORSDOF 2
ENDMDL
