MODEL 1
REMARK VINA RESULT:       2.0      0.000      0.000
REMARK  4 active torsions:
REMARK  status: ('A' for Active; 'I' for Inactive)
REMARK    1  A    between atoms: C_10  and  N_2 
REMARK    2  A    between atoms: C_7  and  N_4 
REMARK    3  A    between atoms: C_11  and  C_7 
REMARK    4  A    between atoms: O_22  and  C_18 
ROOT
ATOM      1  S   UNL d   1      29.646  17.527 -24.412  0.00  0.00     0.276 S 
ATOM      2  N   UNL d   1      29.590  16.734 -24.182  0.00  0.00    -0.184 N 
ATOM      3  C   UNL d   1      30.272  16.257 -24.181  0.00  0.00     0.348 A 
ATOM      4  N   UNL d   1      30.998  16.580 -24.410  0.00  0.00    -0.258 N 
ATOM      5  C   UNL d   1      30.371  17.848 -24.639  0.00  0.00     0.120 A 
ATOM      6  C   UNL d   1      31.052  17.371 -24.638  0.00  0.00     0.081 A 
ATOM      7  O   UNL d   1      29.409  18.311 -24.582  0.00  0.00    -0.199 OA
ATOM      8  O   UNL d   1      28.862  17.339 -24.209  0.00  0.00    -0.199 OA
ATOM      9  O   UNL d   1      30.223  15.453 -23.950  0.00  0.00    -0.245 OA
ATOM     10  C   UNL d   1      30.423  18.634 -24.866  0.00  0.00     0.014 A 
ATOM     11  C   UNL d   1      31.781  17.683 -24.864  0.00  0.00     0.018 A 
ATOM     12  C   UNL d   1      31.150  18.959 -25.095  0.00  0.00     0.001 A 
ATOM     13  C   UNL d   1      31.831  18.481 -25.094  0.00  0.00     0.002 A 
ENDROOT
BRANCH   2  14
ATOM     14  C   UNL d   1      28.868  16.416 -23.956  0.00  0.00     0.079 A 
ATOM     15  C   UNL d   1      28.452  15.915 -24.466  0.00  0.00     0.020 A 
ATOM     16  C   UNL d   1      27.726  15.595 -24.240  0.00  0.00     0.026 A 
ATOM     17  C   UNL d   1      27.409  15.777 -23.494  0.00  0.00     0.094 A 
ATOM     18  C   UNL d   1      27.821  16.277 -22.980  0.00  0.00     0.026 A 
ATOM     19  C   UNL d   1      28.551  16.598 -23.209  0.00  0.00     0.020 A 
BRANCH  17  20
ATOM     20  O   UNL d   1      26.672  15.455 -23.258  0.00  0.00    -0.328 OA
ATOM     21  C   UNL d   1      26.021  15.519 -23.751  0.00  0.00     0.181 C 
ENDBRANCH  17  20
ENDBRANCH   2  14
BRANCH   4  22
ATOM     22  C   UNL d   1      31.679  16.103 -24.409  0.00  0.00     0.087 C 
BRANCH  22  23
ATOM     23  C   UNL d   1      32.083  15.968 -23.708  0.00  0.00     0.045 A 
ATOM     24  C   UNL d   1      32.836  15.647 -23.738  0.00  0.00     0.141 A 
ATOM     25  F   UNL d   1      33.185  15.462 -24.454  0.00  0.00    -0.204 F 
ATOM     26  C   UNL d   1      33.240  15.512 -23.033  0.00  0.00     0.030 A 
ATOM     27  C   UNL d   1      32.892  15.697 -22.313  0.00  0.00     0.002 A 
ATOM     28  C   UNL d   1      32.138  16.018 -22.295  0.00  0.00     0.000 A 
ATOM     29  C   UNL d   1      31.733  16.153 -22.993  0.00  0.00     0.004 A 
ENDBRANCH  22  23
ENDBRANCH   4  22
TORSDOF 4
ENDMDL
MODEL 2
REMARK VINA RESULT:       3.5      4.471      6.164
REMARK  4 active torsions:
REMARK  status: ('A' for Active; 'I' for Inactive)
REMARK    1  A    between atoms: C_10  and  N_2 
REMARK    2  A    between atoms: C_7  and  N_4 
REMARK    3  A    between atoms: C_11  and  C_7 
REMARK    4  A    between atoms: O_22  and  C_18 
ROOT
ATOM      1  S   UNL d   1      32.633  20.371 -21.603  0.00  0.00     0.276 S 
ATOM      2  N   UNL d   1      32.768  20.313 -22.417  0.00  0.00    -0.184 N 
ATOM      3  C   UNL d   1      32.971  20.994 -22.850  0.00  0.00     0.348 A 
ATOM      4  N   UNL d   1      33.037  21.721 -22.461  0.00  0.00    -0.258 N 
ATOM      5  C   UNL d   1      32.700  21.097 -21.217  0.00  0.00     0.120 A 
ATOM      6  C   UNL d   1      32.903  21.777 -21.650  0.00  0.00     0.081 A 
ATOM      7  O   UNL d   1      32.450  20.135 -20.820  0.00  0.00    -0.199 OA
ATOM      8  O   UNL d   1      32.533  19.586 -21.858  0.00  0.00    -0.199 OA
ATOM      9  O   UNL d   1      33.109  20.943 -23.675  0.00  0.00    -0.245 OA
ATOM     10  C   UNL d   1      32.566  21.150 -20.409  0.00  0.00     0.014 A 
ATOM     11  C   UNL d   1      32.972  22.507 -21.272  0.00  0.00     0.018 A 
ATOM     12  C   UNL d   1      32.632  21.878 -20.020  0.00  0.00     0.001 A 
ATOM     13  C   UNL d   1      32.835  22.559 -20.453  0.00  0.00     0.002 A 
ENDROOT
BRANCH   2  14
ATOM     14  C   UNL d   1      32.702  19.589 -22.799  0.00  0.00     0.079 A 
ATOM     15  C   UNL d   1      32.114  19.468 -23.369  0.00  0.00     0.020 A 
ATOM     16  C   UNL d   1      32.046  18.742 -23.754  0.00  0.00     0.026 A 
ATOM     17  C   UNL d   1      32.572  18.126 -23.569  0.00  0.00     0.094 A 
ATOM     18  C   UNL d   1      33.161  18.242 -23.000  0.00  0.00     0.026 A 
ATOM     19  C   UNL d   1      33.228  18.973 -22.614  0.00  0.00     0.020 A 
BRANCH  17  20
ATOM     20  O   UNL d   1      32.509  17.386 -23.957  0.00  0.00    -0.328 OA
ATOM     21  C   UNL d   1      32.259  17.353 -24.736  0.00  0.00     0.181 C 
ENDBRANCH  17  20
ENDBRANCH   2  14
BRANCH   4  22
ATOM     22  C   UNL d   1      33.241  22.401 -22.894  0.00  0.00     0.087 C 
BRANCH  22  23
ATOM     23  C   UNL d   1      32.657  22.834 -23.275  0.00  0.00     0.045 A 
ATOM     24  C   UNL d   1      32.653  22.862 -24.094  0.00  0.00     0.141 A 
ATOM     25  F   UNL d   1      33.220  22.465 -24.530  0.00  0.00    -0.204 F 
ATOM     26  C   UNL d   1      32.066  23.297 -24.475  0.00  0.00     0.030 A 
ATOM     27  C   UNL d   1      31.496  23.695 -24.038  0.00  0.00     0.002 A 
ATOM     28  C   UNL d   1      31.510  23.660 -23.220  0.00  0.00     0.000 A 
ATOM     29  C   UNL d   1      32.091  23.229 -22.838  0.00  0.00     0.004 A 
ENDBRANCH  22  23
ENDBRANCH   4  22
TORSDOF 4
ENDMDL
MODEL 3
REMARK VINA RESULT:       3.9      4.384      5.760
REMARK  4 active torsions:
REMARK  status: ('A' for Active; 'I' for Inactive)
REMARK    1  A    between atoms: C_10  and  N_2 
REMARK    2  A    between atoms: C_7  and  N_4 
REMARK    3  A    between atoms: C_11  and  C_7 
REMARK    4  A    between atoms: O_22  and  C_18 
ROOT
ATOM      1  S   UNL d   1      33.000  21.563 -22.714  0.00  0.00     0.276 S 
ATOM      2  N   UNL d   1      33.002  21.003 -22.106  0.00  0.00    -0.184 N 
ATOM      3  C   UNL d   1      33.082  20.196 -22.290  0.00  0.00     0.348 A 
ATOM      4  N   UNL d   1      33.160  19.962 -23.079  0.00  0.00    -0.258 N 
ATOM      5  C   UNL d   1      33.078  21.329 -23.501  0.00  0.00     0.120 A 
ATOM      6  C   UNL d   1      33.158  20.522 -23.685  0.00  0.00     0.081 A 
ATOM      7  O   UNL d   1      32.966  22.311 -23.091  0.00  0.00    -0.199 OA
ATOM      8  O   UNL d   1      32.915  21.937 -21.977  0.00  0.00    -0.199 OA
ATOM      9  O   UNL d   1      33.084  19.622 -21.679  0.00  0.00    -0.245 OA
ATOM     10  C   UNL d   1      33.076  21.887 -24.102  0.00  0.00     0.014 A 
ATOM     11  C   UNL d   1      33.236  20.279 -24.469  0.00  0.00     0.018 A 
ATOM     12  C   UNL d   1      33.154  21.654 -24.893  0.00  0.00     0.001 A 
ATOM     13  C   UNL d   1      33.234  20.847 -25.077  0.00  0.00     0.002 A 
ENDROOT
BRANCH   2  14
ATOM     14  C   UNL d   1      32.924  21.239 -21.323  0.00  0.00     0.079 A 
ATOM     15  C   UNL d   1      33.241  21.959 -21.068  0.00  0.00     0.020 A 
ATOM     16  C   UNL d   1      33.164  22.197 -20.282  0.00  0.00     0.026 A 
ATOM     17  C   UNL d   1      32.765  21.709 -19.740  0.00  0.00     0.094 A 
ATOM     18  C   UNL d   1      32.446  20.987 -19.990  0.00  0.00     0.026 A 
ATOM     19  C   UNL d   1      32.525  20.750 -20.781  0.00  0.00     0.020 A 
BRANCH  17  20
ATOM     20  O   UNL d   1      32.683  21.944 -18.940  0.00  0.00    -0.328 OA
ATOM     21  C   UNL d   1      33.033  22.638 -18.681  0.00  0.00     0.181 C 
ENDBRANCH  17  20
ENDBRANCH   2  14
BRANCH   4  22
ATOM     22  C   UNL d   1      33.240  19.156 -23.263  0.00  0.00     0.087 C 
BRANCH  22  23
ATOM     23  C   UNL d   1      32.573  18.696 -23.393  0.00  0.00     0.045 A 
ATOM     24  C   UNL d   1      32.542  17.940 -23.080  0.00  0.00     0.141 A 
ATOM     25  F   UNL d   1      33.165  17.642 -22.643  0.00  0.00    -0.204 F 
ATOM     26  C   UNL d   1      31.871  17.481 -23.212  0.00  0.00     0.030 A 
ATOM     27  C   UNL d   1      31.244  17.779 -23.651  0.00  0.00     0.002 A 
ATOM     28  C   UNL d   1      31.286  18.537 -23.959  0.00  0.00     0.000 A 
ATOM     29  C   UNL d   1      31.950  18.996 -23.830  0.00  0.00     0.004 A 
ENDBRANCH  22  23
ENDBRANCH   4  22
TORSDOF 4
ENDMDL
MODEL 4
REMARK VINA RESULT:       4.4      1.026      2.541
REMARK  4 active torsions:
REMARK  status: ('A' for Active; 'I' for Inactive)
REMARK    1  A    between atoms: C_10  and  N_2 
REMARK    2  A    between atoms: C_7  and  N_4 
REMARK    3  A    between atoms: C_11  and  C_7 
REMARK    4  A    between atoms: O_22  and  C_18 
ROOT
ATOM      1  S   UNL d   1      30.779  16.032 -23.503  0.00  0.00     0.276 S 
ATOM      2  N   UNL d   1      30.278  16.509 -23.957  0.00  0.00    -0.184 N 
ATOM      3  C   UNL d   1      30.604  17.057 -24.491  0.00  0.00     0.348 A 
ATOM      4  N   UNL d   1      31.426  17.119 -24.562  0.00  0.00    -0.258 N 
ATOM      5  C   UNL d   1      31.598  16.095 -23.576  0.00  0.00     0.120 A 
ATOM      6  C   UNL d   1      31.924  16.643 -24.110  0.00  0.00     0.081 A 
ATOM      7  O   UNL d   1      31.017  15.453 -22.947  0.00  0.00    -0.199 OA
ATOM      8  O   UNL d   1      29.984  15.864 -23.330  0.00  0.00    -0.199 OA
ATOM      9  O   UNL d   1      30.104  17.544 -24.954  0.00  0.00    -0.245 OA
ATOM     10  C   UNL d   1      32.092  15.620 -23.124  0.00  0.00     0.014 A 
ATOM     11  C   UNL d   1      32.742  16.712 -24.188  0.00  0.00     0.018 A 
ATOM     12  C   UNL d   1      32.914  15.682 -23.195  0.00  0.00     0.001 A 
ATOM     13  C   UNL d   1      33.240  16.230 -23.729  0.00  0.00     0.002 A 
ENDROOT
BRANCH   2  14
ATOM     14  C   UNL d   1      29.463  16.445 -23.883  0.00  0.00     0.079 A 
ATOM     15  C   UNL d   1      29.041  15.903 -24.344  0.00  0.00     0.020 A 
ATOM     16  C   UNL d   1      28.222  15.837 -24.272  0.00  0.00     0.026 A 
ATOM     17  C   UNL d   1      27.816  16.320 -23.731  0.00  0.00     0.094 A 
ATOM     18  C   UNL d   1      28.233  16.864 -23.268  0.00  0.00     0.026 A 
ATOM     19  C   UNL d   1      29.057  16.928 -23.343  0.00  0.00     0.020 A 
BRANCH  17  20
ATOM     20  O   UNL d   1      26.984  16.259 -23.653  0.00  0.00    -0.328 OA
ATOM     21  C   UNL d   1      26.632  15.521 -23.600  0.00  0.00     0.181 C 
ENDBRANCH  17  20
ENDBRANCH   2  14
BRANCH   4  22
ATOM     22  C   UNL d   1      31.752  17.667 -25.096  0.00  0.00     0.087 C 
BRANCH  22  23
ATOM     23  C   UNL d   1      31.837  18.453 -24.875  0.00  0.00     0.045 A 
ATOM     24  C   UNL d   1      32.584  18.789 -24.878  0.00  0.00     0.141 A 
ATOM     25  F   UNL d   1      33.240  18.352 -25.096  0.00  0.00    -0.204 F 
ATOM     26  C   UNL d   1      32.667  19.578 -24.656  0.00  0.00     0.030 A 
ATOM     27  C   UNL d   1      32.010  20.018 -24.437  0.00  0.00     0.002 A 
ATOM     28  C   UNL d   1      31.268  19.672 -24.438  0.00  0.00     0.000 A 
ATOM     29  C   UNL d   1      31.181  18.889 -24.657  0.00  0.00     0.004 A 
ENDBRANCH  22  23
ENDBRANCH   4  22
TORSDOF 4
ENDMDL
