MODEL 1
REMARK VINA RESULT:     102.2      0.000      0.000
REMARK  4 active torsions:
REMARK  status: ('A' for Active; 'I' for Inactive)
REMARK       I    between atoms: C_3  and  N_1 
REMARK    1  A    between atoms: C_7  and  C_3 
REMARK    2  A    between atoms: C_9  and  C_4 
REMARK    3  A    between atoms: C_12  and  C_5 
REMARK    4  A    between atoms: O_20  and  C_17 
ROOT
ATOM      1  N   UNL d   1     -56.856-100.206 -44.609  0.00  0.00    -0.194 N 
ATOM      2  N   UNL d   1     -57.473-100.226 -45.146  0.00  0.00    -0.163 NA
ATOM      3  C   UNL d   1     -56.257-100.798 -44.516  0.00  0.00     0.286 C 
ATOM      4  C   UNL d   1     -56.924 -99.508 -44.177  0.00  0.00     0.088 A 
ATOM      5  C   UNL d   1     -57.925 -99.550 -45.056  0.00  0.00     0.103 A 
ATOM      6  C   UNL d   1     -57.582 -99.108 -44.455  0.00  0.00     0.040 A 
ATOM      7  O   UNL d   1     -56.289-101.460 -45.008  0.00  0.00    -0.265 OA
ENDROOT
BRANCH   4   8
ATOM      8  C   UNL d   1     -56.373 -99.320 -43.578  0.00  0.00     0.018 A 
ATOM      9  C   UNL d   1     -55.602 -99.050 -43.773  0.00  0.00     0.004 A 
ATOM     10  C   UNL d   1     -55.070 -98.870 -43.168  0.00  0.00     0.024 A 
ATOM     11  C   UNL d   1     -55.281 -98.950 -42.368  0.00  0.00     0.094 A 
ATOM     12  C   UNL d   1     -56.052 -99.220 -42.173  0.00  0.00     0.024 A 
ATOM     13  C   UNL d   1     -56.590 -99.402 -42.783  0.00  0.00     0.004 A 
BRANCH  11  14
ATOM     14  O   UNL d   1     -54.730 -98.763 -41.768  0.00  0.00    -0.328 OA
ATOM     15  C   UNL d   1     -54.932 -98.909 -40.965  0.00  0.00     0.181 C 
ENDBRANCH  11  14
ENDBRANCH   4   8
BRANCH   3  16
ATOM     16  C   UNL d   1     -55.665-100.721 -43.960  0.00  0.00     0.087 A 
ATOM     17  S   UNL d   1     -55.239-100.066 -43.660  0.00  0.00    -0.082 SA
ATOM     18  C   UNL d   1     -54.711-100.341 -43.106  0.00  0.00     0.036 A 
ATOM     19  C   UNL d   1     -54.787-101.153 -43.043  0.00  0.00     0.008 A 
ATOM     20  C   UNL d   1     -55.368-101.389 -43.563  0.00  0.00     0.012 A 
ENDBRANCH   3  16
BRANCH   5  21
ATOM     21  C   UNL d   1     -58.602 -99.286 -45.444  0.00  0.00     0.019 A 
ATOM     22  C   UNL d   1     -59.278 -99.105 -45.001  0.00  0.00     0.002 A 
ATOM     23  C   UNL d   1     -59.949 -98.841 -45.392  0.00  0.00     0.000 A 
ATOM     24  C   UNL d   1     -59.959 -98.756 -46.210  0.00  0.00     0.000 A 
ATOM     25  C   UNL d   1     -59.282 -98.937 -46.654  0.00  0.00     0.000 A 
ATOM     26  C   UNL d   1     -58.608 -99.201 -46.261  0.00  0.00     0.002 A 
ENDBRANCH   5  21
TORSDOF 4
ENDMDL
