MODEL 1
REMARK VINA RESULT:      36.4      0.000      0.000
REMARK  2 active torsions:
REMARK  status: ('A' for Active; 'I' for Inactive)
REMARK    1  A    between atoms: C_5  and  C_1 
REMARK       I    between atoms: N_7  and  C_5 
REMARK    2  A    between atoms: C_9  and  N_7 
ROOT
ATOM      1  C   UNL d   1      45.550 -12.601  43.801  0.00  0.00     0.161 A 
ATOM      2  C   UNL d   1      44.773 -12.408  43.768  0.00  0.00     0.072 A 
ATOM      3  O   UNL d   1      46.009 -12.683  43.077  0.00  0.00    -0.302 OA
ATOM      4  C   UNL d   1      44.396 -12.286  43.053  0.00  0.00     0.200 A 
ATOM      5  C   UNL d   1      44.819 -12.360  42.339  0.00  0.00     0.062 A 
ATOM      6  C   UNL d   1      45.605 -12.554  42.363  0.00  0.00     0.103 A 
ATOM      7  O   UNL d   1      43.584 -12.086  43.055  0.00  0.00    -0.286 OA
ATOM      8  C   UNL d   1      44.446 -12.237  41.601  0.00  0.00     0.005 A 
ATOM      9  C   UNL d   1      46.035 -12.630  41.637  0.00  0.00     0.025 A 
ATOM     10  C   UNL d   1      44.882 -12.315  40.900  0.00  0.00     0.000 A 
ATOM     11  C   UNL d   1      45.658 -12.507  40.923  0.00  0.00     0.002 A 
ENDROOT
BRANCH   1  12
ATOM     12  C   UNL d   1      45.903 -12.720  44.574  0.00  0.00     0.302 C 
ATOM     13  N   UNL d   1      45.844 -13.449  44.954  0.00  0.00    -0.206 NA
ATOM     14  O   UNL d   1      46.306 -12.082  44.932  0.00  0.00    -0.263 OA
BRANCH  13  15
ATOM     15  C   UNL d   1      45.443 -14.062  44.585  0.00  0.00     0.085 A 
ATOM     16  C   UNL d   1      45.831 -14.776  44.439  0.00  0.00     0.018 A 
ATOM     17  C   UNL d   1      45.449 -15.395  44.074  0.00  0.00     0.002 A 
ATOM     18  C   UNL d   1      46.644 -14.864  44.675  0.00  0.00     0.002 C 
ATOM     19  C   UNL d   1      44.665 -15.307  43.847  0.00  0.00     0.000 A 
ATOM     20  C   UNL d   1      44.271 -14.597  43.990  0.00  0.00     0.002 A 
ATOM     21  C   UNL d   1      44.255 -15.941  43.467  0.00  0.00     0.000 C 
ATOM     22  C   UNL d   1      44.671 -13.984  44.359  0.00  0.00     0.019 A 
ENDBRANCH  13  15
ENDBRANCH   1  12
TORSDOF 2
ENDMDL
