MODEL 1
REMARK VINA RESULT:      -2.7      0.000      0.000
REMARK  4 active torsions:
REMARK  status: ('A' for Active; 'I' for Inactive)
REMARK    1  A    between atoms: C_2  and  S_1 
REMARK    2  A    between atoms: C_5  and  S_1 
REMARK    3  A    between atoms: C_7  and  C_5 
REMARK       I    between atoms: N_9  and  C_7 
REMARK    4  A    between atoms: C_8  and  N_9 
ROOT
ATOM      1  S   UNL d   1      32.807  18.514 -23.139  0.00  0.00     0.217 S 
ATOM      2  O   UNL d   1      33.229  18.802 -23.794  0.00  0.00    -0.217 OA
ATOM      3  O   UNL d   1      32.384  18.224 -22.482  0.00  0.00    -0.217 OA
ENDROOT
BRANCH   1   4
ATOM      4  C   UNL d   1      32.385  18.003 -23.632  0.00  0.00     0.109 A 
ATOM      5  C   UNL d   1      31.748  18.210 -24.114  0.00  0.00     0.110 A 
ATOM      6  N   UNL d   1      31.496  17.535 -24.508  0.00  0.00    -0.243 NA
ATOM      7  C   UNL d   1      31.978  16.907 -24.269  0.00  0.00     0.082 A 
ATOM      8  C   UNL d   1      32.523  17.202 -23.730  0.00  0.00     0.030 A 
ATOM      9  C   UNL d   1      31.986  16.108 -24.476  0.00  0.00     0.019 A 
ATOM     10  C   UNL d   1      33.084  16.698 -23.391  0.00  0.00     0.002 A 
ATOM     11  C   UNL d   1      33.092  15.900 -23.598  0.00  0.00     0.000 A 
ATOM     12  C   UNL d   1      32.546  15.609 -24.137  0.00  0.00     0.002 A 
ENDBRANCH   1   4
BRANCH   1  13
ATOM     13  C   UNL d   1      33.232  19.030 -22.632  0.00  0.00     0.161 C 
BRANCH  13  14
ATOM     14  C   UNL d   1      33.014  19.828 -22.591  0.00  0.00     0.291 C 
ATOM     15  N   UNL d   1      33.232  20.269 -21.929  0.00  0.00    -0.207 NA
ATOM     16  O   UNL d   1      32.588  20.178 -23.196  0.00  0.00    -0.264 OA
BRANCH  15  17
ATOM     17  C   UNL d   1      33.015  21.067 -21.883  0.00  0.00     0.085 A 
ATOM     18  C   UNL d   1      32.587  21.340 -21.235  0.00  0.00     0.018 A 
ATOM     19  C   UNL d   1      32.366  22.134 -21.181  0.00  0.00     0.002 A 
ATOM     20  C   UNL d   1      32.373  20.809 -20.628  0.00  0.00     0.002 C 
ATOM     21  C   UNL d   1      32.577  22.658 -21.780  0.00  0.00     0.000 A 
ATOM     22  C   UNL d   1      33.006  22.391 -22.432  0.00  0.00     0.002 A 
ATOM     23  C   UNL d   1      33.225  21.594 -22.482  0.00  0.00     0.019 A 
ATOM     24  C   UNL d   1      33.225  22.919 -23.048  0.00  0.00     0.000 C 
ENDBRANCH  15  17
ENDBRANCH  13  14
ENDBRANCH   1  13
TORSDOF 4
ENDMDL
MODEL 2
REMARK VINA RESULT:      -2.3      1.301      5.068
REMARK  4 active torsions:
REMARK  status: ('A' for Active; 'I' for Inactive)
REMARK    1  A    between atoms: C_2  and  S_1 
REMARK    2  A    between atoms: C_5  and  S_1 
REMARK    3  A    between atoms: C_7  and  C_5 
REMARK       I    between atoms: N_9  and  C_7 
REMARK    4  A    between atoms: C_8  and  N_9 
ROOT
ATOM      1  S   UNL d   1      32.836  20.908 -21.876  0.00  0.00     0.217 S 
ATOM      2  O   UNL d   1      33.236  20.462 -21.300  0.00  0.00    -0.217 OA
ATOM      3  O   UNL d   1      32.435  21.355 -22.454  0.00  0.00    -0.217 OA
ENDROOT
BRANCH   1   4
ATOM      4  C   UNL d   1      32.434  21.320 -21.283  0.00  0.00     0.109 A 
ATOM      5  C   UNL d   1      31.787  21.043 -20.853  0.00  0.00     0.110 A 
ATOM      6  N   UNL d   1      31.563  21.629 -20.323  0.00  0.00    -0.243 NA
ATOM      7  C   UNL d   1      32.073  22.272 -20.425  0.00  0.00     0.082 A 
ATOM      8  C   UNL d   1      32.608  22.075 -21.017  0.00  0.00     0.030 A 
ATOM      9  C   UNL d   1      32.116  23.007 -20.052  0.00  0.00     0.019 A 
ATOM     10  C   UNL d   1      33.192  22.614 -21.243  0.00  0.00     0.002 A 
ATOM     11  C   UNL d   1      33.234  23.348 -20.871  0.00  0.00     0.000 A 
ATOM     12  C   UNL d   1      32.699  23.541 -20.280  0.00  0.00     0.002 A 
ENDBRANCH   1   4
BRANCH   1  13
ATOM     13  C   UNL d   1      33.241  20.493 -22.483  0.00  0.00     0.161 C 
BRANCH  13  14
ATOM     14  C   UNL d   1      32.975  19.742 -22.706  0.00  0.00     0.291 C 
ATOM     15  N   UNL d   1      33.025  19.518 -23.499  0.00  0.00    -0.207 NA
ATOM     16  O   UNL d   1      32.666  19.224 -22.153  0.00  0.00    -0.264 OA
BRANCH  15  17
ATOM     17  C   UNL d   1      32.760  18.768 -23.727  0.00  0.00     0.085 A 
ATOM     18  C   UNL d   1      32.485  18.645 -24.494  0.00  0.00     0.018 A 
ATOM     19  C   UNL d   1      32.219  17.899 -24.730  0.00  0.00     0.002 A 
ATOM     20  C   UNL d   1      32.476  19.279 -25.036  0.00  0.00     0.002 C 
ATOM     21  C   UNL d   1      32.229  17.274 -24.195  0.00  0.00     0.000 A 
ATOM     22  C   UNL d   1      32.502  17.391 -23.426  0.00  0.00     0.002 A 
ATOM     23  C   UNL d   1      32.768  18.139 -23.194  0.00  0.00     0.019 A 
ATOM     24  C   UNL d   1      32.515  16.757 -22.874  0.00  0.00     0.000 C 
ENDBRANCH  15  17
ENDBRANCH  13  14
ENDBRANCH   1  13
TORSDOF 4
ENDMDL
MODEL 3
REMARK VINA RESULT:      -1.0      1.121      4.703
REMARK  4 active torsions:
REMARK  status: ('A' for Active; 'I' for Inactive)
REMARK    1  A    between atoms: C_2  and  S_1 
REMARK    2  A    between atoms: C_5  and  S_1 
REMARK    3  A    between atoms: C_7  and  C_5 
REMARK       I    between atoms: N_9  and  C_7 
REMARK    4  A    between atoms: C_8  and  N_9 
ROOT
ATOM      1  S   UNL d   1      33.121  19.172 -23.219  0.00  0.00     0.217 S 
ATOM      2  O   UNL d   1      33.240  19.279 -24.035  0.00  0.00    -0.217 OA
ATOM      3  O   UNL d   1      33.002  19.065 -22.401  0.00  0.00    -0.217 OA
ENDROOT
BRANCH   1   4
ATOM      4  C   UNL d   1      33.159  19.989 -23.103  0.00  0.00     0.109 A 
ATOM      5  C   UNL d   1      33.220  20.561 -23.694  0.00  0.00     0.110 A 
ATOM      6  N   UNL d   1      33.241  21.299 -23.335  0.00  0.00    -0.243 NA
ATOM      7  C   UNL d   1      33.192  21.185 -22.517  0.00  0.00     0.082 A 
ATOM      8  C   UNL d   1      33.141  20.376 -22.381  0.00  0.00     0.030 A 
ATOM      9  C   UNL d   1      33.186  21.715 -21.885  0.00  0.00     0.019 A 
ATOM     10  C   UNL d   1      33.085  20.089 -21.608  0.00  0.00     0.002 A 
ATOM     11  C   UNL d   1      33.080  20.619 -20.977  0.00  0.00     0.000 A 
ATOM     12  C   UNL d   1      33.130  21.426 -21.116  0.00  0.00     0.002 A 
ENDBRANCH   1   4
BRANCH   1  13
ATOM     13  C   UNL d   1      33.082  18.341 -23.330  0.00  0.00     0.161 C 
BRANCH  13  14
ATOM     14  C   UNL d   1      32.455  18.020 -23.765  0.00  0.00     0.291 C 
ATOM     15  N   UNL d   1      32.074  17.345 -23.481  0.00  0.00    -0.207 NA
ATOM     16  O   UNL d   1      32.212  18.364 -24.467  0.00  0.00    -0.264 OA
BRANCH  15  17
ATOM     17  C   UNL d   1      31.447  17.021 -23.913  0.00  0.00     0.085 A 
ATOM     18  C   UNL d   1      31.476  16.233 -24.150  0.00  0.00     0.018 A 
ATOM     19  C   UNL d   1      30.855  15.900 -24.581  0.00  0.00     0.002 A 
ATOM     20  C   UNL d   1      32.139  15.766 -23.953  0.00  0.00     0.002 C 
ATOM     21  C   UNL d   1      30.201  16.361 -24.775  0.00  0.00     0.000 A 
ATOM     22  C   UNL d   1      30.165  17.150 -24.541  0.00  0.00     0.002 A 
ATOM     23  C   UNL d   1      30.790  17.479 -24.109  0.00  0.00     0.019 A 
ATOM     24  C   UNL d   1      29.501  17.627 -24.735  0.00  0.00     0.000 C 
ENDBRANCH  15  17
ENDBRANCH  13  14
ENDBRANCH   1  13
TORSDOF 4
ENDMDL
MODEL 4
REMARK VINA RESULT:      -0.3      2.480      5.107
REMARK  4 active torsions:
REMARK  status: ('A' for Active; 'I' for Inactive)
REMARK    1  A    between atoms: C_2  and  S_1 
REMARK    2  A    between atoms: C_5  and  S_1 
REMARK    3  A    between atoms: C_7  and  C_5 
REMARK       I    between atoms: N_9  and  C_7 
REMARK    4  A    between atoms: C_8  and  N_9 
ROOT
ATOM      1  S   UNL d   1      31.962  16.962 -23.926  0.00  0.00     0.217 S 
ATOM      2  O   UNL d   1      32.704  16.659 -23.710  0.00  0.00    -0.217 OA
ATOM      3  O   UNL d   1      31.217  17.268 -24.144  0.00  0.00    -0.217 OA
ENDROOT
BRANCH   1   4
ATOM      4  C   UNL d   1      32.316  17.674 -24.154  0.00  0.00     0.109 A 
ATOM      5  C   UNL d   1      32.455  17.921 -24.928  0.00  0.00     0.110 A 
ATOM      6  N   UNL d   1      32.816  18.658 -24.900  0.00  0.00    -0.243 NA
ATOM      7  C   UNL d   1      32.901  18.869 -24.105  0.00  0.00     0.082 A 
ATOM      8  C   UNL d   1      32.591  18.259 -23.650  0.00  0.00     0.030 A 
ATOM      9  C   UNL d   1      33.221  19.538 -23.743  0.00  0.00     0.019 A 
ATOM     10  C   UNL d   1      32.598  18.312 -22.826  0.00  0.00     0.002 A 
ATOM     11  C   UNL d   1      32.918  18.980 -22.464  0.00  0.00     0.000 A 
ATOM     12  C   UNL d   1      33.226  19.588 -22.921  0.00  0.00     0.002 A 
ENDBRANCH   1   4
BRANCH   1  13
ATOM     13  C   UNL d   1      31.596  16.243 -23.698  0.00  0.00     0.161 C 
BRANCH  13  14
ATOM     14  C   UNL d   1      30.790  16.131 -23.854  0.00  0.00     0.291 C 
ATOM     15  N   UNL d   1      30.291  15.902 -23.239  0.00  0.00    -0.207 NA
ATOM     16  O   UNL d   1      30.489  16.246 -24.606  0.00  0.00    -0.264 OA
BRANCH  15  17
ATOM     17  C   UNL d   1      29.485  15.789 -23.390  0.00  0.00     0.085 A 
ATOM     18  C   UNL d   1      28.979  15.568 -22.779  0.00  0.00     0.018 A 
ATOM     19  C   UNL d   1      28.174  15.453 -22.921  0.00  0.00     0.002 A 
ATOM     20  C   UNL d   1      29.284  15.459 -22.010  0.00  0.00     0.002 C 
ATOM     21  C   UNL d   1      27.873  15.560 -23.680  0.00  0.00     0.000 A 
ATOM     22  C   UNL d   1      28.374  15.782 -24.296  0.00  0.00     0.002 A 
ATOM     23  C   UNL d   1      29.181  15.896 -24.149  0.00  0.00     0.019 A 
ATOM     24  C   UNL d   1      28.075  15.893 -25.074  0.00  0.00     0.000 C 
ENDBRANCH  15  17
ENDBRANCH  13  14
ENDBRANCH   1  13
TORSDOF 4
ENDMDL
MODEL 5
REMARK VINA RESULT:      -0.3      1.066      4.887
REMARK  4 active torsions:
REMARK  status: ('A' for Active; 'I' for Inactive)
REMARK    1  A    between atoms: C_2  and  S_1 
REMARK    2  A    between atoms: C_5  and  S_1 
REMARK    3  A    between atoms: C_7  and  C_5 
REMARK       I    between atoms: N_9  and  C_7 
REMARK    4  A    between atoms: C_8  and  N_9 
ROOT
ATOM      1  S   UNL d   1      33.132  18.777 -23.265  0.00  0.00     0.217 S 
ATOM      2  O   UNL d   1      33.191  18.188 -22.682  0.00  0.00    -0.217 OA
ATOM      3  O   UNL d   1      33.073  19.369 -23.849  0.00  0.00    -0.217 OA
ENDROOT
BRANCH   1   4
ATOM      4  C   UNL d   1      33.164  19.362 -22.681  0.00  0.00     0.109 A 
ATOM      5  C   UNL d   1      33.181  19.233 -21.867  0.00  0.00     0.110 A 
ATOM      6  N   UNL d   1      33.212  19.964 -21.493  0.00  0.00    -0.243 NA
ATOM      7  C   UNL d   1      33.215  20.548 -22.079  0.00  0.00     0.082 A 
ATOM      8  C   UNL d   1      33.185  20.170 -22.808  0.00  0.00     0.030 A 
ATOM      9  C   UNL d   1      33.240  21.372 -22.036  0.00  0.00     0.019 A 
ATOM     10  C   UNL d   1      33.180  20.615 -23.504  0.00  0.00     0.002 A 
ATOM     11  C   UNL d   1      33.205  21.438 -23.462  0.00  0.00     0.000 A 
ATOM     12  C   UNL d   1      33.235  21.812 -22.732  0.00  0.00     0.002 A 
ENDBRANCH   1   4
BRANCH   1  13
ATOM     13  C   UNL d   1      33.099  18.190 -23.862  0.00  0.00     0.161 C 
BRANCH  13  14
ATOM     14  C   UNL d   1      32.441  17.688 -23.901  0.00  0.00     0.291 C 
ATOM     15  N   UNL d   1      32.120  17.504 -24.638  0.00  0.00    -0.207 NA
ATOM     16  O   UNL d   1      32.111  17.377 -23.220  0.00  0.00    -0.264 OA
BRANCH  15  17
ATOM     17  C   UNL d   1      31.463  17.003 -24.682  0.00  0.00     0.085 A 
ATOM     18  C   UNL d   1      31.559  16.217 -24.906  0.00  0.00     0.018 A 
ATOM     19  C   UNL d   1      30.909  15.709 -24.952  0.00  0.00     0.002 A 
ATOM     20  C   UNL d   1      32.322  15.930 -25.088  0.00  0.00     0.002 C 
ATOM     21  C   UNL d   1      30.157  15.992 -24.772  0.00  0.00     0.000 A 
ATOM     22  C   UNL d   1      30.054  16.779 -24.547  0.00  0.00     0.002 A 
ATOM     23  C   UNL d   1      30.708  17.283 -24.502  0.00  0.00     0.019 A 
ATOM     24  C   UNL d   1      29.289  17.075 -24.361  0.00  0.00     0.000 C 
ENDBRANCH  15  17
ENDBRANCH  13  14
ENDBRANCH   1  13
TORSDOF 4
ENDMDL
