MODEL 1
REMARK VINA RESULT:      -8.5      0.000      0.000
REMARK  3 active torsions:
REMARK  status: ('A' for Active; 'I' for Inactive)
REMARK    1  A    between atoms: C_4  and  C_1 
REMARK    2  A    between atoms: O_10  and  C_4 
REMARK    3  A    between atoms: C_13  and  O_10 
ROOT
ATOM      1  C   UNL d   1      53.196  31.920  53.277  0.00  0.00     0.121 A 
ATOM      2  C   UNL d   1      52.558  32.406  53.023  0.00  0.00     0.204 A 
ATOM      3  C   UNL d   1      52.593  33.210  53.156  0.00  0.00     0.057 A 
ATOM      4  N   UNL d   1      53.853  33.083  53.777  0.00  0.00    -0.244 NA
ATOM      5  C   UNL d   1      53.845  32.259  53.654  0.00  0.00     0.107 A 
ATOM      6  C   UNL d   1      53.241  33.549  53.533  0.00  0.00     0.085 A 
ATOM      7  O   UNL d   1      51.916  32.071  52.649  0.00  0.00    -0.286 OA
ATOM      8  C   UNL d   1      51.958  33.688  52.903  0.00  0.00     0.005 A 
ATOM      9  C   UNL d   1      53.253  34.365  53.657  0.00  0.00     0.019 A 
ATOM     10  C   UNL d   1      51.983  34.511  53.034  0.00  0.00     0.000 A 
ATOM     11  C   UNL d   1      52.632  34.850  53.411  0.00  0.00     0.002 A 
ENDROOT
BRANCH   1  12
ATOM     12  C   UNL d   1      53.170  31.100  53.145  0.00  0.00     0.305 C 
ATOM     13  O   UNL d   1      53.081  30.803  52.378  0.00  0.00    -0.259 OA
BRANCH  12  14
ATOM     14  O   UNL d   1      53.230  30.592  53.767  0.00  0.00    -0.271 OA
BRANCH  14  15
ATOM     15  C   UNL d   1      53.249  29.779  53.633  0.00  0.00     0.126 C 
ATOM     16  C   UNL d   1      53.295  29.250  54.275  0.00  0.00     0.029 C 
ENDBRANCH  14  15
ENDBRANCH  12  14
ENDBRANCH   1  12
TORSDOF 3
ENDMDL
MODEL 2
REMARK VINA RESULT:      -8.3      1.647      3.294
REMARK  3 active torsions:
REMARK  status: ('A' for Active; 'I' for Inactive)
REMARK    1  A    between atoms: C_4  and  C_1 
REMARK    2  A    between atoms: O_10  and  C_4 
REMARK    3  A    between atoms: C_13  and  O_10 
ROOT
ATOM      1  C   UNL d   1      52.256  34.152  53.310  0.00  0.00     0.121 A 
ATOM      2  C   UNL d   1      52.600  33.404  53.483  0.00  0.00     0.204 A 
ATOM      3  C   UNL d   1      53.215  33.362  54.016  0.00  0.00     0.057 A 
ATOM      4  N   UNL d   1      53.174  34.757  54.219  0.00  0.00    -0.244 NA
ATOM      5  C   UNL d   1      52.544  34.830  53.679  0.00  0.00     0.107 A 
ATOM      6  C   UNL d   1      53.503  34.040  54.384  0.00  0.00     0.085 A 
ATOM      7  O   UNL d   1      52.315  32.733  53.118  0.00  0.00    -0.286 OA
ATOM      8  C   UNL d   1      53.553  32.618  54.184  0.00  0.00     0.005 A 
ATOM      9  C   UNL d   1      54.127  33.972  54.920  0.00  0.00     0.019 A 
ATOM     10  C   UNL d   1      54.183  32.565  54.728  0.00  0.00     0.000 A 
ATOM     11  C   UNL d   1      54.470  33.242  55.096  0.00  0.00     0.002 A 
ENDROOT
BRANCH   1  12
ATOM     12  C   UNL d   1      51.628  34.205  52.768  0.00  0.00     0.305 C 
ATOM     13  O   UNL d   1      51.771  34.131  51.956  0.00  0.00    -0.259 OA
BRANCH  12  14
ATOM     14  O   UNL d   1      50.878  34.327  53.034  0.00  0.00    -0.271 OA
BRANCH  14  15
ATOM     15  C   UNL d   1      50.269  34.465  52.497  0.00  0.00     0.126 C 
ATOM     16  C   UNL d   1      49.521  34.713  52.766  0.00  0.00     0.029 C 
ENDBRANCH  14  15
ENDBRANCH  12  14
ENDBRANCH   1  12
TORSDOF 3
ENDMDL
MODEL 3
REMARK VINA RESULT:      -8.2      1.410      3.539
REMARK  3 active torsions:
REMARK  status: ('A' for Active; 'I' for Inactive)
REMARK    1  A    between atoms: C_4  and  C_1 
REMARK    2  A    between atoms: O_10  and  C_4 
REMARK    3  A    between atoms: C_13  and  O_10 
ROOT
ATOM      1  C   UNL d   1      53.399  32.659  53.562  0.00  0.00     0.121 A 
ATOM      2  C   UNL d   1      53.603  31.964  53.992  0.00  0.00     0.204 A 
ATOM      3  C   UNL d   1      53.361  31.238  53.712  0.00  0.00     0.057 A 
ATOM      4  N   UNL d   1      52.726  31.842  52.606  0.00  0.00    -0.244 NA
ATOM      5  C   UNL d   1      52.960  32.598  52.869  0.00  0.00     0.107 A 
ATOM      6  C   UNL d   1      52.922  31.177  53.018  0.00  0.00     0.085 A 
ATOM      7  O   UNL d   1      54.038  32.025  54.678  0.00  0.00    -0.286 OA
ATOM      8  C   UNL d   1      53.565  30.552  54.140  0.00  0.00     0.005 A 
ATOM      9  C   UNL d   1      52.688  30.431  52.755  0.00  0.00     0.019 A 
ATOM     10  C   UNL d   1      53.322  29.805  53.862  0.00  0.00     0.000 A 
ATOM     11  C   UNL d   1      52.883  29.744  53.169  0.00  0.00     0.002 A 
ENDROOT
BRANCH   1  12
ATOM     12  C   UNL d   1      53.642  33.404  53.840  0.00  0.00     0.305 C 
ATOM     13  O   UNL d   1      54.447  33.590  53.887  0.00  0.00    -0.259 OA
BRANCH  12  14
ATOM     14  O   UNL d   1      53.092  33.946  54.065  0.00  0.00    -0.271 OA
BRANCH  14  15
ATOM     15  C   UNL d   1      53.321  34.722  54.224  0.00  0.00     0.126 C 
ATOM     16  C   UNL d   1      52.748  35.301  54.399  0.00  0.00     0.029 C 
ENDBRANCH  14  15
ENDBRANCH  12  14
ENDBRANCH   1  12
TORSDOF 3
ENDMDL
MODEL 4
REMARK VINA RESULT:      -8.2      1.026      1.481
REMARK  3 active torsions:
REMARK  status: ('A' for Active; 'I' for Inactive)
REMARK    1  A    between atoms: C_4  and  C_1 
REMARK    2  A    between atoms: O_10  and  C_4 
REMARK    3  A    between atoms: C_13  and  O_10 
ROOT
ATOM      1  C   UNL d   1      53.357  32.355  53.529  0.00  0.00     0.121 A 
ATOM      2  C   UNL d   1      53.594  32.896  54.129  0.00  0.00     0.204 A 
ATOM      3  C   UNL d   1      53.300  33.656  54.117  0.00  0.00     0.057 A 
ATOM      4  N   UNL d   1      52.550  33.381  52.955  0.00  0.00    -0.244 NA
ATOM      5  C   UNL d   1      52.835  32.598  52.941  0.00  0.00     0.107 A 
ATOM      6  C   UNL d   1      52.778  33.899  53.530  0.00  0.00     0.085 A 
ATOM      7  O   UNL d   1      54.111  32.656  54.711  0.00  0.00    -0.286 OA
ATOM      8  C   UNL d   1      53.537  34.189  54.714  0.00  0.00     0.005 A 
ATOM      9  C   UNL d   1      52.494  34.674  53.539  0.00  0.00     0.019 A 
ATOM     10  C   UNL d   1      53.242  34.969  54.711  0.00  0.00     0.000 A 
ATOM     11  C   UNL d   1      52.720  35.212  54.123  0.00  0.00     0.002 A 
ENDROOT
BRANCH   1  12
ATOM     12  C   UNL d   1      53.652  31.578  53.533  0.00  0.00     0.305 C 
ATOM     13  O   UNL d   1      54.455  31.435  53.390  0.00  0.00    -0.259 OA
BRANCH  12  14
ATOM     14  O   UNL d   1      53.154  30.962  53.676  0.00  0.00    -0.271 OA
BRANCH  14  15
ATOM     15  C   UNL d   1      53.392  30.193  53.500  0.00  0.00     0.126 C 
ATOM     16  C   UNL d   1      52.911  29.546  53.711  0.00  0.00     0.029 C 
ENDBRANCH  14  15
ENDBRANCH  12  14
ENDBRANCH   1  12
TORSDOF 3
ENDMDL
MODEL 5
REMARK VINA RESULT:      -7.1      1.877      2.546
REMARK  3 active torsions:
REMARK  status: ('A' for Active; 'I' for Inactive)
REMARK    1  A    between atoms: C_4  and  C_1 
REMARK    2  A    between atoms: O_10  and  C_4 
REMARK    3  A    between atoms: C_13  and  O_10 
ROOT
ATOM      1  C   UNL d   1      53.153  33.724  53.583  0.00  0.00     0.121 A 
ATOM      2  C   UNL d   1      52.470  33.236  53.512  0.00  0.00     0.204 A 
ATOM      3  C   UNL d   1      51.772  33.565  53.252  0.00  0.00     0.057 A 
ATOM      4  N   UNL d   1      52.380  34.831  53.125  0.00  0.00    -0.244 NA
ATOM      5  C   UNL d   1      53.108  34.522  53.389  0.00  0.00     0.107 A 
ATOM      6  C   UNL d   1      51.726  34.364  53.058  0.00  0.00     0.085 A 
ATOM      7  O   UNL d   1      52.515  32.445  53.704  0.00  0.00    -0.286 OA
ATOM      8  C   UNL d   1      51.098  33.079  53.183  0.00  0.00     0.005 A 
ATOM      9  C   UNL d   1      51.008  34.674  52.796  0.00  0.00     0.019 A 
ATOM     10  C   UNL d   1      50.378  33.405  52.918  0.00  0.00     0.000 A 
ATOM     11  C   UNL d   1      50.333  34.204  52.724  0.00  0.00     0.002 A 
ENDROOT
BRANCH   1  12
ATOM     12  C   UNL d   1      53.870  33.397  53.848  0.00  0.00     0.305 C 
ATOM     13  O   UNL d   1      54.329  32.932  53.339  0.00  0.00    -0.259 OA
BRANCH  12  14
ATOM     14  O   UNL d   1      54.118  33.532  54.601  0.00  0.00    -0.271 OA
BRANCH  14  15
ATOM     15  C   UNL d   1      54.906  33.402  54.804  0.00  0.00     0.126 C 
ATOM     16  C   UNL d   1      55.199  33.669  55.536  0.00  0.00     0.029 C 
ENDBRANCH  14  15
ENDBRANCH  12  14
ENDBRANCH   1  12
TORSDOF 3
ENDMDL
