MODEL 1
REMARK VINA RESULT:     133.6      0.000      0.000
REMARK  4 active torsions:
REMARK  status: ('A' for Active; 'I' for Inactive)
REMARK    1  A    between atoms: S_4  and  C_3 
REMARK    2  A    between atoms: C_12  and  S_4 
REMARK    3  A    between atoms: C_23  and  N_6 
REMARK    4  A    between atoms: C_27  and  C_23 
ROOT
ATOM      1  C   UNL d   1      58.784  48.687  51.224  0.00  0.00     0.155 A 
ATOM      2  C   UNL d   1      59.219  48.802  51.909  0.00  0.00     0.092 A 
ATOM      3  C   UNL d   1      58.008  48.971  52.639  0.00  0.00     0.124 A 
ATOM      4  N   UNL d   1      59.169  48.544  50.509  0.00  0.00    -0.210 NA
ATOM      5  N   UNL d   1      57.965  48.714  51.245  0.00  0.00    -0.273 N 
ATOM      6  C   UNL d   1      57.575  48.857  51.957  0.00  0.00     0.181 A 
ATOM      7  C   UNL d   1      60.044  48.775  51.889  0.00  0.00     0.269 A 
ATOM      8  N   UNL d   1      60.429  48.632  51.176  0.00  0.00    -0.258 N 
ATOM      9  C   UNL d   1      58.835  48.945  52.623  0.00  0.00     0.022 A 
ATOM     10  C   UNL d   1      59.991  48.516  50.486  0.00  0.00     0.152 A 
ATOM     11  N   UNL d   1      56.748  48.883  51.974  0.00  0.00    -0.128 N 
ATOM     12  C   UNL d   1      61.256  48.606  51.158  0.00  0.00     0.084 A 
ATOM     13  O   UNL d   1      60.475  48.892  52.583  0.00  0.00    -0.266 OA
ATOM     14  C   UNL d   1      60.381  48.374  49.780  0.00  0.00     0.038 A 
ATOM     15  C   UNL d   1      61.630  48.462  50.443  0.00  0.00     0.019 A 
ATOM     16  C   UNL d   1      61.192  48.347  49.753  0.00  0.00     0.005 A 
ENDROOT
BRANCH   3  17
ATOM     17  S   UNL d   1      57.616  49.115  53.358  0.00  0.00     0.213 S 
ATOM     18  O   UNL d   1      58.158  49.705  53.531  0.00  0.00    -0.217 OA
ATOM     19  O   UNL d   1      57.070  48.514  53.173  0.00  0.00    -0.217 OA
BRANCH  17  20
ATOM     20  C   UNL d   1      57.219  49.252  54.071  0.00  0.00     0.088 A 
ATOM     21  C   UNL d   1      57.592  49.073  54.785  0.00  0.00     0.011 A 
ATOM     22  C   UNL d   1      57.201  49.207  55.491  0.00  0.00     0.001 A 
ATOM     23  C   UNL d   1      57.573  49.029  56.206  0.00  0.00     0.000 C 
ATOM     24  C   UNL d   1      56.433  49.521  55.491  0.00  0.00     0.000 A 
ATOM     25  C   UNL d   1      56.060  49.700  54.777  0.00  0.00     0.001 A 
ATOM     26  C   UNL d   1      56.038  49.657  56.208  0.00  0.00     0.000 C 
ATOM     27  C   UNL d   1      56.455  49.565  54.059  0.00  0.00     0.011 A 
ENDBRANCH  17  20
ENDBRANCH   3  17
BRANCH   5  28
ATOM     28  C   UNL d   1      57.535  48.597  50.550  0.00  0.00     0.083 C 
BRANCH  28  29
ATOM     29  C   UNL d   1      56.714  48.519  50.587  0.00  0.00     0.019 C 
ATOM     30  C   UNL d   1      56.292  48.251  49.930  0.00  0.00     0.002 C 
ENDBRANCH  28  29
ENDBRANCH   5  28
TORSDOF 4
ENDMDL
