MODEL 1
REMARK VINA RESULT:      -7.8      0.000      0.000
REMARK  5 active torsions:
REMARK  status: ('A' for Active; 'I' for Inactive)
REMARK    1  A    between atoms: C_5  and  N_1 
REMARK    2  A    between atoms: C_2  and  N_3 
REMARK    3  A    between atoms: C_7  and  C_2 
REMARK    4  A    between atoms: N_4  and  C_8 
REMARK    5  A    between atoms: N_16  and  C_11 
ROOT
ATOM      1  N   UNL d   1      51.976  33.002  53.006  0.00  0.00    -0.293 N 
ATOM      2  N   UNL d   1      50.651  33.935  52.733  0.00  0.00    -0.301 N 
ATOM      3  C   UNL d   1      51.264  32.834  53.402  0.00  0.00     0.100 A 
ATOM      4  C   UNL d   1      52.025  33.624  52.484  0.00  0.00     0.100 A 
ATOM      5  C   UNL d   1      51.359  34.099  52.342  0.00  0.00     0.100 A 
ATOM      6  C   UNL d   1      50.609  33.297  53.266  0.00  0.00     0.100 A 
ENDROOT
BRANCH   1   7
ATOM      7  C   UNL d   1      52.639  32.528  53.149  0.00  0.00     0.120 C 
ATOM      8  S   UNL d   1      52.695  31.776  52.812  0.00  0.00    -0.059 SA
BRANCH   7   9
ATOM      9  C   UNL d   1      53.246  32.810  53.629  0.00  0.00     0.027 A 
ATOM     10  C   UNL d   1      53.110  32.953  54.426  0.00  0.00     0.004 A 
ATOM     11  C   UNL d   1      53.716  33.235  54.909  0.00  0.00     0.018 A 
ATOM     12  C   UNL d   1      54.467  33.374  54.579  0.00  0.00     0.064 A 
ATOM     13  C   UNL d   1      54.597  33.229  53.778  0.00  0.00     0.018 A 
ATOM     14  C   UNL d   1      53.991  32.948  53.302  0.00  0.00     0.004 A 
BRANCH  12  15
ATOM     15  N   UNL d   1      55.074  33.657  55.062  0.00  0.00    -0.301 N 
ATOM     16  C   UNL d   1      54.992  33.616  55.884  0.00  0.00     0.100 C 
ATOM     17  C   UNL d   1      55.757  33.978  54.726  0.00  0.00     0.100 C 
ENDBRANCH  12  15
ENDBRANCH   7   9
ENDBRANCH   1   7
BRANCH   2  18
ATOM     18  C   UNL d   1      49.986  34.406  52.594  0.00  0.00     0.064 A 
ATOM     19  C   UNL d   1      49.704  34.892  53.187  0.00  0.00     0.019 A 
ATOM     20  C   UNL d   1      49.040  35.363  53.048  0.00  0.00     0.025 A 
ATOM     21  C   UNL d   1      48.666  35.339  52.313  0.00  0.00     0.127 A 
ATOM     22  C   UNL d   1      48.952  34.847  51.713  0.00  0.00     0.025 A 
ATOM     23  C   UNL d   1      49.611  34.383  51.857  0.00  0.00     0.019 A 
BRANCH  21  24
ATOM     24  N   UNL d   1      48.004  35.808  52.174  0.00  0.00    -0.114 N 
ATOM     25  O   UNL d   1      47.870  36.484  52.633  0.00  0.00    -0.532 OA
ATOM     26  O   UNL d   1      47.470  35.610  51.579  0.00  0.00    -0.532 OA
ENDBRANCH  21  24
ENDBRANCH   2  18
TORSDOF 5
ENDMDL
MODEL 2
REMARK VINA RESULT:      -7.7      1.421      2.130
REMARK  5 active torsions:
REMARK  status: ('A' for Active; 'I' for Inactive)
REMARK    1  A    between atoms: C_5  and  N_1 
REMARK    2  A    between atoms: C_2  and  N_3 
REMARK    3  A    between atoms: C_7  and  C_2 
REMARK    4  A    between atoms: N_4  and  C_8 
REMARK    5  A    between atoms: N_16  and  C_11 
ROOT
ATOM      1  N   UNL d   1      51.997  33.749  53.135  0.00  0.00    -0.293 N 
ATOM      2  N   UNL d   1      50.547  34.288  52.578  0.00  0.00    -0.301 N 
ATOM      3  C   UNL d   1      51.958  34.159  52.412  0.00  0.00     0.100 A 
ATOM      4  C   UNL d   1      51.325  33.612  53.571  0.00  0.00     0.100 A 
ATOM      5  C   UNL d   1      50.589  33.881  53.295  0.00  0.00     0.100 A 
ATOM      6  C   UNL d   1      51.240  34.425  52.138  0.00  0.00     0.100 A 
ENDROOT
BRANCH   1   7
ATOM      7  C   UNL d   1      52.730  33.481  53.409  0.00  0.00     0.120 C 
ATOM      8  S   UNL d   1      53.302  34.019  53.666  0.00  0.00    -0.059 SA
BRANCH   7   9
ATOM      9  C   UNL d   1      52.889  32.673  53.423  0.00  0.00     0.027 A 
ATOM     10  C   UNL d   1      52.753  32.212  52.757  0.00  0.00     0.004 A 
ATOM     11  C   UNL d   1      52.911  31.403  52.770  0.00  0.00     0.018 A 
ATOM     12  C   UNL d   1      53.210  31.058  53.466  0.00  0.00     0.064 A 
ATOM     13  C   UNL d   1      53.343  31.526  54.131  0.00  0.00     0.018 A 
ATOM     14  C   UNL d   1      53.185  32.330  54.113  0.00  0.00     0.004 A 
BRANCH  12  15
ATOM     15  N   UNL d   1      53.368  30.249  53.479  0.00  0.00    -0.301 N 
ATOM     16  C   UNL d   1      54.148  29.987  53.567  0.00  0.00     0.100 C 
ATOM     17  C   UNL d   1      52.750  29.704  53.405  0.00  0.00     0.100 C 
ENDBRANCH  12  15
ENDBRANCH   7   9
ENDBRANCH   1   7
BRANCH   2  18
ATOM     18  C   UNL d   1      49.817  34.558  52.301  0.00  0.00     0.064 A 
ATOM     19  C   UNL d   1      49.360  35.043  52.774  0.00  0.00     0.019 A 
ATOM     20  C   UNL d   1      48.630  35.312  52.496  0.00  0.00     0.025 A 
ATOM     21  C   UNL d   1      48.368  35.091  51.746  0.00  0.00     0.127 A 
ATOM     22  C   UNL d   1      48.831  34.601  51.269  0.00  0.00     0.025 A 
ATOM     23  C   UNL d   1      49.554  34.337  51.549  0.00  0.00     0.019 A 
BRANCH  21  24
ATOM     24  N   UNL d   1      47.641  35.360  51.470  0.00  0.00    -0.114 N 
ATOM     25  O   UNL d   1      47.214  34.912  50.919  0.00  0.00    -0.532 OA
ATOM     26  O   UNL d   1      47.331  36.075  51.738  0.00  0.00    -0.532 OA
ENDBRANCH  21  24
ENDBRANCH   2  18
TORSDOF 5
ENDMDL
MODEL 3
REMARK VINA RESULT:      -6.3      2.589      5.613
REMARK  5 active torsions:
REMARK  status: ('A' for Active; 'I' for Inactive)
REMARK    1  A    between atoms: C_5  and  N_1 
REMARK    2  A    between atoms: C_2  and  N_3 
REMARK    3  A    between atoms: C_7  and  C_2 
REMARK    4  A    between atoms: N_4  and  C_8 
REMARK    5  A    between atoms: N_16  and  C_11 
ROOT
ATOM      1  N   UNL d   1      50.359  34.212  52.309  0.00  0.00    -0.293 N 
ATOM      2  N   UNL d   1      51.706  33.845  53.176  0.00  0.00    -0.301 N 
ATOM      3  C   UNL d   1      51.088  34.556  52.105  0.00  0.00     0.100 A 
ATOM      4  C   UNL d   1      50.304  33.695  52.933  0.00  0.00     0.100 A 
ATOM      5  C   UNL d   1      50.981  33.505  53.376  0.00  0.00     0.100 A 
ATOM      6  C   UNL d   1      51.754  34.373  52.535  0.00  0.00     0.100 A 
ENDROOT
BRANCH   1   7
ATOM      7  C   UNL d   1      49.685  34.402  51.867  0.00  0.00     0.120 C 
ATOM      8  S   UNL d   1      49.577  34.084  51.112  0.00  0.00    -0.059 SA
BRANCH   7   9
ATOM      9  C   UNL d   1      49.120  34.910  52.185  0.00  0.00     0.027 A 
ATOM     10  C   UNL d   1      49.209  35.203  52.947  0.00  0.00     0.004 A 
ATOM     11  C   UNL d   1      48.644  35.712  53.266  0.00  0.00     0.018 A 
ATOM     12  C   UNL d   1      47.983  35.926  52.808  0.00  0.00     0.064 A 
ATOM     13  C   UNL d   1      47.900  35.628  52.044  0.00  0.00     0.018 A 
ATOM     14  C   UNL d   1      48.465  35.122  51.731  0.00  0.00     0.004 A 
BRANCH  12  15
ATOM     15  N   UNL d   1      47.418  36.435  53.128  0.00  0.00    -0.301 N 
ATOM     16  C   UNL d   1      47.510  36.709  53.904  0.00  0.00     0.100 C 
ATOM     17  C   UNL d   1      46.766  36.668  52.677  0.00  0.00     0.100 C 
ENDBRANCH  12  15
ENDBRANCH   7   9
ENDBRANCH   1   7
BRANCH   2  18
ATOM     18  C   UNL d   1      52.381  33.658  53.614  0.00  0.00     0.064 A 
ATOM     19  C   UNL d   1      52.673  34.196  54.155  0.00  0.00     0.019 A 
ATOM     20  C   UNL d   1      53.349  34.009  54.592  0.00  0.00     0.025 A 
ATOM     21  C   UNL d   1      53.723  33.283  54.480  0.00  0.00     0.127 A 
ATOM     22  C   UNL d   1      53.427  32.739  53.933  0.00  0.00     0.025 A 
ATOM     23  C   UNL d   1      52.757  32.930  53.502  0.00  0.00     0.019 A 
BRANCH  21  24
ATOM     24  N   UNL d   1      54.396  33.097  54.916  0.00  0.00    -0.114 N 
ATOM     25  O   UNL d   1      55.142  33.347  54.656  0.00  0.00    -0.532 OA
ATOM     26  O   UNL d   1      54.334  32.662  55.613  0.00  0.00    -0.532 OA
ENDBRANCH  21  24
ENDBRANCH   2  18
TORSDOF 5
ENDMDL
MODEL 4
REMARK VINA RESULT:      -6.2      3.285      5.679
REMARK  5 active torsions:
REMARK  status: ('A' for Active; 'I' for Inactive)
REMARK    1  A    between atoms: C_5  and  N_1 
REMARK    2  A    between atoms: C_2  and  N_3 
REMARK    3  A    between atoms: C_7  and  C_2 
REMARK    4  A    between atoms: N_4  and  C_8 
REMARK    5  A    between atoms: N_16  and  C_11 
ROOT
ATOM      1  N   UNL d   1      52.359  33.348  53.047  0.00  0.00    -0.293 N 
ATOM      2  N   UNL d   1      52.774  31.828  53.515  0.00  0.00    -0.301 N 
ATOM      3  C   UNL d   1      52.529  33.194  53.846  0.00  0.00     0.100 A 
ATOM      4  C   UNL d   1      52.396  32.755  52.492  0.00  0.00     0.100 A 
ATOM      5  C   UNL d   1      52.605  31.984  52.723  0.00  0.00     0.100 A 
ATOM      6  C   UNL d   1      52.734  32.442  54.077  0.00  0.00     0.100 A 
ENDROOT
BRANCH   1   7
ATOM      7  C   UNL d   1      52.151  34.116  52.818  0.00  0.00     0.120 C 
ATOM      8  S   UNL d   1      52.710  34.724  52.841  0.00  0.00    -0.059 SA
BRANCH   7   9
ATOM      9  C   UNL d   1      51.382  34.272  52.568  0.00  0.00     0.027 A 
ATOM     10  C   UNL d   1      51.196  34.255  51.768  0.00  0.00     0.004 A 
ATOM     11  C   UNL d   1      50.426  34.411  51.516  0.00  0.00     0.018 A 
ATOM     12  C   UNL d   1      49.840  34.585  52.080  0.00  0.00     0.064 A 
ATOM     13  C   UNL d   1      50.034  34.600  52.881  0.00  0.00     0.018 A 
ATOM     14  C   UNL d   1      50.800  34.444  53.127  0.00  0.00     0.004 A 
BRANCH  12  15
ATOM     15  N   UNL d   1      49.071  34.741  51.827  0.00  0.00    -0.301 N 
ATOM     16  C   UNL d   1      48.822  34.468  51.087  0.00  0.00     0.100 C 
ATOM     17  C   UNL d   1      48.553  35.168  52.310  0.00  0.00     0.100 C 
ENDBRANCH  12  15
ENDBRANCH   7   9
ENDBRANCH   1   7
BRANCH   2  18
ATOM     18  C   UNL d   1      52.982  31.063  53.748  0.00  0.00     0.064 A 
ATOM     19  C   UNL d   1      53.360  30.948  54.463  0.00  0.00     0.019 A 
ATOM     20  C   UNL d   1      53.569  30.183  54.695  0.00  0.00     0.025 A 
ATOM     21  C   UNL d   1      53.394  29.543  54.206  0.00  0.00     0.127 A 
ATOM     22  C   UNL d   1      53.012  29.660  53.483  0.00  0.00     0.025 A 
ATOM     23  C   UNL d   1      52.807  30.421  53.257  0.00  0.00     0.019 A 
BRANCH  21  24
ATOM     24  N   UNL d   1      53.602  28.781  54.438  0.00  0.00    -0.114 N 
ATOM     25  O   UNL d   1      53.102  28.347  54.936  0.00  0.00    -0.532 OA
ATOM     26  O   UNL d   1      54.306  28.443  54.177  0.00  0.00    -0.532 OA
ENDBRANCH  21  24
ENDBRANCH   2  18
TORSDOF 5
ENDMDL
MODEL 5
REMARK VINA RESULT:      -6.1      3.026      6.234
REMARK  5 active torsions:
REMARK  status: ('A' for Active; 'I' for Inactive)
REMARK    1  A    between atoms: C_5  and  N_1 
REMARK    2  A    between atoms: C_2  and  N_3 
REMARK    3  A    between atoms: C_7  and  C_2 
REMARK    4  A    between atoms: N_4  and  C_8 
REMARK    5  A    between atoms: N_16  and  C_11 
ROOT
ATOM      1  N   UNL d   1      48.315  35.617  52.688  0.00  0.00    -0.293 N 
ATOM      2  N   UNL d   1      49.685  34.715  52.772  0.00  0.00    -0.301 N 
ATOM      3  C   UNL d   1      48.476  35.055  52.096  0.00  0.00     0.100 A 
ATOM      4  C   UNL d   1      48.828  35.726  53.309  0.00  0.00     0.100 A 
ATOM      5  C   UNL d   1      49.522  35.274  53.357  0.00  0.00     0.100 A 
ATOM      6  C   UNL d   1      49.155  34.609  52.140  0.00  0.00     0.100 A 
ENDROOT
BRANCH   1   7
ATOM      7  C   UNL d   1      47.622  36.068  52.638  0.00  0.00     0.120 C 
ATOM      8  S   UNL d   1      47.530  36.628  52.037  0.00  0.00    -0.059 SA
BRANCH   7   9
ATOM      9  C   UNL d   1      47.023  35.957  53.192  0.00  0.00     0.027 A 
ATOM     10  C   UNL d   1      47.111  36.237  53.960  0.00  0.00     0.004 A 
ATOM     11  C   UNL d   1      46.512  36.126  54.515  0.00  0.00     0.018 A 
ATOM     12  C   UNL d   1      45.818  35.727  54.291  0.00  0.00     0.064 A 
ATOM     13  C   UNL d   1      45.736  35.448  53.519  0.00  0.00     0.018 A 
ATOM     14  C   UNL d   1      46.334  35.561  52.970  0.00  0.00     0.004 A 
BRANCH  12  15
ATOM     15  N   UNL d   1      45.219  35.616  54.847  0.00  0.00    -0.301 N 
ATOM     16  C   UNL d   1      45.037  36.225  55.377  0.00  0.00     0.100 C 
ATOM     17  C   UNL d   1      44.804  34.901  54.874  0.00  0.00     0.100 C 
ENDBRANCH  12  15
ENDBRANCH   7   9
ENDBRANCH   1   7
BRANCH   2  18
ATOM     18  C   UNL d   1      50.375  34.262  52.817  0.00  0.00     0.064 A 
ATOM     19  C   UNL d   1      50.385  33.586  53.276  0.00  0.00     0.019 A 
ATOM     20  C   UNL d   1      51.075  33.134  53.321  0.00  0.00     0.025 A 
ATOM     21  C   UNL d   1      51.748  33.367  52.904  0.00  0.00     0.127 A 
ATOM     22  C   UNL d   1      51.737  34.051  52.440  0.00  0.00     0.025 A 
ATOM     23  C   UNL d   1      51.050  34.496  52.400  0.00  0.00     0.019 A 
BRANCH  21  24
ATOM     24  N   UNL d   1      52.435  32.917  52.949  0.00  0.00    -0.114 N 
ATOM     25  O   UNL d   1      52.496  32.208  52.524  0.00  0.00    -0.532 OA
ATOM     26  O   UNL d   1      53.067  33.165  53.415  0.00  0.00    -0.532 OA
ENDBRANCH  21  24
ENDBRANCH   2  18
TORSDOF 5
ENDMDL
