MODEL 1
REMARK VINA RESULT:      -6.5      0.000      0.000
REMARK  2 active torsions:
REMARK  status: ('A' for Active; 'I' for Inactive)
REMARK    1  A    between atoms: N_11  and  C_4 
REMARK    2  A    between atoms: C_16  and  N_12 
ROOT
ATOM      1  N   UNL d   1     -39.213  14.524  20.096  0.00  0.00    -0.195 N 
ATOM      2  C   UNL d   1     -39.494  14.574  20.854  0.00  0.00     0.168 A 
ATOM      3  C   UNL d   1     -39.142  14.170  21.446  0.00  0.00     0.073 A 
ATOM      4  C   UNL d   1     -39.577  14.935  19.517  0.00  0.00     0.153 A 
ATOM      5  N   UNL d   1     -38.228  13.664  20.517  0.00  0.00    -0.143 NA
ATOM      6  C   UNL d   1     -38.508  13.714  21.276  0.00  0.00     0.185 A 
ATOM      7  N   UNL d   1     -40.130  15.035  21.014  0.00  0.00    -0.227 NA
ATOM      8  C   UNL d   1     -39.419  14.219  22.196  0.00  0.00     0.007 A 
ATOM      9  N   UNL d   1     -38.141  13.298  21.864  0.00  0.00    -0.225 NA
ATOM     10  C   UNL d   1     -40.208  15.392  19.671  0.00  0.00     0.057 A 
ATOM     11  C   UNL d   1     -39.067  13.814  22.788  0.00  0.00     0.019 A 
ATOM     12  C   UNL d   1     -40.488  15.443  20.429  0.00  0.00     0.086 A 
ATOM     13  C   UNL d   1     -38.421  13.349  22.622  0.00  0.00     0.083 A 
ATOM     14  C   UNL d   1     -40.059  14.682  22.355  0.00  0.00     0.000 C 
ATOM     15  C   UNL d   1     -41.150  15.922  20.592  0.00  0.00     0.021 C 
ATOM     16  C   UNL d   1     -38.067  12.943  23.206  0.00  0.00     0.021 C 
ENDROOT
BRANCH   4  17
ATOM     17  N   UNL d   1     -39.282  14.878  18.738  0.00  0.00    -0.286 N 
ATOM     18  C   UNL d   1     -38.605  15.287  18.491  0.00  0.00     0.101 A 
ATOM     19  C   UNL d   1     -38.341  15.206  17.710  0.00  0.00     0.100 A 
ATOM     20  N   UNL d   1     -38.748  14.719  17.174  0.00  0.00    -0.301 N 
ATOM     21  C   UNL d   1     -39.437  14.301  17.417  0.00  0.00     0.100 A 
ATOM     22  C   UNL d   1     -39.698  14.384  18.198  0.00  0.00     0.101 A 
BRANCH  20  23
ATOM     23  C   UNL d   1     -38.480  14.642  16.394  0.00  0.00     0.064 A 
ATOM     24  C   UNL d   1     -38.212  13.911  16.115  0.00  0.00     0.016 A 
ATOM     25  C   UNL d   1     -38.209  13.253  16.612  0.00  0.00     0.002 C 
ATOM     26  C   UNL d   1     -37.940  13.832  15.323  0.00  0.00     0.001 A 
ATOM     27  C   UNL d   1     -37.940  14.497  14.812  0.00  0.00     0.000 A 
ATOM     28  C   UNL d   1     -38.214  15.237  15.101  0.00  0.00     0.002 A 
ATOM     29  C   UNL d   1     -38.481  15.306  15.886  0.00  0.00     0.018 A 
ENDBRANCH  20  23
ENDBRANCH   4  17
TORSDOF 2
ENDMDL
MODEL 2
REMARK VINA RESULT:      -6.4      7.690      9.567
REMARK  2 active torsions:
REMARK  status: ('A' for Active; 'I' for Inactive)
REMARK    1  A    between atoms: N_11  and  C_4 
REMARK    2  A    between atoms: C_16  and  N_12 
ROOT
ATOM      1  N   UNL d   1     -48.125  13.232  22.787  0.00  0.00    -0.195 N 
ATOM      2  C   UNL d   1     -48.895  13.444  22.924  0.00  0.00     0.168 A 
ATOM      3  C   UNL d   1     -49.441  12.895  23.118  0.00  0.00     0.073 A 
ATOM      4  C   UNL d   1     -47.592  13.794  22.595  0.00  0.00     0.153 A 
ATOM      5  N   UNL d   1     -48.444  11.919  23.037  0.00  0.00    -0.143 NA
ATOM      6  C   UNL d   1     -49.214  12.131  23.174  0.00  0.00     0.185 A 
ATOM      7  N   UNL d   1     -49.111  14.214  22.865  0.00  0.00    -0.227 NA
ATOM      8  C   UNL d   1     -50.202  13.105  23.253  0.00  0.00     0.007 A 
ATOM      9  N   UNL d   1     -49.755  11.563  23.369  0.00  0.00    -0.225 NA
ATOM     10  C   UNL d   1     -47.803  14.557  22.535  0.00  0.00     0.057 A 
ATOM     11  C   UNL d   1     -50.748  12.556  23.447  0.00  0.00     0.019 A 
ATOM     12  C   UNL d   1     -48.573  14.770  22.672  0.00  0.00     0.086 A 
ATOM     13  C   UNL d   1     -50.525  11.776  23.506  0.00  0.00     0.083 A 
ATOM     14  C   UNL d   1     -50.418  13.879  23.193  0.00  0.00     0.000 C 
ATOM     15  C   UNL d   1     -48.795  15.571  22.610  0.00  0.00     0.021 C 
ATOM     16  C   UNL d   1     -51.063  11.225  23.698  0.00  0.00     0.021 C 
ENDROOT
BRANCH   4  17
ATOM     17  N   UNL d   1     -46.801  13.566  22.455  0.00  0.00    -0.286 N 
ATOM     18  C   UNL d   1     -46.199  13.700  23.008  0.00  0.00     0.101 A 
ATOM     19  C   UNL d   1     -45.425  13.460  22.836  0.00  0.00     0.100 A 
ATOM     20  N   UNL d   1     -45.248  13.087  22.115  0.00  0.00    -0.301 N 
ATOM     21  C   UNL d   1     -45.854  12.947  21.548  0.00  0.00     0.100 A 
ATOM     22  C   UNL d   1     -46.627  13.188  21.723  0.00  0.00     0.101 A 
BRANCH  20  23
ATOM     23  C   UNL d   1     -44.473  12.849  21.947  0.00  0.00     0.064 A 
ATOM     24  C   UNL d   1     -44.157  12.172  22.302  0.00  0.00     0.016 A 
ATOM     25  C   UNL d   1     -44.614  11.728  22.826  0.00  0.00     0.002 C 
ATOM     26  C   UNL d   1     -43.370  11.930  22.132  0.00  0.00     0.001 A 
ATOM     27  C   UNL d   1     -42.901  12.377  21.599  0.00  0.00     0.000 A 
ATOM     28  C   UNL d   1     -43.227  13.064  21.242  0.00  0.00     0.002 A 
ATOM     29  C   UNL d   1     -44.007  13.296  21.416  0.00  0.00     0.018 A 
ENDBRANCH  20  23
ENDBRANCH   4  17
TORSDOF 2
ENDMDL
MODEL 3
REMARK VINA RESULT:      -6.3      7.987     10.026
REMARK  2 active torsions:
REMARK  status: ('A' for Active; 'I' for Inactive)
REMARK    1  A    between atoms: N_11  and  C_4 
REMARK    2  A    between atoms: C_16  and  N_12 
ROOT
ATOM      1  N   UNL d   1     -48.437  13.238  23.092  0.00  0.00    -0.195 N 
ATOM      2  C   UNL d   1     -49.222  13.221  23.294  0.00  0.00     0.168 A 
ATOM      3  C   UNL d   1     -49.655  13.892  23.302  0.00  0.00     0.073 A 
ATOM      4  C   UNL d   1     -48.019  12.558  23.089  0.00  0.00     0.153 A 
ATOM      5  N   UNL d   1     -48.516  14.597  22.905  0.00  0.00    -0.143 NA
ATOM      6  C   UNL d   1     -49.300  14.580  23.107  0.00  0.00     0.185 A 
ATOM      7  N   UNL d   1     -49.567  12.524  23.488  0.00  0.00    -0.227 NA
ATOM      8  C   UNL d   1     -50.430  13.875  23.503  0.00  0.00     0.007 A 
ATOM      9  N   UNL d   1     -49.725  15.268  23.111  0.00  0.00    -0.225 NA
ATOM     10  C   UNL d   1     -48.359  11.867  23.280  0.00  0.00     0.057 A 
ATOM     11  C   UNL d   1     -50.863  14.546  23.511  0.00  0.00     0.019 A 
ATOM     12  C   UNL d   1     -49.143  11.849  23.483  0.00  0.00     0.086 A 
ATOM     13  C   UNL d   1     -50.509  15.251  23.313  0.00  0.00     0.083 A 
ATOM     14  C   UNL d   1     -50.776  13.174  23.698  0.00  0.00     0.000 C 
ATOM     15  C   UNL d   1     -49.499  11.124  23.684  0.00  0.00     0.021 C 
ATOM     16  C   UNL d   1     -50.934  15.922  23.320  0.00  0.00     0.021 C 
ENDROOT
BRANCH   4  17
ATOM     17  N   UNL d   1     -47.212  12.585  22.879  0.00  0.00    -0.286 N 
ATOM     18  C   UNL d   1     -46.611  12.670  23.443  0.00  0.00     0.101 A 
ATOM     19  C   UNL d   1     -45.820  12.693  23.198  0.00  0.00     0.100 A 
ATOM     20  N   UNL d   1     -45.624  12.631  22.393  0.00  0.00    -0.301 N 
ATOM     21  C   UNL d   1     -46.228  12.544  21.813  0.00  0.00     0.100 A 
ATOM     22  C   UNL d   1     -47.019  12.522  22.062  0.00  0.00     0.101 A 
BRANCH  20  23
ATOM     23  C   UNL d   1     -44.832  12.654  22.153  0.00  0.00     0.064 A 
ATOM     24  C   UNL d   1     -44.300  12.077  22.412  0.00  0.00     0.016 A 
ATOM     25  C   UNL d   1     -44.555  11.473  22.913  0.00  0.00     0.002 C 
ATOM     26  C   UNL d   1     -43.495  12.100  22.169  0.00  0.00     0.001 A 
ATOM     27  C   UNL d   1     -43.229  12.711  21.660  0.00  0.00     0.000 A 
ATOM     28  C   UNL d   1     -43.775  13.295  21.400  0.00  0.00     0.002 A 
ATOM     29  C   UNL d   1     -44.569  13.265  21.646  0.00  0.00     0.018 A 
ENDBRANCH  20  23
ENDBRANCH   4  17
TORSDOF 2
ENDMDL
MODEL 4
REMARK VINA RESULT:      -6.2      7.309      9.640
REMARK  2 active torsions:
REMARK  status: ('A' for Active; 'I' for Inactive)
REMARK    1  A    between atoms: N_11  and  C_4 
REMARK    2  A    between atoms: C_16  and  N_12 
ROOT
ATOM      1  N   UNL d   1     -45.920  12.388  22.838  0.00  0.00    -0.195 N 
ATOM      2  C   UNL d   1     -45.142  12.210  22.700  0.00  0.00     0.168 A 
ATOM      3  C   UNL d   1     -44.834  11.515  22.946  0.00  0.00     0.073 A 
ATOM      4  C   UNL d   1     -46.212  13.087  22.584  0.00  0.00     0.153 A 
ATOM      5  N   UNL d   1     -46.086  11.180  23.470  0.00  0.00    -0.143 NA
ATOM      6  C   UNL d   1     -45.308  11.001  23.332  0.00  0.00     0.185 A 
ATOM      7  N   UNL d   1     -44.676  12.734  22.312  0.00  0.00    -0.227 NA
ATOM      8  C   UNL d   1     -44.065  11.339  22.810  0.00  0.00     0.007 A 
ATOM      9  N   UNL d   1     -45.011  10.294  23.588  0.00  0.00    -0.225 NA
ATOM     10  C   UNL d   1     -45.753  13.608  22.200  0.00  0.00     0.057 A 
ATOM     11  C   UNL d   1     -43.757  10.644  23.057  0.00  0.00     0.019 A 
ATOM     12  C   UNL d   1     -44.975  13.430  22.062  0.00  0.00     0.086 A 
ATOM     13  C   UNL d   1     -44.233  10.115  23.450  0.00  0.00     0.083 A 
ATOM     14  C   UNL d   1     -43.598  11.866  22.420  0.00  0.00     0.000 C 
ATOM     15  C   UNL d   1     -44.493  13.977  21.658  0.00  0.00     0.021 C 
ATOM     16  C   UNL d   1     -43.933   9.422  23.698  0.00  0.00     0.021 C 
ENDROOT
BRANCH   4  17
ATOM     17  N   UNL d   1     -47.015  13.263  22.731  0.00  0.00    -0.286 N 
ATOM     18  C   UNL d   1     -47.264  13.640  23.425  0.00  0.00     0.101 A 
ATOM     19  C   UNL d   1     -48.070  13.799  23.536  0.00  0.00     0.100 A 
ATOM     20  N   UNL d   1     -48.628  13.585  22.959  0.00  0.00    -0.301 N 
ATOM     21  C   UNL d   1     -48.382  13.202  22.251  0.00  0.00     0.100 A 
ATOM     22  C   UNL d   1     -47.576  13.044  22.143  0.00  0.00     0.101 A 
BRANCH  20  23
ATOM     23  C   UNL d   1     -49.431  13.747  23.075  0.00  0.00     0.064 A 
ATOM     24  C   UNL d   1     -49.743  14.485  22.873  0.00  0.00     0.016 A 
ATOM     25  C   UNL d   1     -49.254  15.068  22.554  0.00  0.00     0.002 C 
ATOM     26  C   UNL d   1     -50.559  14.650  22.991  0.00  0.00     0.001 A 
ATOM     27  C   UNL d   1     -51.062  14.062  23.315  0.00  0.00     0.000 A 
ATOM     28  C   UNL d   1     -50.740  13.313  23.518  0.00  0.00     0.002 A 
ATOM     29  C   UNL d   1     -49.931  13.159  23.398  0.00  0.00     0.018 A 
ENDBRANCH  20  23
ENDBRANCH   4  17
TORSDOF 2
ENDMDL
MODEL 5
REMARK VINA RESULT:      -6.0      6.895      9.344
REMARK  2 active torsions:
REMARK  status: ('A' for Active; 'I' for Inactive)
REMARK    1  A    between atoms: N_11  and  C_4 
REMARK    2  A    between atoms: C_16  and  N_12 
ROOT
ATOM      1  N   UNL d   1     -45.672  12.609  22.577  0.00  0.00    -0.195 N 
ATOM      2  C   UNL d   1     -44.986  12.178  22.575  0.00  0.00     0.168 A 
ATOM      3  C   UNL d   1     -44.333  12.454  22.208  0.00  0.00     0.073 A 
ATOM      4  C   UNL d   1     -46.315  12.317  22.948  0.00  0.00     0.153 A 
ATOM      5  N   UNL d   1     -45.054  13.595  21.847  0.00  0.00    -0.143 NA
ATOM      6  C   UNL d   1     -44.368  13.164  21.844  0.00  0.00     0.185 A 
ATOM      7  N   UNL d   1     -44.962  11.466  22.943  0.00  0.00    -0.227 NA
ATOM      8  C   UNL d   1     -43.654  12.028  22.205  0.00  0.00     0.007 A 
ATOM      9  N   UNL d   1     -43.715  13.458  21.469  0.00  0.00    -0.225 NA
ATOM     10  C   UNL d   1     -46.295  11.613  23.314  0.00  0.00     0.057 A 
ATOM     11  C   UNL d   1     -43.001  12.305  21.839  0.00  0.00     0.019 A 
ATOM     12  C   UNL d   1     -45.609  11.182  23.312  0.00  0.00     0.086 A 
ATOM     13  C   UNL d   1     -43.029  13.027  21.466  0.00  0.00     0.083 A 
ATOM     14  C   UNL d   1     -43.631  11.313  22.576  0.00  0.00     0.000 C 
ATOM     15  C   UNL d   1     -45.587  10.443  23.696  0.00  0.00     0.021 C 
ATOM     16  C   UNL d   1     -42.383  13.308  21.100  0.00  0.00     0.021 C 
ENDROOT
BRANCH   4  17
ATOM     17  N   UNL d   1     -47.018  12.768  22.946  0.00  0.00    -0.286 N 
ATOM     18  C   UNL d   1     -47.192  13.317  23.542  0.00  0.00     0.101 A 
ATOM     19  C   UNL d   1     -47.899  13.747  23.507  0.00  0.00     0.100 A 
ATOM     20  N   UNL d   1     -48.435  13.632  22.882  0.00  0.00    -0.301 N 
ATOM     21  C   UNL d   1     -48.265  13.076  22.273  0.00  0.00     0.100 A 
ATOM     22  C   UNL d   1     -47.557  12.648  22.311  0.00  0.00     0.101 A 
BRANCH  20  23
ATOM     23  C   UNL d   1     -49.140  14.064  22.852  0.00  0.00     0.064 A 
ATOM     24  C   UNL d   1     -49.142  14.843  22.574  0.00  0.00     0.016 A 
ATOM     25  C   UNL d   1     -48.440  15.196  22.324  0.00  0.00     0.002 C 
ATOM     26  C   UNL d   1     -49.859  15.282  22.543  0.00  0.00     0.001 A 
ATOM     27  C   UNL d   1     -50.577  14.930  22.795  0.00  0.00     0.000 A 
ATOM     28  C   UNL d   1     -50.569  14.138  23.077  0.00  0.00     0.002 A 
ATOM     29  C   UNL d   1     -49.855  13.711  23.104  0.00  0.00     0.018 A 
ENDBRANCH  20  23
ENDBRANCH   4  17
TORSDOF 2
ENDMDL
MODEL 6
REMARK VINA RESULT:      -5.8      7.647      9.807
REMARK  2 active torsions:
REMARK  status: ('A' for Active; 'I' for Inactive)
REMARK    1  A    between atoms: N_11  and  C_4 
REMARK    2  A    between atoms: C_16  and  N_12 
ROOT
ATOM      1  N   UNL d   1     -47.657  13.181  22.367  0.00  0.00    -0.195 N 
ATOM      2  C   UNL d   1     -48.209  13.750  22.197  0.00  0.00     0.168 A 
ATOM      3  C   UNL d   1     -48.924  13.548  21.904  0.00  0.00     0.073 A 
ATOM      4  C   UNL d   1     -46.948  13.401  22.660  0.00  0.00     0.153 A 
ATOM      5  N   UNL d   1     -48.532  12.207  21.951  0.00  0.00    -0.143 NA
ATOM      6  C   UNL d   1     -49.084  12.776  21.781  0.00  0.00     0.185 A 
ATOM      7  N   UNL d   1     -48.037  14.522  22.325  0.00  0.00    -0.227 NA
ATOM      8  C   UNL d   1     -49.469  14.110  21.736  0.00  0.00     0.007 A 
ATOM      9  N   UNL d   1     -49.803  12.556  21.484  0.00  0.00    -0.225 NA
ATOM     10  C   UNL d   1     -46.774  14.165  22.788  0.00  0.00     0.057 A 
ATOM     11  C   UNL d   1     -50.184  13.908  21.442  0.00  0.00     0.019 A 
ATOM     12  C   UNL d   1     -47.326  14.733  22.618  0.00  0.00     0.086 A 
ATOM     13  C   UNL d   1     -50.355  13.124  21.314  0.00  0.00     0.083 A 
ATOM     14  C   UNL d   1     -49.295  14.886  21.864  0.00  0.00     0.000 C 
ATOM     15  C   UNL d   1     -47.144  15.535  22.751  0.00  0.00     0.021 C 
ATOM     16  C   UNL d   1     -51.064  12.917  21.022  0.00  0.00     0.021 C 
ENDROOT
BRANCH   4  17
ATOM     17  N   UNL d   1     -46.385  12.808  22.833  0.00  0.00    -0.286 N 
ATOM     18  C   UNL d   1     -46.443  12.326  23.504  0.00  0.00     0.101 A 
ATOM     19  C   UNL d   1     -45.865  11.749  23.643  0.00  0.00     0.100 A 
ATOM     20  N   UNL d   1     -45.230  11.649  23.117  0.00  0.00    -0.301 N 
ATOM     21  C   UNL d   1     -45.164  12.135  22.432  0.00  0.00     0.100 A 
ATOM     22  C   UNL d   1     -45.743  12.712  22.296  0.00  0.00     0.101 A 
BRANCH  20  23
ATOM     23  C   UNL d   1     -44.656  11.071  23.260  0.00  0.00     0.064 A 
ATOM     24  C   UNL d   1     -44.873  10.328  23.550  0.00  0.00     0.016 A 
ATOM     25  C   UNL d   1     -45.667  10.157  23.698  0.00  0.00     0.002 C 
ATOM     26  C   UNL d   1     -44.290   9.739  23.696  0.00  0.00     0.001 A 
ATOM     27  C   UNL d   1     -43.482   9.906  23.547  0.00  0.00     0.000 A 
ATOM     28  C   UNL d   1     -43.266  10.663  23.253  0.00  0.00     0.002 A 
ATOM     29  C   UNL d   1     -43.850  11.239  23.111  0.00  0.00     0.018 A 
ENDBRANCH  20  23
ENDBRANCH   4  17
TORSDOF 2
ENDMDL
