MODEL 1
REMARK VINA RESULT:      -9.0      0.000      0.000
REMARK  6 active torsions:
REMARK  status: ('A' for Active; 'I' for Inactive)
REMARK    1  A    between atoms: C_7  and  C_1 
REMARK    2  A    between atoms: O_11  and  C_2 
REMARK    3  A    between atoms: O_13  and  C_10 
REMARK    4  A    between atoms: C_20  and  O_11 
REMARK    5  A    between atoms: C_21  and  C_12 
REMARK    6  A    between atoms: C_14  and  O_13 
ROOT
ATOM      1  C   UNL d   1     -48.151  14.459  22.759  0.00  0.00     0.197 A 
ATOM      2  C   UNL d   1     -48.625  13.856  23.117  0.00  0.00     0.165 A 
ATOM      3  O   UNL d   1     -47.345  14.323  22.631  0.00  0.00    -0.301 OA
ATOM      4  C   UNL d   1     -48.263  13.145  23.330  0.00  0.00     0.222 A 
ATOM      5  C   UNL d   1     -47.459  13.008  23.203  0.00  0.00     0.064 A 
ATOM      6  C   UNL d   1     -47.000  13.618  22.845  0.00  0.00     0.105 A 
ATOM      7  C   UNL d   1     -47.117  12.305  23.417  0.00  0.00     0.007 A 
ATOM      8  C   UNL d   1     -46.194  13.485  22.716  0.00  0.00     0.050 A 
ATOM      9  C   UNL d   1     -45.853  12.773  22.933  0.00  0.00     0.105 A 
ATOM     10  C   UNL d   1     -46.315  12.172  23.288  0.00  0.00     0.023 A 
ATOM     11  O   UNL d   1     -48.746  12.544  23.690  0.00  0.00    -0.284 OA
ENDROOT
BRANCH   2  12
ATOM     12  O   UNL d   1     -49.431  13.975  23.252  0.00  0.00    -0.302 OA
BRANCH  12  13
ATOM     13  C   UNL d   1     -49.977  13.489  22.885  0.00  0.00     0.100 A 
ATOM     14  C   UNL d   1     -50.471  12.985  23.322  0.00  0.00     0.025 A 
ATOM     15  C   UNL d   1     -51.000  12.517  22.938  0.00  0.00     0.002 A 
ATOM     16  C   UNL d   1     -51.064  12.526  22.114  0.00  0.00     0.000 A 
ATOM     17  C   UNL d   1     -50.583  13.017  21.697  0.00  0.00     0.002 A 
ATOM     18  C   UNL d   1     -50.041  13.498  22.061  0.00  0.00     0.025 A 
ENDBRANCH  12  13
ENDBRANCH   2  12
BRANCH   1  19
ATOM     19  C   UNL d   1     -48.475  15.183  22.532  0.00  0.00     0.442 C 
ATOM     20  F   UNL d   1     -48.805  15.922  22.309  0.00  0.00    -0.164 F 
ATOM     21  F   UNL d   1     -48.407  14.969  21.724  0.00  0.00    -0.164 F 
ATOM     22  F   UNL d   1     -48.543  15.397  23.345  0.00  0.00    -0.164 F 
ENDBRANCH   1  19
BRANCH  10  23
ATOM     23  C   UNL d   1     -45.991  11.448  23.515  0.00  0.00     0.002 C 
ATOM     24  C   UNL d   1     -46.407  10.922  23.697  0.00  0.00     0.000 C 
ENDBRANCH  10  23
BRANCH   9  25
ATOM     25  O   UNL d   1     -45.051  12.655  22.799  0.00  0.00    -0.273 OA
BRANCH  25  26
ATOM     26  C   UNL d   1     -44.678  12.988  22.145  0.00  0.00     0.300 C 
ATOM     27  O   UNL d   1     -44.771  13.797  21.972  0.00  0.00    -0.259 OA
ATOM     28  C   UNL d   1     -44.215  12.537  21.655  0.00  0.00     0.074 C 
ENDBRANCH  25  26
ENDBRANCH   9  25
TORSDOF 6
ENDMDL
MODEL 2
REMARK VINA RESULT:      -8.2      1.729      2.508
REMARK  6 active torsions:
REMARK  status: ('A' for Active; 'I' for Inactive)
REMARK    1  A    between atoms: C_7  and  C_1 
REMARK    2  A    between atoms: O_11  and  C_2 
REMARK    3  A    between atoms: O_13  and  C_10 
REMARK    4  A    between atoms: C_20  and  O_11 
REMARK    5  A    between atoms: C_21  and  C_12 
REMARK    6  A    between atoms: C_14  and  O_13 
ROOT
ATOM      1  C   UNL d   1     -49.386  12.332  22.777  0.00  0.00     0.197 A 
ATOM      2  C   UNL d   1     -49.443  13.104  22.435  0.00  0.00     0.165 A 
ATOM      3  O   UNL d   1     -48.647  12.042  23.010  0.00  0.00    -0.301 OA
ATOM      4  C   UNL d   1     -48.753  13.547  22.344  0.00  0.00     0.222 A 
ATOM      5  C   UNL d   1     -48.014  13.259  22.577  0.00  0.00     0.064 A 
ATOM      6  C   UNL d   1     -47.973  12.488  22.916  0.00  0.00     0.105 A 
ATOM      7  C   UNL d   1     -47.344  13.705  22.482  0.00  0.00     0.007 A 
ATOM      8  C   UNL d   1     -47.236  12.196  23.150  0.00  0.00     0.050 A 
ATOM      9  C   UNL d   1     -46.561  12.650  23.052  0.00  0.00     0.105 A 
ATOM     10  C   UNL d   1     -46.610  13.414  22.715  0.00  0.00     0.023 A 
ATOM     11  O   UNL d   1     -48.818  14.323  22.000  0.00  0.00    -0.284 OA
ENDROOT
BRANCH   2  12
ATOM     12  O   UNL d   1     -50.173  13.410  22.196  0.00  0.00    -0.302 OA
BRANCH  12  13
ATOM     13  C   UNL d   1     -50.461  14.087  22.551  0.00  0.00     0.100 A 
ATOM     14  C   UNL d   1     -50.600  14.122  23.369  0.00  0.00     0.025 A 
ATOM     15  C   UNL d   1     -50.884  14.801  23.695  0.00  0.00     0.002 A 
ATOM     16  C   UNL d   1     -51.043  15.468  23.232  0.00  0.00     0.000 A 
ATOM     17  C   UNL d   1     -50.906  15.426  22.441  0.00  0.00     0.002 A 
ATOM     18  C   UNL d   1     -50.620  14.754  22.088  0.00  0.00     0.025 A 
ENDBRANCH  12  13
ENDBRANCH   2  12
BRANCH   1  19
ATOM     19  C   UNL d   1     -50.053  11.858  22.884  0.00  0.00     0.442 C 
ATOM     20  F   UNL d   1     -50.732  11.375  22.986  0.00  0.00    -0.164 F 
ATOM     21  F   UNL d   1     -50.075  12.062  23.697  0.00  0.00    -0.164 F 
ATOM     22  F   UNL d   1     -50.029  11.655  22.066  0.00  0.00    -0.164 F 
ENDBRANCH   1  19
BRANCH  10  23
ATOM     23  C   UNL d   1     -45.943  13.888  22.607  0.00  0.00     0.002 C 
ATOM     24  C   UNL d   1     -45.850  14.453  23.001  0.00  0.00     0.000 C 
ENDBRANCH  10  23
BRANCH   9  25
ATOM     25  O   UNL d   1     -45.836  12.346  23.289  0.00  0.00    -0.273 OA
BRANCH  25  26
ATOM     26  C   UNL d   1     -45.720  11.534  23.359  0.00  0.00     0.300 C 
ATOM     27  O   UNL d   1     -46.308  11.052  23.698  0.00  0.00    -0.259 OA
ATOM     28  C   UNL d   1     -45.033  11.188  23.102  0.00  0.00     0.074 C 
ENDBRANCH  25  26
ENDBRANCH   9  25
TORSDOF 6
ENDMDL
MODEL 3
REMARK VINA RESULT:      -8.0      1.077      1.444
REMARK  6 active torsions:
REMARK  status: ('A' for Active; 'I' for Inactive)
REMARK    1  A    between atoms: C_7  and  C_1 
REMARK    2  A    between atoms: O_11  and  C_2 
REMARK    3  A    between atoms: O_13  and  C_10 
REMARK    4  A    between atoms: C_20  and  O_11 
REMARK    5  A    between atoms: C_21  and  C_12 
REMARK    6  A    between atoms: C_14  and  O_13 
ROOT
ATOM      1  C   UNL d   1     -47.070  13.871  22.521  0.00  0.00     0.197 A 
ATOM      2  C   UNL d   1     -47.456  13.291  23.002  0.00  0.00     0.165 A 
ATOM      3  O   UNL d   1     -46.291  13.744  22.273  0.00  0.00    -0.301 OA
ATOM      4  C   UNL d   1     -47.037  12.610  23.211  0.00  0.00     0.222 A 
ATOM      5  C   UNL d   1     -46.259  12.483  22.964  0.00  0.00     0.064 A 
ATOM      6  C   UNL d   1     -45.888  13.069  22.485  0.00  0.00     0.105 A 
ATOM      7  C   UNL d   1     -45.860  11.809  23.177  0.00  0.00     0.007 A 
ATOM      8  C   UNL d   1     -45.109  12.945  22.236  0.00  0.00     0.050 A 
ATOM      9  C   UNL d   1     -44.710  12.264  22.453  0.00  0.00     0.105 A 
ATOM     10  C   UNL d   1     -45.085  11.686  22.929  0.00  0.00     0.023 A 
ATOM     11  O   UNL d   1     -47.431  12.032  23.695  0.00  0.00    -0.284 OA
ENDROOT
BRANCH   2  12
ATOM     12  O   UNL d   1     -48.233  13.401  23.258  0.00  0.00    -0.302 OA
BRANCH  12  13
ATOM     13  C   UNL d   1     -48.815  12.880  23.016  0.00  0.00     0.100 A 
ATOM     14  C   UNL d   1     -48.914  12.685  22.215  0.00  0.00     0.025 A 
ATOM     15  C   UNL d   1     -49.494  12.170  22.001  0.00  0.00     0.002 A 
ATOM     16  C   UNL d   1     -49.996  11.829  22.563  0.00  0.00     0.000 A 
ATOM     17  C   UNL d   1     -49.894  12.023  23.336  0.00  0.00     0.002 A 
ATOM     18  C   UNL d   1     -49.317  12.539  23.578  0.00  0.00     0.025 A 
ENDBRANCH  12  13
ENDBRANCH   2  12
BRANCH   1  19
ATOM     19  C   UNL d   1     -47.455  14.564  22.291  0.00  0.00     0.442 C 
ATOM     20  F   UNL d   1     -47.845  15.272  22.064  0.00  0.00    -0.164 F 
ATOM     21  F   UNL d   1     -47.583  14.247  21.525  0.00  0.00    -0.164 F 
ATOM     22  F   UNL d   1     -47.325  14.880  23.062  0.00  0.00    -0.164 F 
ENDBRANCH   1  19
BRANCH  10  23
ATOM     23  C   UNL d   1     -44.700  10.993  23.159  0.00  0.00     0.002 C 
ATOM     24  C   UNL d   1     -45.036  10.518  23.539  0.00  0.00     0.000 C 
ENDBRANCH  10  23
BRANCH   9  25
ATOM     25  O   UNL d   1     -43.937  12.154  22.198  0.00  0.00    -0.273 OA
BRANCH  25  26
ATOM     26  C   UNL d   1     -43.618  12.622  21.601  0.00  0.00     0.300 C 
ATOM     27  O   UNL d   1     -43.900  12.559  20.820  0.00  0.00    -0.259 OA
ATOM     28  C   UNL d   1     -43.025  13.153  21.759  0.00  0.00     0.074 C 
ENDBRANCH  25  26
ENDBRANCH   9  25
TORSDOF 6
ENDMDL
MODEL 4
REMARK VINA RESULT:      -7.8      1.610      2.354
REMARK  6 active torsions:
REMARK  status: ('A' for Active; 'I' for Inactive)
REMARK    1  A    between atoms: C_7  and  C_1 
REMARK    2  A    between atoms: O_11  and  C_2 
REMARK    3  A    between atoms: O_13  and  C_10 
REMARK    4  A    between atoms: C_20  and  O_11 
REMARK    5  A    between atoms: C_21  and  C_12 
REMARK    6  A    between atoms: C_14  and  O_13 
ROOT
ATOM      1  C   UNL d   1     -48.565  12.149  22.889  0.00  0.00     0.197 A 
ATOM      2  C   UNL d   1     -48.917  12.910  23.005  0.00  0.00     0.165 A 
ATOM      3  O   UNL d   1     -47.746  12.088  22.792  0.00  0.00    -0.301 OA
ATOM      4  C   UNL d   1     -48.426  13.573  23.018  0.00  0.00     0.222 A 
ATOM      5  C   UNL d   1     -47.607  13.513  22.921  0.00  0.00     0.064 A 
ATOM      6  C   UNL d   1     -47.272  12.749  22.807  0.00  0.00     0.105 A 
ATOM      7  C   UNL d   1     -47.137  14.174  22.936  0.00  0.00     0.007 A 
ATOM      8  C   UNL d   1     -46.453  12.685  22.709  0.00  0.00     0.050 A 
ATOM      9  C   UNL d   1     -45.982  13.354  22.725  0.00  0.00     0.105 A 
ATOM     10  C   UNL d   1     -46.322  14.110  22.840  0.00  0.00     0.023 A 
ATOM     11  O   UNL d   1     -48.787  14.335  23.136  0.00  0.00    -0.284 OA
ENDROOT
BRANCH   2  12
ATOM     12  O   UNL d   1     -49.733  12.989  23.104  0.00  0.00    -0.302 OA
BRANCH  12  13
ATOM     13  C   UNL d   1     -50.166  13.413  22.555  0.00  0.00     0.100 A 
ATOM     14  C   UNL d   1     -50.146  13.223  21.747  0.00  0.00     0.025 A 
ATOM     15  C   UNL d   1     -50.580  13.655  21.226  0.00  0.00     0.002 A 
ATOM     16  C   UNL d   1     -51.050  14.288  21.477  0.00  0.00     0.000 A 
ATOM     17  C   UNL d   1     -51.064  14.466  22.261  0.00  0.00     0.002 A 
ATOM     18  C   UNL d   1     -50.636  14.046  22.806  0.00  0.00     0.025 A 
ENDBRANCH  12  13
ENDBRANCH   2  12
BRANCH   1  19
ATOM     19  C   UNL d   1     -49.022  11.462  22.870  0.00  0.00     0.442 C 
ATOM     20  F   UNL d   1     -49.486  10.763  22.843  0.00  0.00    -0.164 F 
ATOM     21  F   UNL d   1     -49.144  11.511  23.698  0.00  0.00    -0.164 F 
ATOM     22  F   UNL d   1     -48.899  11.414  22.037  0.00  0.00    -0.164 F 
ENDBRANCH   1  19
BRANCH  10  23
ATOM     23  C   UNL d   1     -45.865  14.797  22.859  0.00  0.00     0.002 C 
ATOM     24  C   UNL d   1     -46.108  15.384  22.578  0.00  0.00     0.000 C 
ENDBRANCH  10  23
BRANCH   9  25
ATOM     25  O   UNL d   1     -45.170  13.275  22.627  0.00  0.00    -0.273 OA
BRANCH  25  26
ATOM     26  C   UNL d   1     -44.836  12.547  22.439  0.00  0.00     0.300 C 
ATOM     27  O   UNL d   1     -44.839  11.925  22.992  0.00  0.00    -0.259 OA
ATOM     28  C   UNL d   1     -44.496  12.419  21.713  0.00  0.00     0.074 C 
ENDBRANCH  25  26
ENDBRANCH   9  25
TORSDOF 6
ENDMDL
MODEL 5
REMARK VINA RESULT:      -6.8      1.721      4.600
REMARK  6 active torsions:
REMARK  status: ('A' for Active; 'I' for Inactive)
REMARK    1  A    between atoms: C_7  and  C_1 
REMARK    2  A    between atoms: O_11  and  C_2 
REMARK    3  A    between atoms: O_13  and  C_10 
REMARK    4  A    between atoms: C_20  and  O_11 
REMARK    5  A    between atoms: C_21  and  C_12 
REMARK    6  A    between atoms: C_14  and  O_13 
ROOT
ATOM      1  C   UNL d   1     -47.356  12.039  22.884  0.00  0.00     0.197 A 
ATOM      2  C   UNL d   1     -46.812  12.656  23.083  0.00  0.00     0.165 A 
ATOM      3  O   UNL d   1     -48.139  12.228  22.699  0.00  0.00    -0.301 OA
ATOM      4  C   UNL d   1     -47.085  13.435  23.088  0.00  0.00     0.222 A 
ATOM      5  C   UNL d   1     -47.868  13.626  22.904  0.00  0.00     0.064 A 
ATOM      6  C   UNL d   1     -48.397  13.000  22.707  0.00  0.00     0.105 A 
ATOM      7  C   UNL d   1     -48.121  14.396  22.913  0.00  0.00     0.007 A 
ATOM      8  C   UNL d   1     -49.181  13.187  22.523  0.00  0.00     0.050 A 
ATOM      9  C   UNL d   1     -49.433  13.966  22.533  0.00  0.00     0.105 A 
ATOM     10  C   UNL d   1     -48.902  14.582  22.729  0.00  0.00     0.023 A 
ATOM     11  O   UNL d   1     -46.533  14.050  23.290  0.00  0.00    -0.284 OA
ENDROOT
BRANCH   2  12
ATOM     12  O   UNL d   1     -46.026  12.485  23.270  0.00  0.00    -0.302 OA
BRANCH  12  13
ATOM     13  C   UNL d   1     -45.439  12.639  22.722  0.00  0.00     0.100 A 
ATOM     14  C   UNL d   1     -45.487  13.288  22.207  0.00  0.00     0.025 A 
ATOM     15  C   UNL d   1     -44.897  13.419  21.676  0.00  0.00     0.002 A 
ATOM     16  C   UNL d   1     -44.239  12.919  21.632  0.00  0.00     0.000 A 
ATOM     17  C   UNL d   1     -44.199  12.293  22.135  0.00  0.00     0.002 A 
ATOM     18  C   UNL d   1     -44.781  12.139  22.678  0.00  0.00     0.025 A 
ENDBRANCH  12  13
ENDBRANCH   2  12
BRANCH   1  19
ATOM     19  C   UNL d   1     -47.121  11.247  22.868  0.00  0.00     0.442 C 
ATOM     20  F   UNL d   1     -46.885  10.442  22.844  0.00  0.00    -0.164 F 
ATOM     21  F   UNL d   1     -46.935  11.279  23.685  0.00  0.00    -0.164 F 
ATOM     22  F   UNL d   1     -47.310  11.218  22.047  0.00  0.00    -0.164 F 
ENDBRANCH   1  19
BRANCH  10  23
ATOM     23  C   UNL d   1     -49.136  15.373  22.745  0.00  0.00     0.002 C 
ATOM     24  C   UNL d   1     -48.711  15.866  22.504  0.00  0.00     0.000 C 
ENDBRANCH  10  23
BRANCH   9  25
ATOM     25  O   UNL d   1     -50.216  14.136  22.347  0.00  0.00    -0.273 OA
BRANCH  25  26
ATOM     26  C   UNL d   1     -50.766  13.533  22.239  0.00  0.00     0.300 C 
ATOM     27  O   UNL d   1     -51.063  13.111  22.892  0.00  0.00    -0.259 OA
ATOM     28  C   UNL d   1     -51.029  13.337  21.497  0.00  0.00     0.074 C 
ENDBRANCH  25  26
ENDBRANCH   9  25
TORSDOF 6
ENDMDL
MODEL 6
REMARK VINA RESULT:      -6.8      1.221      4.051
REMARK  6 active torsions:
REMARK  status: ('A' for Active; 'I' for Inactive)
REMARK    1  A    between atoms: C_7  and  C_1 
REMARK    2  A    between atoms: O_11  and  C_2 
REMARK    3  A    between atoms: O_13  and  C_10 
REMARK    4  A    between atoms: C_20  and  O_11 
REMARK    5  A    between atoms: C_21  and  C_12 
REMARK    6  A    between atoms: C_14  and  O_13 
ROOT
ATOM      1  C   UNL d   1     -47.180  14.165  22.826  0.00  0.00     0.197 A 
ATOM      2  C   UNL d   1     -46.868  13.468  23.192  0.00  0.00     0.165 A 
ATOM      3  O   UNL d   1     -47.980  14.194  22.618  0.00  0.00    -0.301 OA
ATOM      4  C   UNL d   1     -47.378  12.834  23.330  0.00  0.00     0.222 A 
ATOM      5  C   UNL d   1     -48.177  12.862  23.122  0.00  0.00     0.064 A 
ATOM      6  C   UNL d   1     -48.473  13.562  22.759  0.00  0.00     0.105 A 
ATOM      7  C   UNL d   1     -48.666  12.231  23.265  0.00  0.00     0.007 A 
ATOM      8  C   UNL d   1     -49.272  13.594  22.550  0.00  0.00     0.050 A 
ATOM      9  C   UNL d   1     -49.763  12.954  22.695  0.00  0.00     0.105 A 
ATOM     10  C   UNL d   1     -49.462  12.262  23.056  0.00  0.00     0.023 A 
ATOM     11  O   UNL d   1     -47.057  12.137  23.698  0.00  0.00    -0.284 OA
ENDROOT
BRANCH   2  12
ATOM     12  O   UNL d   1     -46.071  13.422  23.406  0.00  0.00    -0.302 OA
BRANCH  12  13
ATOM     13  C   UNL d   1     -45.566  12.941  22.979  0.00  0.00     0.100 A 
ATOM     14  C   UNL d   1     -45.309  13.151  22.218  0.00  0.00     0.025 A 
ATOM     15  C   UNL d   1     -44.812  12.661  21.818  0.00  0.00     0.002 A 
ATOM     16  C   UNL d   1     -44.550  11.950  22.148  0.00  0.00     0.000 A 
ATOM     17  C   UNL d   1     -44.803  11.754  22.886  0.00  0.00     0.002 A 
ATOM     18  C   UNL d   1     -45.304  12.230  23.310  0.00  0.00     0.025 A 
ENDBRANCH  12  13
ENDBRANCH   2  12
BRANCH   1  19
ATOM     19  C   UNL d   1     -46.702  14.820  22.671  0.00  0.00     0.442 C 
ATOM     20  F   UNL d   1     -46.219  15.486  22.506  0.00  0.00    -0.164 F 
ATOM     21  F   UNL d   1     -46.466  14.847  23.475  0.00  0.00    -0.164 F 
ATOM     22  F   UNL d   1     -46.941  14.791  21.863  0.00  0.00    -0.164 F 
ENDBRANCH   1  19
BRANCH  10  23
ATOM     23  C   UNL d   1     -49.939  11.607  23.211  0.00  0.00     0.002 C 
ATOM     24  C   UNL d   1     -49.740  11.135  23.680  0.00  0.00     0.000 C 
ENDBRANCH  10  23
BRANCH   9  25
ATOM     25  O   UNL d   1     -50.555  13.001  22.482  0.00  0.00    -0.273 OA
BRANCH  25  26
ATOM     26  C   UNL d   1     -50.883  13.710  22.222  0.00  0.00     0.300 C 
ATOM     27  O   UNL d   1     -51.051  14.320  22.763  0.00  0.00    -0.259 OA
ATOM     28  C   UNL d   1     -51.048  13.829  21.437  0.00  0.00     0.074 C 
ENDBRANCH  25  26
ENDBRANCH   9  25
TORSDOF 6
ENDMDL
MODEL 7
REMARK VINA RESULT:      -6.4      8.139     10.054
REMARK  6 active torsions:
REMARK  status: ('A' for Active; 'I' for Inactive)
REMARK    1  A    between atoms: C_7  and  C_1 
REMARK    2  A    between atoms: O_11  and  C_2 
REMARK    3  A    between atoms: O_13  and  C_10 
REMARK    4  A    between atoms: C_20  and  O_11 
REMARK    5  A    between atoms: C_21  and  C_12 
REMARK    6  A    between atoms: C_14  and  O_13 
ROOT
ATOM      1  C   UNL d   1     -39.102  13.482  18.374  0.00  0.00     0.197 A 
ATOM      2  C   UNL d   1     -39.605  14.033  17.973  0.00  0.00     0.165 A 
ATOM      3  O   UNL d   1     -39.057  13.498  19.200  0.00  0.00    -0.301 OA
ATOM      4  C   UNL d   1     -40.037  14.572  18.424  0.00  0.00     0.222 A 
ATOM      5  C   UNL d   1     -39.993  14.588  19.249  0.00  0.00     0.064 A 
ATOM      6  C   UNL d   1     -39.488  14.034  19.634  0.00  0.00     0.105 A 
ATOM      7  C   UNL d   1     -40.423  15.124  19.679  0.00  0.00     0.007 A 
ATOM      8  C   UNL d   1     -39.441  14.047  20.460  0.00  0.00     0.050 A 
ATOM      9  C   UNL d   1     -39.877  14.590  20.890  0.00  0.00     0.105 A 
ATOM     10  C   UNL d   1     -40.376  15.137  20.500  0.00  0.00     0.023 A 
ATOM     11  O   UNL d   1     -40.540  15.123  18.014  0.00  0.00    -0.284 OA
ENDROOT
BRANCH   2  12
ATOM     12  O   UNL d   1     -39.663  14.032  17.149  0.00  0.00    -0.302 OA
BRANCH  12  13
ATOM     13  C   UNL d   1     -39.236  14.577  16.715  0.00  0.00     0.100 A 
ATOM     14  C   UNL d   1     -38.749  14.342  16.084  0.00  0.00     0.025 A 
ATOM     15  C   UNL d   1     -38.339  14.897  15.671  0.00  0.00     0.002 A 
ATOM     16  C   UNL d   1     -38.390  15.700  15.861  0.00  0.00     0.000 A 
ATOM     17  C   UNL d   1     -38.863  15.920  16.473  0.00  0.00     0.002 A 
ATOM     18  C   UNL d   1     -39.287  15.380  16.904  0.00  0.00     0.025 A 
ENDBRANCH  12  13
ENDBRANCH   2  12
BRANCH   1  19
ATOM     19  C   UNL d   1     -38.654  12.927  17.960  0.00  0.00     0.442 C 
ATOM     20  F   UNL d   1     -38.192  12.366  17.540  0.00  0.00    -0.164 F 
ATOM     21  F   UNL d   1     -39.354  12.550  17.694  0.00  0.00    -0.164 F 
ATOM     22  F   UNL d   1     -37.951  13.309  18.227  0.00  0.00    -0.164 F 
ENDBRANCH   1  19
BRANCH  10  23
ATOM     23  C   UNL d   1     -40.825  15.692  20.915  0.00  0.00     0.002 C 
ATOM     24  C   UNL d   1     -41.431  15.911  20.658  0.00  0.00     0.000 C 
ENDBRANCH  10  23
BRANCH   9  25
ATOM     25  O   UNL d   1     -39.820  14.591  21.710  0.00  0.00    -0.273 OA
BRANCH  25  26
ATOM     26  C   UNL d   1     -39.175  14.248  22.089  0.00  0.00     0.300 C 
ATOM     27  O   UNL d   1     -38.420  14.597  22.036  0.00  0.00    -0.259 OA
ATOM     28  C   UNL d   1     -39.259  13.566  22.520  0.00  0.00     0.074 C 
ENDBRANCH  25  26
ENDBRANCH   9  25
TORSDOF 6
ENDMDL
MODEL 8
REMARK VINA RESULT:      -6.3      7.395      9.669
REMARK  6 active torsions:
REMARK  status: ('A' for Active; 'I' for Inactive)
REMARK    1  A    between atoms: C_7  and  C_1 
REMARK    2  A    between atoms: O_11  and  C_2 
REMARK    3  A    between atoms: O_13  and  C_10 
REMARK    4  A    between atoms: C_20  and  O_11 
REMARK    5  A    between atoms: C_21  and  C_12 
REMARK    6  A    between atoms: C_14  and  O_13 
ROOT
ATOM      1  C   UNL d   1     -38.949  14.836  19.465  0.00  0.00     0.197 A 
ATOM      2  C   UNL d   1     -39.663  15.258  19.631  0.00  0.00     0.165 A 
ATOM      3  O   UNL d   1     -38.742  14.677  18.680  0.00  0.00    -0.301 OA
ATOM      4  C   UNL d   1     -40.136  15.499  18.998  0.00  0.00     0.222 A 
ATOM      5  C   UNL d   1     -39.930  15.340  18.214  0.00  0.00     0.064 A 
ATOM      6  C   UNL d   1     -39.215  14.920  18.064  0.00  0.00     0.105 A 
ATOM      7  C   UNL d   1     -40.403  15.583  17.602  0.00  0.00     0.007 A 
ATOM      8  C   UNL d   1     -39.006  14.759  17.280  0.00  0.00     0.050 A 
ATOM      9  C   UNL d   1     -39.487  15.006  16.665  0.00  0.00     0.105 A 
ATOM     10  C   UNL d   1     -40.195  15.423  16.822  0.00  0.00     0.023 A 
ATOM     11  O   UNL d   1     -40.853  15.922  19.174  0.00  0.00    -0.284 OA
ENDROOT
BRANCH   2  12
ATOM     12  O   UNL d   1     -39.886  15.425  20.409  0.00  0.00    -0.302 OA
BRANCH  12  13
ATOM     13  C   UNL d   1     -40.583  15.117  20.704  0.00  0.00     0.100 A 
ATOM     14  C   UNL d   1     -40.695  14.298  20.783  0.00  0.00     0.025 A 
ATOM     15  C   UNL d   1     -41.391  14.019  21.076  0.00  0.00     0.002 A 
ATOM     16  C   UNL d   1     -41.999  14.531  21.302  0.00  0.00     0.000 A 
ATOM     17  C   UNL d   1     -41.883  15.322  21.223  0.00  0.00     0.002 A 
ATOM     18  C   UNL d   1     -41.192  15.629  20.930  0.00  0.00     0.025 A 
ENDBRANCH  12  13
ENDBRANCH   2  12
BRANCH   1  19
ATOM     19  C   UNL d   1     -38.450  14.579  20.070  0.00  0.00     0.442 C 
ATOM     20  F   UNL d   1     -37.941  14.323  20.686  0.00  0.00    -0.164 F 
ATOM     21  F   UNL d   1     -38.691  13.786  19.940  0.00  0.00    -0.164 F 
ATOM     22  F   UNL d   1     -38.209  15.376  20.198  0.00  0.00    -0.164 F 
ENDBRANCH   1  19
BRANCH  10  23
ATOM     23  C   UNL d   1     -40.694  15.681  16.217  0.00  0.00     0.002 C 
ATOM     24  C   UNL d   1     -41.327  15.922  16.368  0.00  0.00     0.000 C 
ENDBRANCH  10  23
BRANCH   9  25
ATOM     25  O   UNL d   1     -39.265  14.840  15.891  0.00  0.00    -0.273 OA
BRANCH  25  26
ATOM     26  C   UNL d   1     -38.477  14.709  15.696  0.00  0.00     0.300 C 
ATOM     27  O   UNL d   1     -37.948  15.348  15.622  0.00  0.00    -0.259 OA
ATOM     28  C   UNL d   1     -38.197  13.958  15.571  0.00  0.00     0.074 C 
ENDBRANCH  25  26
ENDBRANCH   9  25
TORSDOF 6
ENDMDL
