MODEL 1
REMARK VINA RESULT:      68.7      0.000      0.000
REMARK  3 active torsions:
REMARK  status: ('A' for Active; 'I' for Inactive)
REMARK    1  A    between atoms: C_7  and  N_1 
REMARK    2  A    between atoms: C_11  and  C_4 
REMARK    3  A    between atoms: C_9  and  C_7 
ROOT
ATOM      1  N   UNL d   1      60.334  49.389  51.737  0.00  0.00    -0.252 N 
ATOM      2  C   UNL d   1      59.771  49.591  52.345  0.00  0.00     0.354 A 
ATOM      3  C   UNL d   1      59.247  49.410  50.795  0.00  0.00     0.035 A 
ATOM      4  C   UNL d   1      60.061  49.300  50.964  0.00  0.00     0.070 A 
ATOM      5  N   UNL d   1      58.973  49.693  52.150  0.00  0.00    -0.192 NA
ATOM      6  C   UNL d   1      58.701  49.605  51.377  0.00  0.00     0.087 A 
ATOM      7  C   UNL d   1      59.010  49.314  50.013  0.00  0.00     0.010 A 
ATOM      8  O   UNL d   1      60.008  49.687  53.127  0.00  0.00    -0.244 OA
ATOM      9  C   UNL d   1      57.932  49.707  51.209  0.00  0.00     0.020 A 
ATOM     10  C   UNL d   1      58.214  49.415  49.809  0.00  0.00     0.035 A 
ATOM     11  C   UNL d   1      57.652  49.621  50.439  0.00  0.00     0.008 A 
ATOM     12 BR   UNL d   1      57.970  49.316  49.003  0.00  0.00    -0.049 Br
ENDROOT
BRANCH   4  13
ATOM     13  C   UNL d   1      60.552  49.114  50.380  0.00  0.00     0.016 A 
ATOM     14  C   UNL d   1      60.873  49.707  49.912  0.00  0.00     0.001 A 
ATOM     15  C   UNL d   1      61.393  49.525  49.292  0.00  0.00     0.000 A 
ATOM     16  C   UNL d   1      61.594  48.729  49.138  0.00  0.00     0.000 A 
ATOM     17  C   UNL d   1      61.276  48.127  49.604  0.00  0.00     0.000 A 
ATOM     18  C   UNL d   1      60.776  48.308  50.200  0.00  0.00     0.001 A 
ENDBRANCH   4  13
BRANCH   1  19
ATOM     19  C   UNL d   1      61.147  49.278  51.898  0.00  0.00     0.155 C 
BRANCH  19  20
ATOM     20  C   UNL d   1      61.384  49.098  52.670  0.00  0.00     0.230 C 
ATOM     21  O   UNL d   1      61.721  49.706  53.150  0.00  0.00    -0.643 OA
ATOM     22  O   UNL d   1      61.283  48.333  52.945  0.00  0.00    -0.643 OA
ENDBRANCH  19  20
ENDBRANCH   1  19
TORSDOF 3
ENDMDL
