MODEL 1
REMARK VINA RESULT:      -4.6      0.000      0.000
REMARK  6 active torsions:
REMARK  status: ('A' for Active; 'I' for Inactive)
REMARK    1  A    between atoms: C_8  and  C_3 
REMARK    2  A    between atoms: C_6  and  O_10 
REMARK    3  A    between atoms: S_9  and  C_8 
REMARK    4  A    between atoms: C_16  and  S_9 
REMARK    5  A    between atoms: O_10  and  C_17 
REMARK    6  A    between atoms: C_17  and  C_16 
ROOT
ATOM      1  S   UNL d   1      57.960  -0.442  30.599  0.00  0.00    -0.081 SA
ENDROOT
BRANCH   1   2
ATOM      2  C   UNL d   1      57.466   0.031  31.057  0.00  0.00     0.074 C 
BRANCH   2   3
ATOM      3  C   UNL d   1      56.968  -0.315  31.613  0.00  0.00     0.169 A 
ATOM      4  N   UNL d   1      56.606  -0.951  32.020  0.00  0.00    -0.225 NA
ATOM      5  C   UNL d   1      56.089  -0.629  32.595  0.00  0.00     0.101 A 
ATOM      6  C   UNL d   1      56.138   0.201  32.537  0.00  0.00     0.101 A 
ATOM      7  C   UNL d   1      55.582  -0.966  33.161  0.00  0.00     0.021 A 
ATOM      8  N   UNL d   1      56.678   0.403  31.934  0.00  0.00    -0.225 NA
ATOM      9  C   UNL d   1      55.680   0.677  33.046  0.00  0.00     0.021 A 
ATOM     10  C   UNL d   1      55.187   0.331  33.596  0.00  0.00     0.002 A 
ATOM     11  C   UNL d   1      55.139  -0.490  33.654  0.00  0.00     0.002 A 
ENDBRANCH   2   3
ENDBRANCH   1   2
BRANCH   1  12
ATOM     12  C   UNL d   1      58.407  -0.105  29.995  0.00  0.00     0.062 C 
BRANCH  12  13
ATOM     13  C   UNL d   1      58.894  -0.580  29.530  0.00  0.00     0.130 C 
BRANCH  13  14
ATOM     14  O   UNL d   1      59.297  -0.244  28.894  0.00  0.00    -0.305 OA
BRANCH  14  15
ATOM     15  C   UNL d   1      59.659  -0.973  28.756  0.00  0.00     0.100 A 
ATOM     16  C   UNL d   1      60.465  -1.014  28.635  0.00  0.00     0.023 A 
ATOM     17  C   UNL d   1      60.921  -0.319  28.649  0.00  0.00     0.002 C 
ATOM     18  C   UNL d   1      60.831  -1.740  28.497  0.00  0.00     0.002 A 
ATOM     19  C   UNL d   1      60.381  -2.427  28.482  0.00  0.00     0.000 A 
ATOM     20  C   UNL d   1      59.564  -2.383  28.606  0.00  0.00     0.002 A 
ATOM     21  C   UNL d   1      59.206  -1.652  28.743  0.00  0.00     0.025 A 
ENDBRANCH  14  15
ENDBRANCH  13  14
ENDBRANCH  12  13
ENDBRANCH   1  12
TORSDOF 6
ENDMDL
MODEL 2
REMARK VINA RESULT:      -4.4      0.661      1.176
REMARK  6 active torsions:
REMARK  status: ('A' for Active; 'I' for Inactive)
REMARK    1  A    between atoms: C_8  and  C_3 
REMARK    2  A    between atoms: C_6  and  O_10 
REMARK    3  A    between atoms: S_9  and  C_8 
REMARK    4  A    between atoms: C_16  and  S_9 
REMARK    5  A    between atoms: O_10  and  C_17 
REMARK    6  A    between atoms: C_17  and  C_16 
ROOT
ATOM      1  S   UNL d   1      58.086  -0.911  30.550  0.00  0.00    -0.081 SA
ENDROOT
BRANCH   1   2
ATOM      2  C   UNL d   1      57.529  -0.378  30.837  0.00  0.00     0.074 C 
BRANCH   2   3
ATOM      3  C   UNL d   1      57.024  -0.602  31.447  0.00  0.00     0.169 A 
ATOM      4  N   UNL d   1      56.616  -1.144  31.937  0.00  0.00    -0.225 NA
ATOM      5  C   UNL d   1      56.166  -0.704  32.490  0.00  0.00     0.101 A 
ATOM      6  C   UNL d   1      56.302   0.103  32.336  0.00  0.00     0.101 A 
ATOM      7  C   UNL d   1      55.654  -0.917  33.109  0.00  0.00     0.021 A 
ATOM      8  N   UNL d   1      56.830   0.175  31.694  0.00  0.00    -0.225 NA
ATOM      9  C   UNL d   1      55.924   0.681  32.803  0.00  0.00     0.021 A 
ATOM     10  C   UNL d   1      55.425   0.456  33.408  0.00  0.00     0.002 A 
ATOM     11  C   UNL d   1      55.290  -0.343  33.560  0.00  0.00     0.002 A 
ENDBRANCH   2   3
ENDBRANCH   1   2
BRANCH   1  12
ATOM     12  C   UNL d   1      58.358  -0.844  29.776  0.00  0.00     0.062 C 
BRANCH  12  13
ATOM     13  C   UNL d   1      58.963  -1.334  29.509  0.00  0.00     0.130 C 
BRANCH  13  14
ATOM     14  O   UNL d   1      58.774  -2.057  29.159  0.00  0.00    -0.305 OA
BRANCH  14  15
ATOM     15  C   UNL d   1      59.562  -2.136  28.926  0.00  0.00     0.100 A 
ATOM     16  C   UNL d   1      59.849  -2.863  28.692  0.00  0.00     0.023 A 
ATOM     17  C   UNL d   1      59.347  -3.524  28.689  0.00  0.00     0.002 C 
ATOM     18  C   UNL d   1      60.636  -2.945  28.458  0.00  0.00     0.002 A 
ATOM     19  C   UNL d   1      61.133  -2.292  28.461  0.00  0.00     0.000 A 
ATOM     20  C   UNL d   1      60.839  -1.555  28.698  0.00  0.00     0.002 A 
ATOM     21  C   UNL d   1      60.051  -1.482  28.931  0.00  0.00     0.025 A 
ENDBRANCH  14  15
ENDBRANCH  13  14
ENDBRANCH  12  13
ENDBRANCH   1  12
TORSDOF 6
ENDMDL
MODEL 3
REMARK VINA RESULT:      -3.7      1.578      5.388
REMARK  6 active torsions:
REMARK  status: ('A' for Active; 'I' for Inactive)
REMARK    1  A    between atoms: C_8  and  C_3 
REMARK    2  A    between atoms: C_6  and  O_10 
REMARK    3  A    between atoms: S_9  and  C_8 
REMARK    4  A    between atoms: C_16  and  S_9 
REMARK    5  A    between atoms: O_10  and  C_17 
REMARK    6  A    between atoms: C_17  and  C_16 
ROOT
ATOM      1  S   UNL d   1      57.695   0.558  30.921  0.00  0.00    -0.081 SA
ENDROOT
BRANCH   1   2
ATOM      2  C   UNL d   1      57.939   0.519  30.137  0.00  0.00     0.074 C 
BRANCH   2   3
ATOM      3  C   UNL d   1      58.730   0.379  29.960  0.00  0.00     0.169 A 
ATOM      4  N   UNL d   1      59.555   0.508  30.010  0.00  0.00    -0.225 NA
ATOM      5  C   UNL d   1      59.935  -0.048  29.510  0.00  0.00     0.101 A 
ATOM      6  C   UNL d   1      59.340  -0.513  29.159  0.00  0.00     0.101 A 
ATOM      7  C   UNL d   1      60.730  -0.199  29.324  0.00  0.00     0.021 A 
ATOM      8  N   UNL d   1      58.594  -0.256  29.431  0.00  0.00    -0.225 NA
ATOM      9  C   UNL d   1      59.552  -1.120  28.628  0.00  0.00     0.021 A 
ATOM     10  C   UNL d   1      60.337  -1.256  28.455  0.00  0.00     0.002 A 
ATOM     11  C   UNL d   1      60.926  -0.796  28.803  0.00  0.00     0.002 A 
ENDBRANCH   2   3
ENDBRANCH   1   2
BRANCH   1  12
ATOM     12  C   UNL d   1      56.893   0.619  31.099  0.00  0.00     0.062 C 
BRANCH  12  13
ATOM     13  C   UNL d   1      56.586   0.223  31.753  0.00  0.00     0.130 C 
BRANCH  13  14
ATOM     14  O   UNL d   1      56.248   0.658  32.367  0.00  0.00    -0.305 OA
BRANCH  14  15
ATOM     15  C   UNL d   1      55.989  -0.047  32.707  0.00  0.00     0.100 A 
ATOM     16  C   UNL d   1      55.393  -0.039  33.264  0.00  0.00     0.023 A 
ATOM     17  C   UNL d   1      55.046   0.682  33.488  0.00  0.00     0.002 C 
ATOM     18  C   UNL d   1      55.132  -0.743  33.607  0.00  0.00     0.002 A 
ATOM     19  C   UNL d   1      55.474  -1.456  33.386  0.00  0.00     0.000 A 
ATOM     20  C   UNL d   1      56.079  -1.461  32.821  0.00  0.00     0.002 A 
ATOM     21  C   UNL d   1      56.334  -0.753  32.483  0.00  0.00     0.025 A 
ENDBRANCH  14  15
ENDBRANCH  13  14
ENDBRANCH  12  13
ENDBRANCH   1  12
TORSDOF 6
ENDMDL
MODEL 4
REMARK VINA RESULT:      -3.3      1.660      5.483
REMARK  6 active torsions:
REMARK  status: ('A' for Active; 'I' for Inactive)
REMARK    1  A    between atoms: C_8  and  C_3 
REMARK    2  A    between atoms: C_6  and  O_10 
REMARK    3  A    between atoms: S_9  and  C_8 
REMARK    4  A    between atoms: C_16  and  S_9 
REMARK    5  A    between atoms: O_10  and  C_17 
REMARK    6  A    between atoms: C_17  and  C_16 
ROOT
ATOM      1  S   UNL d   1      58.121  -0.690  30.570  0.00  0.00    -0.081 SA
ENDROOT
BRANCH   1   2
ATOM      2  C   UNL d   1      58.221  -1.023  29.825  0.00  0.00     0.074 C 
BRANCH   2   3
ATOM      3  C   UNL d   1      58.936  -1.380  29.629  0.00  0.00     0.169 A 
ATOM      4  N   UNL d   1      59.770  -1.440  29.583  0.00  0.00    -0.225 NA
ATOM      5  C   UNL d   1      59.957  -2.166  29.208  0.00  0.00     0.101 A 
ATOM      6  C   UNL d   1      59.237  -2.545  29.028  0.00  0.00     0.101 A 
ATOM      7  C   UNL d   1      60.672  -2.537  29.006  0.00  0.00     0.021 A 
ATOM      8  N   UNL d   1      58.603  -2.067  29.284  0.00  0.00    -0.225 NA
ATOM      9  C   UNL d   1      59.247  -3.287  28.648  0.00  0.00     0.021 A 
ATOM     10  C   UNL d   1      59.957  -3.639  28.455  0.00  0.00     0.002 A 
ATOM     11  C   UNL d   1      60.670  -3.263  28.634  0.00  0.00     0.002 A 
ENDBRANCH   2   3
ENDBRANCH   1   2
BRANCH   1  12
ATOM     12  C   UNL d   1      57.456  -0.230  30.728  0.00  0.00     0.062 C 
BRANCH  12  13
ATOM     13  C   UNL d   1      57.085  -0.282  31.462  0.00  0.00     0.130 C 
BRANCH  13  14
ATOM     14  O   UNL d   1      56.677  -0.970  31.662  0.00  0.00    -0.305 OA
BRANCH  14  15
ATOM     15  C   UNL d   1      56.300  -0.554  32.267  0.00  0.00     0.100 A 
ATOM     16  C   UNL d   1      55.909  -0.958  32.859  0.00  0.00     0.023 A 
ATOM     17  C   UNL d   1      55.891  -1.789  32.850  0.00  0.00     0.002 C 
ATOM     18  C   UNL d   1      55.531  -0.546  33.465  0.00  0.00     0.002 A 
ATOM     19  C   UNL d   1      55.548   0.274  33.474  0.00  0.00     0.000 A 
ATOM     20  C   UNL d   1      55.946   0.682  32.873  0.00  0.00     0.002 A 
ATOM     21  C   UNL d   1      56.321   0.262  32.270  0.00  0.00     0.025 A 
ENDBRANCH  14  15
ENDBRANCH  13  14
ENDBRANCH  12  13
ENDBRANCH   1  12
TORSDOF 6
ENDMDL
MODEL 5
REMARK VINA RESULT:      -3.2      1.632      5.687
REMARK  6 active torsions:
REMARK  status: ('A' for Active; 'I' for Inactive)
REMARK    1  A    between atoms: C_8  and  C_3 
REMARK    2  A    between atoms: C_6  and  O_10 
REMARK    3  A    between atoms: S_9  and  C_8 
REMARK    4  A    between atoms: C_16  and  S_9 
REMARK    5  A    between atoms: O_10  and  C_17 
REMARK    6  A    between atoms: C_17  and  C_16 
ROOT
ATOM      1  S   UNL d   1      57.124  -0.094  31.450  0.00  0.00    -0.081 SA
ENDROOT
BRANCH   1   2
ATOM      2  C   UNL d   1      57.356  -0.497  30.771  0.00  0.00     0.074 C 
BRANCH   2   3
ATOM      3  C   UNL d   1      57.923  -0.169  30.274  0.00  0.00     0.169 A 
ATOM      4  N   UNL d   1      58.346   0.454  29.908  0.00  0.00    -0.225 NA
ATOM      5  C   UNL d   1      58.918   0.114  29.399  0.00  0.00     0.101 A 
ATOM      6  C   UNL d   1      58.842  -0.713  29.456  0.00  0.00     0.101 A 
ATOM      7  C   UNL d   1      59.495   0.433  28.893  0.00  0.00     0.021 A 
ATOM      8  N   UNL d   1      58.230  -0.896  29.994  0.00  0.00    -0.225 NA
ATOM      9  C   UNL d   1      59.343  -1.206  29.007  0.00  0.00     0.021 A 
ATOM     10  C   UNL d   1      59.905  -0.877  28.515  0.00  0.00     0.002 A 
ATOM     11  C   UNL d   1      59.980  -0.057  28.458  0.00  0.00     0.002 A 
ENDBRANCH   2   3
ENDBRANCH   1   2
BRANCH   1  12
ATOM     12  C   UNL d   1      56.485  -0.368  31.892  0.00  0.00     0.062 C 
BRANCH  12  13
ATOM     13  C   UNL d   1      56.260   0.028  32.578  0.00  0.00     0.130 C 
BRANCH  13  14
ATOM     14  O   UNL d   1      56.666  -0.117  33.281  0.00  0.00    -0.305 OA
BRANCH  14  15
ATOM     15  C   UNL d   1      55.991   0.103  33.701  0.00  0.00     0.100 A 
ATOM     16  C   UNL d   1      56.062   0.458  34.433  0.00  0.00     0.023 A 
ATOM     17  C   UNL d   1      56.816   0.597  34.753  0.00  0.00     0.002 C 
ATOM     18  C   UNL d   1      55.389   0.679  34.856  0.00  0.00     0.002 A 
ATOM     19  C   UNL d   1      54.644   0.541  34.540  0.00  0.00     0.000 A 
ATOM     20  C   UNL d   1      54.575   0.181  33.798  0.00  0.00     0.002 A 
ATOM     21  C   UNL d   1      55.253  -0.037  33.381  0.00  0.00     0.025 A 
ENDBRANCH  14  15
ENDBRANCH  13  14
ENDBRANCH  12  13
ENDBRANCH   1  12
TORSDOF 6
ENDMDL
