MODEL 1
REMARK VINA RESULT:     124.9      0.000      0.000
REMARK  6 active torsions:
REMARK  status: ('A' for Active; 'I' for Inactive)
REMARK    1  A    between atoms: C_11  and  N_3 
REMARK    2  A    between atoms: C_10  and  C_7 
REMARK       I    between atoms: N_19  and  C_10 
REMARK    3  A    between atoms: C_21  and  C_11 
REMARK    4  A    between atoms: N_15  and  C_23 
REMARK    5  A    between atoms: C_22  and  N_19 
REMARK    6  A    between atoms: C_23  and  C_22 
ROOT
ATOM      1  C   UNL d   1      58.957  48.414  50.586  0.00  0.00     0.154 A 
ATOM      2  C   UNL d   1      58.597  47.674  50.525  0.00  0.00     0.093 A 
ATOM      3  N   UNL d   1      59.772  48.302  50.506  0.00  0.00    -0.286 N 
ATOM      4  N   UNL d   1      58.499  49.087  50.707  0.00  0.00    -0.210 NA
ATOM      5  C   UNL d   1      57.779  47.607  50.583  0.00  0.00     0.269 A 
ATOM      6  N   UNL d   1      57.320  48.280  50.703  0.00  0.00    -0.258 N 
ATOM      7  C   UNL d   1      59.916  47.503  50.396  0.00  0.00     0.124 A 
ATOM      8  C   UNL d   1      57.680  49.020  50.765  0.00  0.00     0.152 A 
ATOM      9  C   UNL d   1      59.192  47.111  50.407  0.00  0.00     0.030 A 
ATOM     10  C   UNL d   1      56.502  48.214  50.762  0.00  0.00     0.084 A 
ATOM     11  O   UNL d   1      57.419  46.868  50.521  0.00  0.00    -0.266 OA
ATOM     12  C   UNL d   1      57.222  49.693  50.885  0.00  0.00     0.038 A 
ATOM     13  C   UNL d   1      56.039  48.888  50.883  0.00  0.00     0.019 A 
ATOM     14  C   UNL d   1      56.399  49.628  50.944  0.00  0.00     0.005 A 
ENDROOT
BRANCH   7  15
ATOM     15  C   UNL d   1      60.659  47.159  50.293  0.00  0.00     0.295 C 
ATOM     16  O   UNL d   1      61.247  47.551  49.872  0.00  0.00    -0.264 OA
ATOM     17  N   UNL d   1      60.808  46.411  50.621  0.00  0.00    -0.204 NA
BRANCH  17  18
ATOM     18  C   UNL d   1      61.552  46.059  50.522  0.00  0.00     0.121 C 
BRANCH  18  19
ATOM     19  C   UNL d   1      61.641  45.420  50.011  0.00  0.00     0.101 C 
BRANCH  19  20
ATOM     20  N   UNL d   1      61.711  44.655  50.315  0.00  0.00    -0.298 N 
ATOM     21  C   UNL d   1      61.136  44.365  50.838  0.00  0.00     0.107 A 
ATOM     22  C   UNL d   1      61.206  43.593  51.144  0.00  0.00     0.142 A 
ATOM     23  O   UNL d   1      61.851  43.120  50.924  0.00  0.00    -0.300 OA
ATOM     24  C   UNL d   1      62.420  43.410  50.404  0.00  0.00     0.142 A 
ATOM     25  C   UNL d   1      62.349  44.182  50.098  0.00  0.00     0.107 A 
ENDBRANCH  19  20
ENDBRANCH  18  19
ENDBRANCH  17  18
ENDBRANCH   7  15
BRANCH   3  26
ATOM     26  C   UNL d   1      60.340  48.903  50.534  0.00  0.00     0.082 C 
BRANCH  26  27
ATOM     27  C   UNL d   1      60.629  49.170  51.256  0.00  0.00     0.018 A 
ATOM     28  C   UNL d   1      61.427  49.347  51.344  0.00  0.00     0.002 A 
ATOM     29  C   UNL d   1      61.714  49.612  52.058  0.00  0.00     0.000 A 
ATOM     30  C   UNL d   1      61.206  49.706  52.702  0.00  0.00     0.000 A 
ATOM     31  C   UNL d   1      60.409  49.533  52.624  0.00  0.00     0.000 A 
ATOM     32  C   UNL d   1      60.121  49.265  51.902  0.00  0.00     0.002 A 
ENDBRANCH  26  27
ENDBRANCH   3  26
TORSDOF 6
ENDMDL
