MODEL 1
REMARK VINA RESULT:      -6.1      0.000      0.000
REMARK  2 active torsions:
REMARK  status: ('A' for Active; 'I' for Inactive)
REMARK    1  A    between atoms: C_5  and  CA_2 
REMARK    2  A    between atoms: C_4  and  CA_3 
ROOT
ATOM      1  N   UNL d   1     -47.537  12.781  22.637  0.00  0.00    -0.233 NA
ATOM      2  CA  UNL d   1     -48.308  12.546  22.461  0.00  0.00     0.146 A 
ATOM      3  CA  UNL d   1     -47.121  12.425  23.249  0.00  0.00     0.146 A 
ATOM      4  C   UNL d   1     -47.480  11.823  23.696  0.00  0.00     0.025 A 
ATOM      5  C   UNL d   1     -48.666  11.943  22.909  0.00  0.00     0.025 A 
ATOM      6  C   UNL d   1     -48.251  11.581  23.528  0.00  0.00     0.004 A 
ENDROOT
BRANCH   2   7
ATOM      7  C   UNL d   1     -48.726  12.902  21.847  0.00  0.00     0.229 C 
ATOM      8  O   UNL d   1     -49.197  13.561  21.990  0.00  0.00    -0.643 OA
ATOM      9  OXT UNL d   1     -48.698  12.623  21.071  0.00  0.00    -0.643 OA
ENDBRANCH   2   7
BRANCH   3  10
ATOM     10  C   UNL d   1     -46.355  12.661  23.422  0.00  0.00     0.229 C 
ATOM     11  O   UNL d   1     -46.180  13.412  23.698  0.00  0.00    -0.643 OA
ATOM     12  OXT UNL d   1     -45.705  12.141  23.324  0.00  0.00    -0.643 OA
ENDBRANCH   3  10
TORSDOF 2
ENDMDL
MODEL 2
REMARK VINA RESULT:      -6.0      0.048      2.593
REMARK  2 active torsions:
REMARK  status: ('A' for Active; 'I' for Inactive)
REMARK    1  A    between atoms: C_5  and  CA_2 
REMARK    2  A    between atoms: C_4  and  CA_3 
ROOT
ATOM      1  N   UNL d   1     -47.560  12.796  22.649  0.00  0.00    -0.233 NA
ATOM      2  CA  UNL d   1     -47.129  12.436  23.252  0.00  0.00     0.146 A 
ATOM      3  CA  UNL d   1     -48.325  12.550  22.478  0.00  0.00     0.146 A 
ATOM      4  C   UNL d   1     -48.668  11.932  22.917  0.00  0.00     0.025 A 
ATOM      5  C   UNL d   1     -47.472  11.818  23.691  0.00  0.00     0.025 A 
ATOM      6  C   UNL d   1     -48.244  11.566  23.523  0.00  0.00     0.004 A 
ENDROOT
BRANCH   2   7
ATOM      7  C   UNL d   1     -46.361  12.681  23.425  0.00  0.00     0.229 C 
ATOM      8  O   UNL d   1     -45.727  12.166  23.328  0.00  0.00    -0.643 OA
ATOM      9  OXT UNL d   1     -46.189  13.440  23.698  0.00  0.00    -0.643 OA
ENDBRANCH   2   7
BRANCH   3  10
ATOM     10  C   UNL d   1     -48.752  12.910  21.877  0.00  0.00     0.229 C 
ATOM     11  O   UNL d   1     -49.297  13.504  22.024  0.00  0.00    -0.643 OA
ATOM     12  OXT UNL d   1     -48.652  12.687  21.075  0.00  0.00    -0.643 OA
ENDBRANCH   3  10
TORSDOF 2
ENDMDL
MODEL 3
REMARK VINA RESULT:      -6.0      1.636      2.970
REMARK  2 active torsions:
REMARK  status: ('A' for Active; 'I' for Inactive)
REMARK    1  A    between atoms: C_5  and  CA_2 
REMARK    2  A    between atoms: C_4  and  CA_3 
ROOT
ATOM      1  N   UNL d   1     -47.539  14.234  22.866  0.00  0.00    -0.233 NA
ATOM      2  CA  UNL d   1     -47.066  13.584  22.679  0.00  0.00     0.146 A 
ATOM      3  CA  UNL d   1     -48.303  14.291  22.573  0.00  0.00     0.146 A 
ATOM      4  C   UNL d   1     -48.605  13.690  22.083  0.00  0.00     0.025 A 
ATOM      5  C   UNL d   1     -47.368  12.983  22.189  0.00  0.00     0.025 A 
ATOM      6  C   UNL d   1     -48.140  13.037  21.891  0.00  0.00     0.004 A 
ENDROOT
BRANCH   2   7
ATOM      7  C   UNL d   1     -46.298  13.525  22.972  0.00  0.00     0.229 C 
ATOM      8  O   UNL d   1     -45.666  13.845  22.554  0.00  0.00    -0.643 OA
ATOM      9  OXT UNL d   1     -46.123  13.149  23.686  0.00  0.00    -0.643 OA
ENDBRANCH   2   7
BRANCH   3  10
ATOM     10  C   UNL d   1     -48.772  14.938  22.760  0.00  0.00     0.229 C 
ATOM     11  O   UNL d   1     -49.257  14.950  23.421  0.00  0.00    -0.643 OA
ATOM     12  OXT UNL d   1     -48.779  15.627  22.282  0.00  0.00    -0.643 OA
ENDBRANCH   3  10
TORSDOF 2
ENDMDL
MODEL 4
REMARK VINA RESULT:      -4.7      8.957      9.836
REMARK  2 active torsions:
REMARK  status: ('A' for Active; 'I' for Inactive)
REMARK    1  A    between atoms: C_5  and  CA_2 
REMARK    2  A    between atoms: C_4  and  CA_3 
ROOT
ATOM      1  N   UNL d   1     -39.864  14.333  17.281  0.00  0.00    -0.233 NA
ATOM      2  CA  UNL d   1     -39.497  13.887  17.871  0.00  0.00     0.146 A 
ATOM      3  CA  UNL d   1     -40.445  14.880  17.473  0.00  0.00     0.146 A 
ATOM      4  C   UNL d   1     -40.667  14.987  18.268  0.00  0.00     0.025 A 
ATOM      5  C   UNL d   1     -39.719  13.995  18.666  0.00  0.00     0.025 A 
ATOM      6  C   UNL d   1     -40.305  14.547  18.864  0.00  0.00     0.004 A 
ENDROOT
BRANCH   2   7
ATOM      7  C   UNL d   1     -38.914  13.337  17.681  0.00  0.00     0.229 C 
ATOM      8  O   UNL d   1     -39.115  12.557  17.514  0.00  0.00    -0.643 OA
ATOM      9  OXT UNL d   1     -38.113  13.533  17.647  0.00  0.00    -0.643 OA
ENDBRANCH   2   7
BRANCH   3  10
ATOM     10  C   UNL d   1     -40.809  15.322  16.885  0.00  0.00     0.229 C 
ATOM     11  O   UNL d   1     -41.592  15.206  16.672  0.00  0.00    -0.643 OA
ATOM     12  OXT UNL d   1     -40.395  15.919  16.467  0.00  0.00    -0.643 OA
ENDBRANCH   3  10
TORSDOF 2
ENDMDL
MODEL 5
REMARK VINA RESULT:      -4.5      8.236      9.015
REMARK  2 active torsions:
REMARK  status: ('A' for Active; 'I' for Inactive)
REMARK    1  A    between atoms: C_5  and  CA_2 
REMARK    2  A    between atoms: C_4  and  CA_3 
ROOT
ATOM      1  N   UNL d   1     -40.620  15.049  18.337  0.00  0.00    -0.233 NA
ATOM      2  CA  UNL d   1     -40.447  14.887  17.547  0.00  0.00     0.146 A 
ATOM      3  CA  UNL d   1     -40.271  14.614  18.938  0.00  0.00     0.146 A 
ATOM      4  C   UNL d   1     -39.736  14.004  18.751  0.00  0.00     0.025 A 
ATOM      5  C   UNL d   1     -39.913  14.277  17.360  0.00  0.00     0.025 A 
ATOM      6  C   UNL d   1     -39.557  13.834  17.964  0.00  0.00     0.004 A 
ENDROOT
BRANCH   2   7
ATOM      7  C   UNL d   1     -40.797  15.322  16.941  0.00  0.00     0.229 C 
ATOM      8  O   UNL d   1     -40.378  15.922  16.563  0.00  0.00    -0.643 OA
ATOM      9  OXT UNL d   1     -41.569  15.186  16.685  0.00  0.00    -0.643 OA
ENDBRANCH   2   7
BRANCH   3  10
ATOM     10  C   UNL d   1     -40.445  14.777  19.724  0.00  0.00     0.229 C 
ATOM     11  O   UNL d   1     -40.952  14.309  20.165  0.00  0.00    -0.643 OA
ATOM     12  OXT UNL d   1     -40.110  15.437  20.118  0.00  0.00    -0.643 OA
ENDBRANCH   3  10
TORSDOF 2
ENDMDL
MODEL 6
REMARK VINA RESULT:      -3.8      9.227     10.081
REMARK  2 active torsions:
REMARK  status: ('A' for Active; 'I' for Inactive)
REMARK    1  A    between atoms: C_5  and  CA_2 
REMARK    2  A    between atoms: C_4  and  CA_3 
ROOT
ATOM      1  N   UNL d   1     -39.621  14.867  17.500  0.00  0.00    -0.233 NA
ATOM      2  CA  UNL d   1     -40.378  14.895  17.827  0.00  0.00     0.146 A 
ATOM      3  CA  UNL d   1     -39.418  15.356  16.874  0.00  0.00     0.146 A 
ATOM      4  C   UNL d   1     -39.980  15.886  16.565  0.00  0.00     0.025 A 
ATOM      5  C   UNL d   1     -40.940  15.425  17.518  0.00  0.00     0.025 A 
ATOM      6  C   UNL d   1     -40.740  15.922  16.885  0.00  0.00     0.004 A 
ENDROOT
BRANCH   2   7
ATOM      7  C   UNL d   1     -40.583  14.404  18.456  0.00  0.00     0.229 C 
ATOM      8  O   UNL d   1     -40.938  13.674  18.317  0.00  0.00    -0.643 OA
ATOM      9  OXT UNL d   1     -40.447  14.610  19.243  0.00  0.00    -0.643 OA
ENDBRANCH   2   7
BRANCH   3  10
ATOM     10  C   UNL d   1     -38.665  15.326  16.550  0.00  0.00     0.229 C 
ATOM     11  O   UNL d   1     -38.047  15.781  16.839  0.00  0.00    -0.643 OA
ATOM     12  OXT UNL d   1     -38.486  14.825  15.903  0.00  0.00    -0.643 OA
ENDBRANCH   3  10
TORSDOF 2
ENDMDL
