MODEL 1
REMARK VINA RESULT:      63.2      0.000      0.000
REMARK  5 active torsions:
REMARK  status: ('A' for Active; 'I' for Inactive)
REMARK    1  A    between atoms: C_2  and  S_1 
REMARK    2  A    between atoms: N_11  and  S_1 
REMARK    3  A    between atoms: N_3  and  C_17 
REMARK    4  A    between atoms: C_16  and  N_11 
REMARK    5  A    between atoms: C_17  and  C_16 
ROOT
ATOM      1  S   UNL d   1     -50.986  26.358  33.939  0.00  0.00     0.285 S 
ATOM      2  O   UNL d   1     -50.458  26.384  33.306  0.00  0.00    -0.198 OA
ATOM      3  O   UNL d   1     -50.822  27.151  34.113  0.00  0.00    -0.198 OA
ENDROOT
BRANCH   1   4
ATOM      4  C   UNL d   1     -51.164  25.561  33.780  0.00  0.00     0.105 A 
ATOM      5  C   UNL d   1     -51.951  25.319  33.731  0.00  0.00     0.012 A 
ATOM      6  C   UNL d   1     -52.130  24.535  33.574  0.00  0.00     0.001 A 
ATOM      7  C   UNL d   1     -52.565  25.865  33.840  0.00  0.00     0.001 C 
ATOM      8  C   UNL d   1     -51.521  23.981  33.464  0.00  0.00     0.000 A 
ATOM      9  C   UNL d   1     -50.730  24.235  33.515  0.00  0.00     0.001 A 
ATOM     10  C   UNL d   1     -51.687  23.190  33.306  0.00  0.00     0.000 C 
ATOM     11  C   UNL d   1     -50.560  25.027  33.673  0.00  0.00     0.012 A 
ATOM     12  C   UNL d   1     -49.776  25.273  33.722  0.00  0.00     0.001 C 
ENDBRANCH   1   4
BRANCH   1  13
ATOM     13  N   UNL d   1     -51.450  26.544  34.594  0.00  0.00    -0.155 NA
BRANCH  13  14
ATOM     14  C   UNL d   1     -51.099  26.669  35.330  0.00  0.00     0.131 C 
BRANCH  14  15
ATOM     15  C   UNL d   1     -51.392  26.279  35.995  0.00  0.00     0.102 C 
BRANCH  15  16
ATOM     16  N   UNL d   1     -51.211  26.561  36.750  0.00  0.00    -0.303 N 
ATOM     17  C   UNL d   1     -50.603  27.091  36.937  0.00  0.00     0.080 A 
ATOM     18  C   UNL d   1     -50.619  27.222  37.750  0.00  0.00     0.021 A 
ATOM     19  C   UNL d   1     -51.234  26.777  38.073  0.00  0.00     0.018 A 
ATOM     20  C   UNL d   1     -51.602  26.367  37.457  0.00  0.00     0.064 A 
ATOM     21  C   UNL d   1     -51.514  26.684  38.841  0.00  0.00     0.002 A 
ATOM     22  C   UNL d   1     -52.241  25.871  37.603  0.00  0.00     0.018 A 
ATOM     23  C   UNL d   1     -52.521  25.778  38.372  0.00  0.00     0.002 A 
ATOM     24  C   UNL d   1     -52.160  26.185  39.004  0.00  0.00     0.000 A 
ENDBRANCH  15  16
ENDBRANCH  14  15
ENDBRANCH  13  14
ENDBRANCH   1  13
TORSDOF 5
ENDMDL
