MODEL 1
REMARK VINA RESULT:      -6.3      0.000      0.000
REMARK  2 active torsions:
REMARK  status: ('A' for Active; 'I' for Inactive)
REMARK    1  A    between atoms: C_6  and  C_1 
REMARK    2  A    between atoms: C_7  and  C_5 
ROOT
ATOM      1  C   UNL d   1     -41.960-122.055 -54.679  0.00  0.00     0.169 A 
ATOM      2  C   UNL d   1     -42.323-121.801 -54.069  0.00  0.00     0.048 A 
ATOM      3  N   UNL d   1     -41.123-122.710 -53.909  0.00  0.00    -0.148 NA
ATOM      4  N   UNL d   1     -41.358-122.511 -54.605  0.00  0.00    -0.142 NA
ATOM      5  C   UNL d   1     -41.485-122.456 -53.298  0.00  0.00     0.105 A 
ENDROOT
BRANCH   5   6
ATOM      6  C   UNL d   1     -41.397-122.548 -52.486  0.00  0.00     0.020 A 
ATOM      7  C   UNL d   1     -41.421-121.889 -51.985  0.00  0.00     0.004 A 
ATOM      8  C   UNL d   1     -41.332-121.984 -51.168  0.00  0.00     0.030 A 
ATOM      9  C   UNL d   1     -41.218-122.738 -50.848  0.00  0.00     0.140 A 
ATOM     10  C   UNL d   1     -41.194-123.402 -51.356  0.00  0.00     0.030 A 
ATOM     11  F   UNL d   1     -41.130-122.836 -50.042  0.00  0.00    -0.204 F 
ATOM     12  C   UNL d   1     -41.284-123.301 -52.169  0.00  0.00     0.004 A 
ENDBRANCH   5   6
BRANCH   1  13
ATOM     13  C   UNL d   1     -42.195-121.855 -55.375  0.00  0.00     0.231 C 
ATOM     14  O   UNL d   1     -42.923-121.917 -55.561  0.00  0.00    -0.643 OA
ATOM     15  O   UNL d   1     -41.692-121.595 -55.878  0.00  0.00    -0.643 OA
ENDBRANCH   1  13
TORSDOF 2
ENDMDL
MODEL 2
REMARK VINA RESULT:      -6.0      2.677      3.836
REMARK  2 active torsions:
REMARK  status: ('A' for Active; 'I' for Inactive)
REMARK    1  A    between atoms: C_6  and  C_1 
REMARK    2  A    between atoms: C_7  and  C_5 
ROOT
ATOM      1  C   UNL d   1     -41.357-122.912 -51.829  0.00  0.00     0.169 A 
ATOM      2  C   UNL d   1     -41.388-122.225 -52.138  0.00  0.00     0.048 A 
ATOM      3  N   UNL d   1     -41.638-123.450 -52.993  0.00  0.00    -0.148 NA
ATOM      4  N   UNL d   1     -41.481-123.529 -52.252  0.00  0.00    -0.142 NA
ATOM      5  C   UNL d   1     -41.669-122.763 -53.303  0.00  0.00     0.105 A 
ENDROOT
BRANCH   5   6
ATOM      6  C   UNL d   1     -41.817-122.468 -54.056  0.00  0.00     0.020 A 
ATOM      7  C   UNL d   1     -41.340-122.692 -54.694  0.00  0.00     0.004 A 
ATOM      8  C   UNL d   1     -41.490-122.395 -55.452  0.00  0.00     0.030 A 
ATOM      9  C   UNL d   1     -42.120-121.871 -55.574  0.00  0.00     0.140 A 
ATOM     10  C   UNL d   1     -42.600-121.646 -54.927  0.00  0.00     0.030 A 
ATOM     11  F   UNL d   1     -42.271-121.575 -56.319  0.00  0.00    -0.204 F 
ATOM     12  C   UNL d   1     -42.444-121.946 -54.175  0.00  0.00     0.004 A 
ENDBRANCH   5   6
BRANCH   1  13
ATOM     13  C   UNL d   1     -41.200-122.991 -51.088  0.00  0.00     0.231 C 
ATOM     14  O   UNL d   1     -41.123-123.679 -50.788  0.00  0.00    -0.643 OA
ATOM     15  O   UNL d   1     -41.123-122.374 -50.655  0.00  0.00    -0.643 OA
ENDBRANCH   1  13
TORSDOF 2
ENDMDL
MODEL 3
REMARK VINA RESULT:      -5.1      2.209      2.918
REMARK  2 active torsions:
REMARK  status: ('A' for Active; 'I' for Inactive)
REMARK    1  A    between atoms: C_6  and  C_1 
REMARK    2  A    between atoms: C_7  and  C_5 
ROOT
ATOM      1  C   UNL d   1     -41.462-122.549 -52.002  0.00  0.00     0.169 A 
ATOM      2  C   UNL d   1     -41.474-122.057 -51.430  0.00  0.00     0.048 A 
ATOM      3  N   UNL d   1     -41.867-123.500 -51.192  0.00  0.00    -0.148 NA
ATOM      4  N   UNL d   1     -41.658-123.273 -51.888  0.00  0.00    -0.142 NA
ATOM      5  C   UNL d   1     -41.879-123.008 -50.620  0.00  0.00     0.105 A 
ENDROOT
BRANCH   5   6
ATOM      6  C   UNL d   1     -42.066-123.047 -49.821  0.00  0.00     0.020 A 
ATOM      7  C   UNL d   1     -42.784-122.740 -49.544  0.00  0.00     0.004 A 
ATOM      8  C   UNL d   1     -42.971-122.780 -48.739  0.00  0.00     0.030 A 
ATOM      9  C   UNL d   1     -42.441-123.127 -48.207  0.00  0.00     0.140 A 
ATOM     10  C   UNL d   1     -41.717-123.436 -48.489  0.00  0.00     0.030 A 
ATOM     11  F   UNL d   1     -42.621-123.168 -47.412  0.00  0.00    -0.204 F 
ATOM     12  C   UNL d   1     -41.537-123.393 -49.293  0.00  0.00     0.004 A 
ENDBRANCH   5   6
BRANCH   1  13
ATOM     13  C   UNL d   1     -41.253-122.322 -52.698  0.00  0.00     0.231 C 
ATOM     14  O   UNL d   1     -41.122-121.592 -52.835  0.00  0.00    -0.643 OA
ATOM     15  O   UNL d   1     -41.178-122.835 -53.250  0.00  0.00    -0.643 OA
ENDBRANCH   1  13
TORSDOF 2
ENDMDL
