MODEL 1
REMARK VINA RESULT:      -5.9      0.000      0.000
REMARK  4 active torsions:
REMARK  status: ('A' for Active; 'I' for Inactive)
REMARK    1  A    between atoms: C_6  and  C_1 
REMARK    2  A    between atoms: C_4  and  C_8 
REMARK    3  A    between atoms: O_18  and  C_6 
REMARK    4  A    between atoms: C_19  and  O_18 
ROOT
ATOM      1  C   UNL d   1      58.135  -0.351  30.377  0.00  0.00     0.121 A 
ATOM      2  C   UNL d   1      57.241  -0.540  31.470  0.00  0.00     0.057 A 
ATOM      3  C   UNL d   1      57.593  -0.817  30.777  0.00  0.00     0.204 A 
ATOM      4  C   UNL d   1      56.696  -1.013  31.867  0.00  0.00     0.009 A 
ATOM      5  N   UNL d   1      57.980   0.681  31.362  0.00  0.00    -0.244 NA
ATOM      6  C   UNL d   1      56.343  -0.740  32.559  0.00  0.00     0.072 A 
ATOM      7  C   UNL d   1      58.333   0.404  30.669  0.00  0.00     0.107 A 
ATOM      8  C   UNL d   1      57.432   0.207  31.765  0.00  0.00     0.085 A 
ATOM      9  C   UNL d   1      56.534   0.007  32.854  0.00  0.00     0.005 A 
ATOM     10  C   UNL d   1      57.078   0.480  32.457  0.00  0.00     0.019 A 
ATOM     11  O   UNL d   1      57.399  -1.564  30.486  0.00  0.00    -0.286 OA
ENDROOT
BRANCH   1  12
ATOM     12  C   UNL d   1      58.488  -0.624  29.686  0.00  0.00     0.305 C 
ATOM     13  O   UNL d   1      58.074  -0.599  28.973  0.00  0.00    -0.259 OA
BRANCH  12  14
ATOM     14  O   UNL d   1      59.260  -0.925  29.700  0.00  0.00    -0.271 OA
BRANCH  14  15
ATOM     15  C   UNL d   1      59.669  -1.036  28.992  0.00  0.00     0.126 C 
ATOM     16  C   UNL d   1      60.443  -1.326  29.009  0.00  0.00     0.029 C 
ENDBRANCH  14  15
ENDBRANCH  12  14
ENDBRANCH   1  12
BRANCH   6  17
ATOM     17  C   UNL d   1      55.798  -1.214  32.956  0.00  0.00     0.419 C 
ATOM     18  F   UNL d   1      56.032  -1.942  33.265  0.00  0.00    -0.166 F 
ATOM     19  F   UNL d   1      55.017  -0.959  33.045  0.00  0.00    -0.166 F 
ATOM     20  F   UNL d   1      55.561  -0.486  32.648  0.00  0.00    -0.166 F 
ENDBRANCH   6  17
TORSDOF 4
ENDMDL
MODEL 2
REMARK VINA RESULT:      -4.7      0.942      1.140
REMARK  4 active torsions:
REMARK  status: ('A' for Active; 'I' for Inactive)
REMARK    1  A    between atoms: C_6  and  C_1 
REMARK    2  A    between atoms: C_4  and  C_8 
REMARK    3  A    between atoms: O_18  and  C_6 
REMARK    4  A    between atoms: C_19  and  O_18 
ROOT
ATOM      1  C   UNL d   1      57.718  -0.278  31.075  0.00  0.00     0.121 A 
ATOM      2  C   UNL d   1      56.793  -0.259  32.159  0.00  0.00     0.057 A 
ATOM      3  C   UNL d   1      57.050  -0.579  31.444  0.00  0.00     0.204 A 
ATOM      4  C   UNL d   1      56.122  -0.566  32.524  0.00  0.00     0.009 A 
ATOM      5  N   UNL d   1      57.880   0.672  32.138  0.00  0.00    -0.244 NA
ATOM      6  C   UNL d   1      55.862  -0.249  33.238  0.00  0.00     0.072 A 
ATOM      7  C   UNL d   1      58.138   0.352  31.421  0.00  0.00     0.107 A 
ATOM      8  C   UNL d   1      57.204   0.366  32.508  0.00  0.00     0.085 A 
ATOM      9  C   UNL d   1      56.273   0.375  33.587  0.00  0.00     0.005 A 
ATOM     10  C   UNL d   1      56.944   0.682  33.223  0.00  0.00     0.019 A 
ATOM     11  O   UNL d   1      56.637  -1.203  31.097  0.00  0.00    -0.286 OA
ENDROOT
BRANCH   1  12
ATOM     12  C   UNL d   1      57.977  -0.594  30.361  0.00  0.00     0.305 C 
ATOM     13  O   UNL d   1      58.138  -1.401  30.301  0.00  0.00    -0.259 OA
BRANCH  12  14
ATOM     14  O   UNL d   1      58.080  -0.108  29.699  0.00  0.00    -0.271 OA
BRANCH  14  15
ATOM     15  C   UNL d   1      58.519  -0.378  29.055  0.00  0.00     0.126 C 
ATOM     16  C   UNL d   1      58.731   0.149  28.455  0.00  0.00     0.029 C 
ENDBRANCH  14  15
ENDBRANCH  12  14
ENDBRANCH   1  12
BRANCH   6  17
ATOM     17  C   UNL d   1      55.191  -0.557  33.603  0.00  0.00     0.419 C 
ATOM     18  F   UNL d   1      55.194  -1.330  33.891  0.00  0.00    -0.166 F 
ATOM     19  F   UNL d   1      54.513  -0.090  33.680  0.00  0.00    -0.166 F 
ATOM     20  F   UNL d   1      55.183   0.217  33.316  0.00  0.00    -0.166 F 
ENDBRANCH   6  17
TORSDOF 4
ENDMDL
MODEL 3
REMARK VINA RESULT:      -3.3      1.630      2.321
REMARK  4 active torsions:
REMARK  status: ('A' for Active; 'I' for Inactive)
REMARK    1  A    between atoms: C_6  and  C_1 
REMARK    2  A    between atoms: C_4  and  C_8 
REMARK    3  A    between atoms: O_18  and  C_6 
REMARK    4  A    between atoms: C_19  and  O_18 
ROOT
ATOM      1  C   UNL d   1      58.818  -1.856  29.260  0.00  0.00     0.121 A 
ATOM      2  C   UNL d   1      58.203  -0.896  30.116  0.00  0.00     0.057 A 
ATOM      3  C   UNL d   1      58.339  -1.682  29.903  0.00  0.00     0.204 A 
ATOM      4  C   UNL d   1      57.721  -0.729  30.763  0.00  0.00     0.009 A 
ATOM      5  N   UNL d   1      59.031  -0.455  29.036  0.00  0.00    -0.244 NA
ATOM      6  C   UNL d   1      57.584   0.054  30.979  0.00  0.00     0.072 A 
ATOM      7  C   UNL d   1      59.168  -1.241  28.821  0.00  0.00     0.107 A 
ATOM      8  C   UNL d   1      58.547  -0.282  29.686  0.00  0.00     0.085 A 
ATOM      9  C   UNL d   1      57.927   0.668  30.549  0.00  0.00     0.005 A 
ATOM     10  C   UNL d   1      58.409   0.501  29.904  0.00  0.00     0.019 A 
ATOM     11  O   UNL d   1      57.994  -2.294  30.335  0.00  0.00    -0.286 OA
ENDROOT
BRANCH   1  12
ATOM     12  C   UNL d   1      58.956  -2.637  29.044  0.00  0.00     0.305 C 
ATOM     13  O   UNL d   1      58.321  -3.141  28.887  0.00  0.00    -0.259 OA
BRANCH  12  14
ATOM     14  O   UNL d   1      59.730  -2.925  28.981  0.00  0.00    -0.271 OA
BRANCH  14  15
ATOM     15  C   UNL d   1      59.867  -3.662  28.636  0.00  0.00     0.126 C 
ATOM     16  C   UNL d   1      60.625  -3.990  28.663  0.00  0.00     0.029 C 
ENDBRANCH  14  15
ENDBRANCH  12  14
ENDBRANCH   1  12
BRANCH   6  17
ATOM     17  C   UNL d   1      57.102   0.221  31.626  0.00  0.00     0.419 C 
ATOM     18  F   UNL d   1      57.315  -0.040  32.379  0.00  0.00    -0.166 F 
ATOM     19  F   UNL d   1      56.404   0.651  31.520  0.00  0.00    -0.166 F 
ATOM     20  F   UNL d   1      56.885   0.484  30.875  0.00  0.00    -0.166 F 
ENDBRANCH   6  17
TORSDOF 4
ENDMDL
