MODEL 1
REMARK VINA RESULT:      -5.8      0.000      0.000
REMARK  4 active torsions:
REMARK  status: ('A' for Active; 'I' for Inactive)
REMARK    1  A    between atoms: C_6  and  C_1 
REMARK       I    between atoms: N_9  and  C_6 
REMARK       I    between atoms: C_8  and  N_10 
REMARK    2  A    between atoms: C_11  and  C_8 
REMARK    3  A    between atoms: N_10  and  N_9 
REMARK    4  A    between atoms: O_22  and  C_13 
ROOT
ATOM      1  C   UNL d   1     -47.069  13.235  23.103  0.00  0.00     0.123 A 
ATOM      2  C   UNL d   1     -47.618  13.829  22.941  0.00  0.00     0.305 A 
ATOM      3  O   UNL d   1     -48.409  13.678  23.005  0.00  0.00    -0.271 OA
ATOM      4  C   UNL d   1     -47.327  12.504  23.326  0.00  0.00     0.012 A 
ATOM      5  C   UNL d   1     -48.693  12.919  23.237  0.00  0.00     0.125 A 
ATOM      6  C   UNL d   1     -48.145  12.324  23.399  0.00  0.00     0.025 A 
ATOM      7  O   UNL d   1     -47.364  14.563  22.717  0.00  0.00    -0.259 OA
ATOM      8  C   UNL d   1     -49.501  12.753  23.306  0.00  0.00     0.117 A 
ATOM      9  C   UNL d   1     -48.419  11.580  23.626  0.00  0.00     0.002 A 
ATOM     10  C   UNL d   1     -49.226  11.408  23.697  0.00  0.00     0.002 A 
ATOM     11  C   UNL d   1     -49.774  12.003  23.535  0.00  0.00     0.026 A 
ENDROOT
BRANCH   1  12
ATOM     12  C   UNL d   1     -46.262  13.367  23.044  0.00  0.00     0.302 C 
ATOM     13  N   UNL d   1     -45.871  13.078  22.373  0.00  0.00    -0.102 NA
ATOM     14  O   UNL d   1     -45.842  13.785  23.650  0.00  0.00    -0.263 OA
BRANCH  13  15
ATOM     15  N   UNL d   1     -45.072  13.196  22.292  0.00  0.00    -0.102 NA
ATOM     16  C   UNL d   1     -44.688  12.925  21.608  0.00  0.00     0.297 C 
ATOM     17  O   UNL d   1     -45.100  12.545  21.022  0.00  0.00    -0.264 OA
BRANCH  16  18
ATOM     18  C   UNL d   1     -43.884  13.040  21.519  0.00  0.00     0.059 A 
ATOM     19  C   UNL d   1     -43.586  13.757  21.273  0.00  0.00     0.005 A 
ATOM     20  C   UNL d   1     -42.782  13.879  21.182  0.00  0.00     0.007 A 
ATOM     21  C   UNL d   1     -42.250  13.280  21.338  0.00  0.00     0.035 A 
ATOM     22  C   UNL d   1     -42.550  12.538  21.593  0.00  0.00     0.007 A 
ATOM     23 BR   UNL d   1     -41.445  13.407  21.245  0.00  0.00    -0.049 Br
ATOM     24  C   UNL d   1     -43.354  12.417  21.683  0.00  0.00     0.005 A 
ENDBRANCH  16  18
ENDBRANCH  13  15
ENDBRANCH   1  12
BRANCH   8  25
ATOM     25  O   UNL d   1     -50.043  13.341  23.146  0.00  0.00    -0.326 OA
ATOM     26  C   UNL d   1     -50.836  13.181  23.162  0.00  0.00     0.181 C 
ENDBRANCH   8  25
TORSDOF 4
ENDMDL
MODEL 2
REMARK VINA RESULT:      -5.8      1.170      1.600
REMARK  4 active torsions:
REMARK  status: ('A' for Active; 'I' for Inactive)
REMARK    1  A    between atoms: C_6  and  C_1 
REMARK       I    between atoms: N_9  and  C_6 
REMARK       I    between atoms: C_8  and  N_10 
REMARK    2  A    between atoms: C_11  and  C_8 
REMARK    3  A    between atoms: N_10  and  N_9 
REMARK    4  A    between atoms: O_22  and  C_13 
ROOT
ATOM      1  C   UNL d   1     -46.241  13.115  22.483  0.00  0.00     0.123 A 
ATOM      2  C   UNL d   1     -46.389  12.646  23.145  0.00  0.00     0.305 A 
ATOM      3  O   UNL d   1     -47.113  12.300  23.241  0.00  0.00    -0.271 OA
ATOM      4  C   UNL d   1     -46.820  13.225  21.934  0.00  0.00     0.012 A 
ATOM      5  C   UNL d   1     -47.729  12.406  22.675  0.00  0.00     0.125 A 
ATOM      6  C   UNL d   1     -47.580  12.874  22.013  0.00  0.00     0.025 A 
ATOM      7  O   UNL d   1     -45.811  12.534  23.698  0.00  0.00    -0.259 OA
ATOM      8  C   UNL d   1     -48.473  12.056  22.764  0.00  0.00     0.117 A 
ATOM      9  C   UNL d   1     -48.180  12.980  21.457  0.00  0.00     0.002 A 
ATOM     10  C   UNL d   1     -48.927  12.632  21.540  0.00  0.00     0.002 A 
ATOM     11  C   UNL d   1     -49.076  12.164  22.203  0.00  0.00     0.026 A 
ENDROOT
BRANCH   1  12
ATOM     12  C   UNL d   1     -45.513  13.476  22.365  0.00  0.00     0.302 C 
ATOM     13  N   UNL d   1     -44.934  13.054  21.950  0.00  0.00    -0.102 NA
ATOM     14  O   UNL d   1     -45.360  14.255  22.660  0.00  0.00    -0.263 OA
BRANCH  13  15
ATOM     15  N   UNL d   1     -44.207  13.390  21.822  0.00  0.00    -0.102 NA
ATOM     16  C   UNL d   1     -43.618  12.950  21.434  0.00  0.00     0.297 C 
ATOM     17  O   UNL d   1     -43.762  12.193  21.183  0.00  0.00    -0.264 OA
BRANCH  16  18
ATOM     18  C   UNL d   1     -42.884  13.282  21.301  0.00  0.00     0.059 A 
ATOM     19  C   UNL d   1     -42.787  13.894  20.772  0.00  0.00     0.005 A 
ATOM     20  C   UNL d   1     -42.054  14.230  20.634  0.00  0.00     0.007 A 
ATOM     21  C   UNL d   1     -41.392  13.959  21.028  0.00  0.00     0.035 A 
ATOM     22  C   UNL d   1     -41.483  13.329  21.575  0.00  0.00     0.007 A 
ATOM     23 BR   UNL d   1     -40.659  14.300  20.886  0.00  0.00    -0.049 Br
ATOM     24  C   UNL d   1     -42.217  12.994  21.712  0.00  0.00     0.005 A 
ENDBRANCH  16  18
ENDBRANCH  13  15
ENDBRANCH   1  12
BRANCH   8  25
ATOM     25  O   UNL d   1     -48.620  11.592  23.420  0.00  0.00    -0.326 OA
ATOM     26  C   UNL d   1     -49.379  11.400  23.622  0.00  0.00     0.181 C 
ENDBRANCH   8  25
TORSDOF 4
ENDMDL
MODEL 3
REMARK VINA RESULT:      -5.6      2.225      2.669
REMARK  4 active torsions:
REMARK  status: ('A' for Active; 'I' for Inactive)
REMARK    1  A    between atoms: C_6  and  C_1 
REMARK       I    between atoms: N_9  and  C_6 
REMARK       I    between atoms: C_8  and  N_10 
REMARK    2  A    between atoms: C_11  and  C_8 
REMARK    3  A    between atoms: N_10  and  N_9 
REMARK    4  A    between atoms: O_22  and  C_13 
ROOT
ATOM      1  C   UNL d   1     -47.639  13.665  22.456  0.00  0.00     0.123 A 
ATOM      2  C   UNL d   1     -47.772  14.368  22.867  0.00  0.00     0.305 A 
ATOM      3  O   UNL d   1     -48.496  14.725  22.833  0.00  0.00    -0.271 OA
ATOM      4  C   UNL d   1     -48.233  13.337  22.023  0.00  0.00     0.012 A 
ATOM      5  C   UNL d   1     -49.128  14.393  22.383  0.00  0.00     0.125 A 
ATOM      6  C   UNL d   1     -48.995  13.690  21.973  0.00  0.00     0.025 A 
ATOM      7  O   UNL d   1     -47.179  14.700  23.303  0.00  0.00    -0.259 OA
ATOM      8  C   UNL d   1     -49.873  14.751  22.342  0.00  0.00     0.117 A 
ATOM      9  C   UNL d   1     -49.610  13.363  21.532  0.00  0.00     0.002 A 
ATOM     10  C   UNL d   1     -50.358  13.716  21.486  0.00  0.00     0.002 A 
ATOM     11  C   UNL d   1     -50.492  14.419  21.897  0.00  0.00     0.026 A 
ENDROOT
BRANCH   1  12
ATOM     12  C   UNL d   1     -46.911  13.286  22.477  0.00  0.00     0.302 C 
ATOM     13  N   UNL d   1     -46.858  12.572  22.893  0.00  0.00    -0.102 NA
ATOM     14  O   UNL d   1     -46.236  13.616  22.085  0.00  0.00    -0.263 OA
BRANCH  13  15
ATOM     15  N   UNL d   1     -46.150  12.179  22.927  0.00  0.00    -0.102 NA
ATOM     16  C   UNL d   1     -46.105  11.455  23.333  0.00  0.00     0.297 C 
ATOM     17  O   UNL d   1     -46.759  11.139  23.693  0.00  0.00    -0.264 OA
BRANCH  16  18
ATOM     18  C   UNL d   1     -45.394  11.054  23.372  0.00  0.00     0.059 A 
ATOM     19  C   UNL d   1     -44.686  11.437  23.246  0.00  0.00     0.005 A 
ATOM     20  C   UNL d   1     -43.972  11.040  23.284  0.00  0.00     0.007 A 
ATOM     21  C   UNL d   1     -43.947  10.241  23.451  0.00  0.00     0.035 A 
ATOM     22  C   UNL d   1     -44.673   9.840  23.581  0.00  0.00     0.007 A 
ATOM     23 BR   UNL d   1     -43.228   9.848  23.487  0.00  0.00    -0.049 Br
ATOM     24  C   UNL d   1     -45.388  10.237  23.543  0.00  0.00     0.005 A 
ENDBRANCH  16  18
ENDBRANCH  13  15
ENDBRANCH   1  12
BRANCH   8  25
ATOM     25  O   UNL d   1     -50.005  15.446  22.748  0.00  0.00    -0.326 OA
ATOM     26  C   UNL d   1     -50.757  15.661  22.956  0.00  0.00     0.181 C 
ENDBRANCH   8  25
TORSDOF 4
ENDMDL
MODEL 4
REMARK VINA RESULT:      -5.3      2.091      3.548
REMARK  4 active torsions:
REMARK  status: ('A' for Active; 'I' for Inactive)
REMARK    1  A    between atoms: C_6  and  C_1 
REMARK       I    between atoms: N_9  and  C_6 
REMARK       I    between atoms: C_8  and  N_10 
REMARK    2  A    between atoms: C_11  and  C_8 
REMARK    3  A    between atoms: N_10  and  N_9 
REMARK    4  A    between atoms: O_22  and  C_13 
ROOT
ATOM      1  C   UNL d   1     -44.046  12.753  21.871  0.00  0.00     0.123 A 
ATOM      2  C   UNL d   1     -44.197  12.128  22.388  0.00  0.00     0.305 A 
ATOM      3  O   UNL d   1     -44.889  12.105  22.803  0.00  0.00    -0.271 OA
ATOM      4  C   UNL d   1     -44.592  13.339  21.783  0.00  0.00     0.012 A 
ATOM      5  C   UNL d   1     -45.470  12.712  22.722  0.00  0.00     0.125 A 
ATOM      6  C   UNL d   1     -45.319  13.336  22.205  0.00  0.00     0.025 A 
ATOM      7  O   UNL d   1     -43.652  11.538  22.479  0.00  0.00    -0.259 OA
ATOM      8  C   UNL d   1     -46.182  12.698  23.142  0.00  0.00     0.117 A 
ATOM      9  C   UNL d   1     -45.884  13.931  22.122  0.00  0.00     0.002 A 
ATOM     10  C   UNL d   1     -46.599  13.923  22.541  0.00  0.00     0.002 A 
ATOM     11  C   UNL d   1     -46.750  13.299  23.058  0.00  0.00     0.026 A 
ENDROOT
BRANCH   1  12
ATOM     12  C   UNL d   1     -43.349  12.795  21.439  0.00  0.00     0.302 C 
ATOM     13  N   UNL d   1     -42.909  13.495  21.483  0.00  0.00    -0.102 NA
ATOM     14  O   UNL d   1     -43.089  12.143  20.965  0.00  0.00    -0.263 OA
BRANCH  13  15
ATOM     15  N   UNL d   1     -42.217  13.561  21.065  0.00  0.00    -0.102 NA
ATOM     16  C   UNL d   1     -41.819  14.290  21.048  0.00  0.00     0.297 C 
ATOM     17  O   UNL d   1     -42.114  14.934  21.442  0.00  0.00    -0.264 OA
BRANCH  16  18
ATOM     18  C   UNL d   1     -41.121  14.363  20.629  0.00  0.00     0.059 A 
ATOM     19  C   UNL d   1     -41.119  14.385  19.815  0.00  0.00     0.005 A 
ATOM     20  C   UNL d   1     -40.424  14.459  19.390  0.00  0.00     0.007 A 
ATOM     21  C   UNL d   1     -39.705  14.513  19.774  0.00  0.00     0.035 A 
ATOM     22  C   UNL d   1     -39.700  14.492  20.613  0.00  0.00     0.007 A 
ATOM     23 BR   UNL d   1     -39.011  14.587  19.343  0.00  0.00    -0.049 Br
ATOM     24  C   UNL d   1     -40.396  14.418  21.037  0.00  0.00     0.005 A 
ENDBRANCH  16  18
ENDBRANCH  13  15
ENDBRANCH   1  12
BRANCH   8  25
ATOM     25  O   UNL d   1     -46.331  12.080  23.654  0.00  0.00    -0.326 OA
ATOM     26  C   UNL d   1     -47.072  11.756  23.697  0.00  0.00     0.181 C 
ENDBRANCH   8  25
TORSDOF 4
ENDMDL
MODEL 5
REMARK VINA RESULT:      -4.4      2.277      6.289
REMARK  4 active torsions:
REMARK  status: ('A' for Active; 'I' for Inactive)
REMARK    1  A    between atoms: C_6  and  C_1 
REMARK       I    between atoms: N_9  and  C_6 
REMARK       I    between atoms: C_8  and  N_10 
REMARK    2  A    between atoms: C_11  and  C_8 
REMARK    3  A    between atoms: N_10  and  N_9 
REMARK    4  A    between atoms: O_22  and  C_13 
ROOT
ATOM      1  C   UNL d   1     -43.097  13.250  21.393  0.00  0.00     0.123 A 
ATOM      2  C   UNL d   1     -42.496  12.772  21.694  0.00  0.00     0.305 A 
ATOM      3  O   UNL d   1     -41.731  13.031  21.686  0.00  0.00    -0.271 OA
ATOM      4  C   UNL d   1     -42.916  13.975  21.092  0.00  0.00     0.012 A 
ATOM      5  C   UNL d   1     -41.527  13.788  21.375  0.00  0.00     0.125 A 
ATOM      6  C   UNL d   1     -42.128  14.266  21.074  0.00  0.00     0.025 A 
ATOM      7  O   UNL d   1     -42.672  12.044  21.997  0.00  0.00    -0.259 OA
ATOM      8  C   UNL d   1     -40.747  14.063  21.362  0.00  0.00     0.117 A 
ATOM      9  C   UNL d   1     -41.933  15.007  20.768  0.00  0.00     0.002 A 
ATOM     10  C   UNL d   1     -41.153  15.288  20.752  0.00  0.00     0.002 A 
ATOM     11  C   UNL d   1     -40.552  14.809  21.053  0.00  0.00     0.026 A 
ENDROOT
BRANCH   1  12
ATOM     12  C   UNL d   1     -43.880  13.006  21.392  0.00  0.00     0.302 C 
ATOM     13  N   UNL d   1     -44.378  13.301  21.984  0.00  0.00    -0.102 NA
ATOM     14  O   UNL d   1     -44.169  12.471  20.802  0.00  0.00    -0.263 OA
BRANCH  13  15
ATOM     15  N   UNL d   1     -45.157  13.074  22.003  0.00  0.00    -0.102 NA
ATOM     16  C   UNL d   1     -45.672  13.431  22.549  0.00  0.00     0.297 C 
ATOM     17  O   UNL d   1     -45.405  14.001  23.060  0.00  0.00    -0.264 OA
BRANCH  16  18
ATOM     18  C   UNL d   1     -46.457  13.208  22.574  0.00  0.00     0.059 A 
ATOM     19  C   UNL d   1     -47.017  13.586  22.118  0.00  0.00     0.005 A 
ATOM     20  C   UNL d   1     -47.805  13.367  22.139  0.00  0.00     0.007 A 
ATOM     21  C   UNL d   1     -48.056  12.758  22.622  0.00  0.00     0.035 A 
ATOM     22  C   UNL d   1     -47.484  12.364  23.094  0.00  0.00     0.007 A 
ATOM     23 BR   UNL d   1     -48.847  12.543  22.639  0.00  0.00    -0.049 Br
ATOM     24  C   UNL d   1     -46.696  12.584  23.073  0.00  0.00     0.005 A 
ENDBRANCH  16  18
ENDBRANCH  13  15
ENDBRANCH   1  12
BRANCH   8  25
ATOM     25  O   UNL d   1     -40.152  13.590  21.659  0.00  0.00    -0.326 OA
ATOM     26  C   UNL d   1     -39.392  13.864  21.695  0.00  0.00     0.181 C 
ENDBRANCH   8  25
TORSDOF 4
ENDMDL
MODEL 6
REMARK VINA RESULT:      -3.4      3.285      7.309
REMARK  4 active torsions:
REMARK  status: ('A' for Active; 'I' for Inactive)
REMARK    1  A    between atoms: C_6  and  C_1 
REMARK       I    between atoms: N_9  and  C_6 
REMARK       I    between atoms: C_8  and  N_10 
REMARK    2  A    between atoms: C_11  and  C_8 
REMARK    3  A    between atoms: N_10  and  N_9 
REMARK    4  A    between atoms: O_22  and  C_13 
ROOT
ATOM      1  C   UNL d   1     -41.292  14.227  20.578  0.00  0.00     0.123 A 
ATOM      2  C   UNL d   1     -40.558  14.095  20.931  0.00  0.00     0.305 A 
ATOM      3  O   UNL d   1     -39.890  14.072  20.478  0.00  0.00    -0.271 OA
ATOM      4  C   UNL d   1     -41.337  14.333  19.780  0.00  0.00     0.012 A 
ATOM      5  C   UNL d   1     -39.921  14.182  19.643  0.00  0.00     0.125 A 
ATOM      6  C   UNL d   1     -40.655  14.314  19.289  0.00  0.00     0.025 A 
ATOM      7  O   UNL d   1     -40.508  13.988  21.730  0.00  0.00    -0.259 OA
ATOM      8  C   UNL d   1     -39.243  14.161  19.170  0.00  0.00     0.117 A 
ATOM      9  C   UNL d   1     -40.690  14.421  18.472  0.00  0.00     0.002 A 
ATOM     10  C   UNL d   1     -40.014  14.401  17.993  0.00  0.00     0.002 A 
ATOM     11  C   UNL d   1     -39.281  14.269  18.347  0.00  0.00     0.026 A 
ENDROOT
BRANCH   1  12
ATOM     12  C   UNL d   1     -41.984  14.254  21.019  0.00  0.00     0.302 C 
ATOM     13  N   UNL d   1     -42.455  13.573  21.040  0.00  0.00    -0.102 NA
ATOM     14  O   UNL d   1     -42.206  14.955  21.438  0.00  0.00    -0.263 OA
BRANCH  13  15
ATOM     15  N   UNL d   1     -43.143  13.576  21.469  0.00  0.00    -0.102 NA
ATOM     16  C   UNL d   1     -43.637  12.908  21.451  0.00  0.00     0.297 C 
ATOM     17  O   UNL d   1     -43.439  12.256  21.010  0.00  0.00    -0.264 OA
BRANCH  16  18
ATOM     18  C   UNL d   1     -44.332  12.903  21.881  0.00  0.00     0.059 A 
ATOM     19  C   UNL d   1     -44.877  13.503  21.807  0.00  0.00     0.005 A 
ATOM     20  C   UNL d   1     -45.575  13.504  22.234  0.00  0.00     0.007 A 
ATOM     21  C   UNL d   1     -45.746  12.896  22.752  0.00  0.00     0.035 A 
ATOM     22  C   UNL d   1     -45.188  12.274  22.834  0.00  0.00     0.007 A 
ATOM     23 BR   UNL d   1     -46.447  12.902  23.179  0.00  0.00    -0.049 Br
ATOM     24  C   UNL d   1     -44.490  12.274  22.406  0.00  0.00     0.005 A 
ENDBRANCH  16  18
ENDBRANCH  13  15
ENDBRANCH   1  12
BRANCH   8  25
ATOM     25  O   UNL d   1     -38.517  14.030  19.520  0.00  0.00    -0.326 OA
ATOM     26  C   UNL d   1     -37.941  13.623  19.124  0.00  0.00     0.181 C 
ENDBRANCH   8  25
TORSDOF 4
ENDMDL
