MODEL 1
REMARK VINA RESULT:      42.0      0.000      0.000
REMARK  4 active torsions:
REMARK  status: ('A' for Active; 'I' for Inactive)
REMARK    1  A    between atoms: C_8  and  C_1 
REMARK    2  A    between atoms: C_6  and  C_16 
REMARK    3  A    between atoms: O_13  and  C_8 
REMARK    4  A    between atoms: C_16  and  O_13 
ROOT
ATOM      1  C   UNL d   1      44.950 -17.149  38.981  0.00  0.00     0.305 C 
ATOM      2  O   UNL d   1      44.205 -17.492  39.155  0.00  0.00    -0.259 OA
ENDROOT
BRANCH   1   3
ATOM      3  C   UNL d   1      45.053 -16.613  38.300  0.00  0.00     0.127 A 
ATOM      4  C   UNL d   1      44.452 -16.565  37.716  0.00  0.00     0.305 A 
ATOM      5  O   UNL d   1      44.584 -16.058  37.101  0.00  0.00    -0.273 OA
ATOM      6  O   UNL d   1      43.764 -17.011  37.765  0.00  0.00    -0.259 OA
ATOM      7  C   UNL d   1      45.259 -15.614  37.043  0.00  0.00     0.103 A 
ATOM      8  C   UNL d   1      45.844 -15.674  37.632  0.00  0.00     0.023 A 
ATOM      9  C   UNL d   1      45.393 -15.105  36.426  0.00  0.00     0.025 A 
ATOM     10  C   UNL d   1      45.731 -16.190  38.274  0.00  0.00     0.013 A 
ATOM     11  C   UNL d   1      46.540 -15.236  37.599  0.00  0.00     0.002 A 
ATOM     12  C   UNL d   1      46.641 -14.728  36.957  0.00  0.00     0.000 A 
ATOM     13  C   UNL d   1      46.072 -14.658  36.367  0.00  0.00     0.002 A 
ENDBRANCH   1   3
BRANCH   1  14
ATOM     14  O   UNL d   1      45.588 -17.318  39.453  0.00  0.00    -0.269 OA
BRANCH  14  15
ATOM     15  C   UNL d   1      45.774 -18.074  39.639  0.00  0.00     0.152 C 
BRANCH  15  16
ATOM     16  C   UNL d   1      45.978 -18.264  40.423  0.00  0.00     0.136 A 
ATOM     17  N   UNL d   1      46.084 -17.784  41.078  0.00  0.00    -0.236 NA
ATOM     18  C   UNL d   1      46.282 -18.274  41.707  0.00  0.00     0.088 A 
ATOM     19  C   UNL d   1      46.453 -18.118  42.500  0.00  0.00     0.020 A 
ATOM     20  C   UNL d   1      46.292 -19.049  41.420  0.00  0.00     0.049 A 
ATOM     21  C   UNL d   1      46.640 -18.732  43.034  0.00  0.00     0.002 A 
ATOM     22  C   UNL d   1      46.645 -19.490  42.731  0.00  0.00     0.001 A 
ATOM     23  C   UNL d   1      46.473 -19.663  41.926  0.00  0.00     0.008 A 
ATOM     24  S   UNL d   1      46.106 -19.033  40.638  0.00  0.00    -0.064 SA
ENDBRANCH  15  16
ENDBRANCH  14  15
ENDBRANCH   1  14
TORSDOF 4
ENDMDL
