MODEL 1
REMARK VINA RESULT:      61.1      0.000      0.000
REMARK  3 active torsions:
REMARK  status: ('A' for Active; 'I' for Inactive)
REMARK    1  A    between atoms: C_5  and  C_1 
REMARK    2  A    between atoms: N_6  and  C_2 
REMARK       I    between atoms: C_8  and  N_6 
REMARK    3  A    between atoms: C_9  and  C_8 
ROOT
ATOM      1  C   UNL d   1      60.876  48.367  50.606  0.00  0.00     0.231 A 
ATOM      2  C   UNL d   1      59.730  48.919  51.014  0.00  0.00     0.297 A 
ATOM      3  O   UNL d   1      60.063  48.236  50.692  0.00  0.00    -0.252 OA
ATOM      4  N   UNL d   1      61.036  49.125  50.874  0.00  0.00    -0.117 NA
ATOM      5  N   UNL d   1      60.329  49.465  51.126  0.00  0.00    -0.101 NA
ENDROOT
BRANCH   2   6
ATOM      6  N   UNL d   1      58.931  49.022  51.188  0.00  0.00    -0.165 NA
ATOM      7  C   UNL d   1      58.430  49.363  50.641  0.00  0.00     0.282 C 
ATOM      8  O   UNL d   1      58.717  49.608  49.904  0.00  0.00    -0.265 OA
BRANCH   7   9
ATOM      9  C   UNL d   1      57.631  49.467  50.816  0.00  0.00     0.060 A 
ATOM     10  C   UNL d   1      57.370  49.436  51.589  0.00  0.00     0.034 A 
ATOM     11  C   UNL d   1      56.572  49.540  51.759  0.00  0.00     0.140 A 
ATOM     12  F   UNL d   1      56.298  49.511  52.548  0.00  0.00    -0.204 F 
ATOM     13  C   UNL d   1      56.033  49.675  51.149  0.00  0.00     0.030 A 
ATOM     14  C   UNL d   1      56.302  49.705  50.369  0.00  0.00     0.003 A 
ATOM     15  C   UNL d   1      57.105  49.600  50.203  0.00  0.00     0.005 A 
ENDBRANCH   7   9
ENDBRANCH   2   6
BRANCH   1  16
ATOM     16  C   UNL d   1      61.423  47.823  50.303  0.00  0.00     0.168 A 
ATOM     17  O   UNL d   1      62.041  47.560  50.776  0.00  0.00    -0.297 OA
ATOM     18  C   UNL d   1      62.579  47.024  50.477  0.00  0.00     0.149 A 
ATOM     19  C   UNL d   1      62.505  46.747  49.708  0.00  0.00     0.149 A 
ATOM     20  O   UNL d   1      61.891  47.002  49.226  0.00  0.00    -0.299 OA
ATOM     21  C   UNL d   1      61.350  47.540  49.525  0.00  0.00     0.151 A 
ENDBRANCH   1  16
TORSDOF 3
ENDMDL
