MODEL 1
REMARK VINA RESULT:      21.8      0.000      0.000
REMARK  1 active torsions:
REMARK  status: ('A' for Active; 'I' for Inactive)
REMARK    1  A    between atoms: C_10  and  C_7 
ROOT
ATOM      1  N   UNL d   1      60.400  49.605  51.378  0.00  0.00    -0.259 N 
ATOM      2  C   UNL d   1      60.603  49.590  50.564  0.00  0.00     0.202 A 
ATOM      3  C   UNL d   1      61.094  49.596  51.790  0.00  0.00     0.227 A 
ATOM      4  C   UNL d   1      59.620  49.622  51.423  0.00  0.00     0.091 A 
ATOM      5  S   UNL d   1      59.933  49.598  50.130  0.00  0.00    -0.047 SA
ATOM      6  N   UNL d   1      61.418  49.572  50.509  0.00  0.00    -0.121 NA
ATOM      7  C   UNL d   1      59.320  49.618  50.671  0.00  0.00     0.050 A 
ATOM      8  N   UNL d   1      61.720  49.576  51.291  0.00  0.00    -0.116 NA
ATOM      9  S   UNL d   1      61.133  49.606  52.655  0.00  0.00    -0.036 SA
ENDROOT
BRANCH   7  10
ATOM     10  C   UNL d   1      58.525  49.633  50.538  0.00  0.00     0.007 A 
ATOM     11  C   UNL d   1      58.019  49.603  51.192  0.00  0.00     0.001 A 
ATOM     12  C   UNL d   1      57.199  49.616  51.095  0.00  0.00     0.000 A 
ATOM     13  C   UNL d   1      56.907  49.661  50.303  0.00  0.00     0.000 A 
ATOM     14  C   UNL d   1      57.403  49.691  49.651  0.00  0.00     0.000 A 
ATOM     15  C   UNL d   1      56.043  49.681  50.104  0.00  0.00     0.000 C 
ATOM     16  C   UNL d   1      58.220  49.677  49.764  0.00  0.00     0.001 A 
ENDBRANCH   7  10
TORSDOF 1
ENDMDL
