MODEL 1
REMARK VINA RESULT:      -2.9      0.000      0.000
REMARK  5 active torsions:
REMARK  status: ('A' for Active; 'I' for Inactive)
REMARK    1  A    between atoms: C_9  and  N_1 
REMARK    2  A    between atoms: C_2  and  C_9 
REMARK    3  A    between atoms: S_14  and  C_5 
REMARK    4  A    between atoms: C_12  and  C_16 
REMARK       I    between atoms: N_13  and  C_12 
REMARK    5  A    between atoms: C_16  and  S_14 
ROOT
ATOM      1  C   UNL d   1      59.030  -0.305  29.602  0.00  0.00     0.189 A 
ATOM      2  N   UNL d   1      58.271  -0.045  29.768  0.00  0.00    -0.265 N 
ATOM      3  C   UNL d   1      58.286   0.333  30.500  0.00  0.00     0.202 A 
ATOM      4  N   UNL d   1      59.515  -0.089  30.228  0.00  0.00    -0.126 NA
ATOM      5  N   UNL d   1      59.057   0.306  30.786  0.00  0.00    -0.121 NA
ATOM      6  C   UNL d   1      57.599  -0.138  29.295  0.00  0.00     0.103 C 
ENDROOT
BRANCH   1   7
ATOM      7  C   UNL d   1      59.183  -0.703  28.905  0.00  0.00     0.123 C 
BRANCH   7   8
ATOM      8  N   UNL d   1      59.844  -1.195  28.840  0.00  0.00    -0.265 N 
ATOM      9  C   UNL d   1      60.624  -0.946  28.708  0.00  0.00     0.296 A 
ATOM     10  S   UNL d   1      61.098  -1.620  28.682  0.00  0.00    -0.025 SA
ATOM     11  O   UNL d   1      60.875  -0.167  28.619  0.00  0.00    -0.259 OA
ATOM     12  C   UNL d   1      60.604  -2.283  28.799  0.00  0.00     0.050 A 
ATOM     13  C   UNL d   1      59.832  -2.013  28.896  0.00  0.00     0.074 A 
ATOM     14  C   UNL d   1      60.770  -3.094  28.829  0.00  0.00     0.008 A 
ATOM     15  C   UNL d   1      59.218  -2.558  29.023  0.00  0.00     0.018 A 
ATOM     16  C   UNL d   1      59.378  -3.369  29.053  0.00  0.00     0.002 A 
ATOM     17  C   UNL d   1      60.162  -3.629  28.954  0.00  0.00     0.001 A 
ENDBRANCH   7   8
ENDBRANCH   1   7
BRANCH   3  18
ATOM     18  S   UNL d   1      57.642   0.680  30.882  0.00  0.00    -0.043 SA
BRANCH  18  19
ATOM     19  C   UNL d   1      57.524   0.570  31.693  0.00  0.00     0.099 C 
BRANCH  19  20
ATOM     20  C   UNL d   1      56.762   0.596  32.012  0.00  0.00     0.271 C 
ATOM     21  N   UNL d   1      56.656   0.617  32.828  0.00  0.00    -0.272 N 
ATOM     22  C   UNL d   1      55.860   0.641  33.027  0.00  0.00     0.083 A 
ATOM     23  C   UNL d   1      57.313   0.612  33.330  0.00  0.00     0.083 A 
ATOM     24  C   UNL d   1      55.516   0.666  33.777  0.00  0.00     0.019 A 
ATOM     25  C   UNL d   1      55.883   0.673  34.509  0.00  0.00     0.002 A 
ATOM     26  C   UNL d   1      56.710   0.656  34.670  0.00  0.00     0.002 A 
ATOM     27  C   UNL d   1      57.338   0.630  34.161  0.00  0.00     0.019 A 
ATOM     28  O   UNL d   1      56.111   0.601  31.515  0.00  0.00    -0.266 OA
ENDBRANCH  19  20
ENDBRANCH  18  19
ENDBRANCH   3  18
TORSDOF 5
ENDMDL
MODEL 2
REMARK VINA RESULT:      -1.7      1.560      5.990
REMARK  5 active torsions:
REMARK  status: ('A' for Active; 'I' for Inactive)
REMARK    1  A    between atoms: C_9  and  N_1 
REMARK    2  A    between atoms: C_2  and  C_9 
REMARK    3  A    between atoms: S_14  and  C_5 
REMARK    4  A    between atoms: C_12  and  C_16 
REMARK       I    between atoms: N_13  and  C_12 
REMARK    5  A    between atoms: C_16  and  S_14 
ROOT
ATOM      1  C   UNL d   1      56.654   0.068  32.373  0.00  0.00     0.189 A 
ATOM      2  N   UNL d   1      56.767   0.075  31.560  0.00  0.00    -0.265 N 
ATOM      3  C   UNL d   1      57.189  -0.604  31.357  0.00  0.00     0.202 A 
ATOM      4  N   UNL d   1      57.004  -0.611  32.673  0.00  0.00    -0.126 NA
ATOM      5  N   UNL d   1      57.336  -1.029  32.046  0.00  0.00    -0.121 NA
ATOM      6  C   UNL d   1      56.509   0.651  31.028  0.00  0.00     0.103 C 
ENDROOT
BRANCH   1   7
ATOM      7  C   UNL d   1      56.248   0.679  32.733  0.00  0.00     0.123 C 
BRANCH   7   8
ATOM      8  N   UNL d   1      56.124   0.673  33.550  0.00  0.00    -0.265 N 
ATOM      9  C   UNL d   1      56.713   0.665  34.133  0.00  0.00     0.296 A 
ATOM     10  S   UNL d   1      56.338   0.661  34.867  0.00  0.00    -0.025 SA
ATOM     11  O   UNL d   1      57.526   0.661  33.999  0.00  0.00    -0.259 OA
ATOM     12  C   UNL d   1      55.514   0.668  34.731  0.00  0.00     0.050 A 
ATOM     13  C   UNL d   1      55.390   0.675  33.917  0.00  0.00     0.074 A 
ATOM     14  C   UNL d   1      54.870   0.668  35.252  0.00  0.00     0.008 A 
ATOM     15  C   UNL d   1      54.614   0.682  33.619  0.00  0.00     0.018 A 
ATOM     16  C   UNL d   1      53.968   0.682  34.135  0.00  0.00     0.002 A 
ATOM     17  C   UNL d   1      54.106   0.675  34.956  0.00  0.00     0.001 A 
ENDBRANCH   7   8
ENDBRANCH   1   7
BRANCH   3  18
ATOM     18  S   UNL d   1      57.424  -0.820  30.597  0.00  0.00    -0.043 SA
BRANCH  18  19
ATOM     19  C   UNL d   1      58.211  -0.737  30.360  0.00  0.00     0.099 C 
BRANCH  19  20
ATOM     20  C   UNL d   1      58.540  -1.260  29.810  0.00  0.00     0.271 C 
ATOM     21  N   UNL d   1      59.284  -1.111  29.491  0.00  0.00    -0.272 N 
ATOM     22  C   UNL d   1      59.506  -1.695  28.960  0.00  0.00     0.083 A 
ATOM     23  C   UNL d   1      59.704  -0.436  29.720  0.00  0.00     0.083 A 
ATOM     24  C   UNL d   1      60.203  -1.758  28.521  0.00  0.00     0.019 A 
ATOM     25  C   UNL d   1      60.845  -1.251  28.507  0.00  0.00     0.002 A 
ATOM     26  C   UNL d   1      60.948  -0.537  28.944  0.00  0.00     0.002 A 
ATOM     27  C   UNL d   1      60.454  -0.177  29.473  0.00  0.00     0.019 A 
ATOM     28  O   UNL d   1      58.124  -1.928  29.583  0.00  0.00    -0.266 OA
ENDBRANCH  19  20
ENDBRANCH  18  19
ENDBRANCH   3  18
TORSDOF 5
ENDMDL
MODEL 3
REMARK VINA RESULT:      -1.1      8.505     10.105
REMARK  5 active torsions:
REMARK  status: ('A' for Active; 'I' for Inactive)
REMARK    1  A    between atoms: C_9  and  N_1 
REMARK    2  A    between atoms: C_2  and  C_9 
REMARK    3  A    between atoms: S_14  and  C_5 
REMARK    4  A    between atoms: C_12  and  C_16 
REMARK       I    between atoms: N_13  and  C_12 
REMARK    5  A    between atoms: C_16  and  S_14 
ROOT
ATOM      1  C   UNL d   1      59.473  -8.988  34.046  0.00  0.00     0.189 A 
ATOM      2  N   UNL d   1      58.979  -9.428  33.561  0.00  0.00    -0.265 N 
ATOM      3  C   UNL d   1      59.306  -9.438  32.805  0.00  0.00     0.202 A 
ATOM      4  N   UNL d   1      60.104  -8.725  33.592  0.00  0.00    -0.126 NA
ATOM      5  N   UNL d   1      60.004  -9.002  32.823  0.00  0.00    -0.121 NA
ATOM      6  C   UNL d   1      58.275  -9.803  33.779  0.00  0.00     0.103 C 
ENDROOT
BRANCH   1   7
ATOM      7  C   UNL d   1      59.285  -8.883  34.834  0.00  0.00     0.123 C 
BRANCH   7   8
ATOM      8  N   UNL d   1      59.799  -8.475  35.336  0.00  0.00    -0.265 N 
ATOM      9  C   UNL d   1      60.454  -8.798  35.729  0.00  0.00     0.296 A 
ATOM     10  S   UNL d   1      60.804  -8.193  36.166  0.00  0.00    -0.025 SA
ATOM     11  O   UNL d   1      60.706  -9.581  35.687  0.00  0.00    -0.259 OA
ATOM     12  C   UNL d   1      60.360  -7.498  36.039  0.00  0.00     0.050 A 
ATOM     13  C   UNL d   1      59.742  -7.679  35.526  0.00  0.00     0.074 A 
ATOM     14  C   UNL d   1      60.448  -6.727  36.330  0.00  0.00     0.008 A 
ATOM     15  C   UNL d   1      59.206  -7.086  35.300  0.00  0.00     0.018 A 
ATOM     16  C   UNL d   1      59.290  -6.315  35.588  0.00  0.00     0.002 A 
ATOM     17  C   UNL d   1      59.918  -6.144  36.106  0.00  0.00     0.001 A 
ENDBRANCH   7   8
ENDBRANCH   1   7
BRANCH   3  18
ATOM     18  S   UNL d   1      58.992  -9.817  32.144  0.00  0.00    -0.043 SA
BRANCH  18  19
ATOM     19  C   UNL d   1      58.579  -9.389  31.569  0.00  0.00     0.099 C 
BRANCH  19  20
ATOM     20  C   UNL d   1      58.724  -9.521  30.766  0.00  0.00     0.271 C 
ATOM     21  N   UNL d   1      58.096  -9.572  30.236  0.00  0.00    -0.272 N 
ATOM     22  C   UNL d   1      58.359  -9.704  29.470  0.00  0.00     0.083 A 
ATOM     23  C   UNL d   1      57.319  -9.492  30.507  0.00  0.00     0.083 A 
ATOM     24  C   UNL d   1      57.916  -9.789  28.778  0.00  0.00     0.019 A 
ATOM     25  C   UNL d   1      57.104  -9.764  28.686  0.00  0.00     0.002 A 
ATOM     26  C   UNL d   1      56.520  -9.643  29.282  0.00  0.00     0.002 A 
ATOM     27  C   UNL d   1      56.608  -9.524  30.077  0.00  0.00     0.019 A 
ATOM     28  O   UNL d   1      59.493  -9.600  30.497  0.00  0.00    -0.266 OA
ENDBRANCH  19  20
ENDBRANCH  18  19
ENDBRANCH   3  18
TORSDOF 5
ENDMDL
MODEL 4
REMARK VINA RESULT:       0.0      1.301      1.705
REMARK  5 active torsions:
REMARK  status: ('A' for Active; 'I' for Inactive)
REMARK    1  A    between atoms: C_9  and  N_1 
REMARK    2  A    between atoms: C_2  and  C_9 
REMARK    3  A    between atoms: S_14  and  C_5 
REMARK    4  A    between atoms: C_12  and  C_16 
REMARK       I    between atoms: N_13  and  C_12 
REMARK    5  A    between atoms: C_16  and  S_14 
ROOT
ATOM      1  C   UNL d   1      58.168  -1.062  29.899  0.00  0.00     0.189 A 
ATOM      2  N   UNL d   1      58.034  -0.287  30.128  0.00  0.00    -0.265 N 
ATOM      3  C   UNL d   1      57.647  -0.300  30.856  0.00  0.00     0.202 A 
ATOM      4  N   UNL d   1      57.866  -1.556  30.481  0.00  0.00    -0.126 NA
ATOM      5  N   UNL d   1      57.542  -1.086  31.075  0.00  0.00    -0.121 NA
ATOM      6  C   UNL d   1      58.244   0.397  29.715  0.00  0.00     0.103 C 
ENDROOT
BRANCH   1   7
ATOM      7  C   UNL d   1      58.547  -1.220  29.192  0.00  0.00     0.123 C 
BRANCH   7   8
ATOM      8  N   UNL d   1      58.857  -1.971  29.042  0.00  0.00    -0.265 N 
ATOM      9  C   UNL d   1      58.422  -2.674  28.979  0.00  0.00     0.296 A 
ATOM     10  S   UNL d   1      58.955  -3.283  28.826  0.00  0.00    -0.025 SA
ATOM     11  O   UNL d   1      57.605  -2.745  29.056  0.00  0.00    -0.259 OA
ATOM     12  C   UNL d   1      59.720  -2.950  28.796  0.00  0.00     0.050 A 
ATOM     13  C   UNL d   1      59.652  -2.141  28.930  0.00  0.00     0.074 A 
ATOM     14  C   UNL d   1      60.463  -3.290  28.663  0.00  0.00     0.008 A 
ATOM     15  C   UNL d   1      60.333  -1.664  28.931  0.00  0.00     0.018 A 
ATOM     16  C   UNL d   1      61.077  -2.000  28.798  0.00  0.00     0.002 A 
ATOM     17  C   UNL d   1      61.134  -2.819  28.664  0.00  0.00     0.001 A 
ENDBRANCH   7   8
ENDBRANCH   1   7
BRANCH   3  18
ATOM     18  S   UNL d   1      57.406   0.358  31.290  0.00  0.00    -0.043 SA
BRANCH  18  19
ATOM     19  C   UNL d   1      56.793   0.297  31.841  0.00  0.00     0.099 C 
BRANCH  19  20
ATOM     20  C   UNL d   1      56.927   0.476  32.638  0.00  0.00     0.271 C 
ATOM     21  N   UNL d   1      56.307   0.447  33.178  0.00  0.00    -0.272 N 
ATOM     22  C   UNL d   1      56.558   0.643  33.934  0.00  0.00     0.083 A 
ATOM     23  C   UNL d   1      55.548   0.239  32.925  0.00  0.00     0.083 A 
ATOM     24  C   UNL d   1      56.117   0.682  34.631  0.00  0.00     0.019 A 
ATOM     25  C   UNL d   1      55.320   0.534  34.741  0.00  0.00     0.002 A 
ATOM     26  C   UNL d   1      54.754   0.305  34.160  0.00  0.00     0.002 A 
ATOM     27  C   UNL d   1      54.847   0.175  33.368  0.00  0.00     0.019 A 
ATOM     28  O   UNL d   1      57.679   0.682  32.888  0.00  0.00    -0.266 OA
ENDBRANCH  19  20
ENDBRANCH  18  19
ENDBRANCH   3  18
TORSDOF 5
ENDMDL
