MODEL 1
REMARK VINA RESULT:      -8.2      0.000      0.000
REMARK  6 active torsions:
REMARK  status: ('A' for Active; 'I' for Inactive)
REMARK    1  A    between atoms: C_6  and  C_2 
REMARK    2  A    between atoms: C_7  and  C_6 
REMARK    3  A    between atoms: C_8  and  C_15 
REMARK       I    between atoms: N_9  and  C_8 
REMARK    4  A    between atoms: C_16  and  N_9 
REMARK    5  A    between atoms: O_13  and  C_12 
REMARK    6  A    between atoms: C_15  and  O_13 
ROOT
ATOM      1  C   UNL d   1      53.666  33.340  54.256  0.00  0.00     0.023 A 
ATOM      2  C   UNL d   1      53.842  32.662  53.821  0.00  0.00     0.100 A 
ATOM      3  C   UNL d   1      54.259  33.743  54.655  0.00  0.00     0.002 A 
ATOM      4  C   UNL d   1      54.618  32.385  53.783  0.00  0.00     0.025 A 
ATOM      5  C   UNL d   1      55.040  33.471  54.623  0.00  0.00     0.000 A 
ATOM      6  C   UNL d   1      55.215  32.790  54.184  0.00  0.00     0.002 A 
ENDROOT
BRANCH   2   7
ATOM      7  O   UNL d   1      53.242  32.257  53.419  0.00  0.00    -0.300 OA
BRANCH   7   8
ATOM      8  C   UNL d   1      53.265  31.427  53.386  0.00  0.00     0.185 C 
BRANCH   8   9
ATOM      9  C   UNL d   1      52.817  31.025  52.812  0.00  0.00     0.304 C 
ATOM     10  N   UNL d   1      52.645  30.222  52.917  0.00  0.00    -0.206 NA
ATOM     11  O   UNL d   1      52.547  31.426  52.144  0.00  0.00    -0.263 OA
BRANCH  10  12
ATOM     12  C   UNL d   1      52.915  29.822  53.585  0.00  0.00     0.085 A 
ATOM     13  C   UNL d   1      53.629  29.397  53.549  0.00  0.00     0.019 A 
ATOM     14  C   UNL d   1      53.904  28.994  54.214  0.00  0.00     0.002 A 
ATOM     15  C   UNL d   1      53.467  29.013  54.921  0.00  0.00     0.000 A 
ATOM     16  C   UNL d   1      52.756  29.439  54.950  0.00  0.00     0.002 A 
ATOM     17  C   UNL d   1      52.485  29.840  54.281  0.00  0.00     0.019 A 
ENDBRANCH  10  12
ENDBRANCH   8   9
ENDBRANCH   7   8
ENDBRANCH   2   7
BRANCH   1  18
ATOM     18  C   UNL d   1      52.888  33.620  54.296  0.00  0.00     0.013 C 
BRANCH  18  19
ATOM     19  C   UNL d   1      52.731  34.429  54.271  0.00  0.00     0.092 A 
ATOM     20  C   UNL d   1      52.242  34.814  53.738  0.00  0.00     0.288 A 
ATOM     21  N   UNL d   1      52.248  35.617  53.915  0.00  0.00    -0.163 NA
ATOM     22  O   UNL d   1      51.816  34.458  53.127  0.00  0.00    -0.265 OA
ATOM     23  C   UNL d   1      52.747  35.731  54.567  0.00  0.00     0.313 A 
ATOM     24  S   UNL d   1      53.048  34.993  54.788  0.00  0.00    -0.021 SA
ATOM     25  O   UNL d   1      52.917  36.456  54.934  0.00  0.00    -0.258 OA
ENDBRANCH  18  19
ENDBRANCH   1  18
TORSDOF 6
ENDMDL
MODEL 2
REMARK VINA RESULT:      -7.2      1.688      4.288
REMARK  6 active torsions:
REMARK  status: ('A' for Active; 'I' for Inactive)
REMARK    1  A    between atoms: C_6  and  C_2 
REMARK    2  A    between atoms: C_7  and  C_6 
REMARK    3  A    between atoms: C_8  and  C_15 
REMARK       I    between atoms: N_9  and  C_8 
REMARK    4  A    between atoms: C_16  and  N_9 
REMARK    5  A    between atoms: O_13  and  C_12 
REMARK    6  A    between atoms: C_15  and  O_13 
ROOT
ATOM      1  C   UNL d   1      53.815  32.272  54.091  0.00  0.00     0.023 A 
ATOM      2  C   UNL d   1      53.755  33.095  54.109  0.00  0.00     0.100 A 
ATOM      3  C   UNL d   1      54.000  31.855  54.772  0.00  0.00     0.002 A 
ATOM      4  C   UNL d   1      53.880  33.503  54.815  0.00  0.00     0.025 A 
ATOM      5  C   UNL d   1      54.127  32.256  55.485  0.00  0.00     0.000 A 
ATOM      6  C   UNL d   1      54.066  33.083  55.501  0.00  0.00     0.002 A 
ENDROOT
BRANCH   2   7
ATOM      7  O   UNL d   1      53.568  33.515  53.421  0.00  0.00    -0.300 OA
BRANCH   7   8
ATOM      8  C   UNL d   1      52.929  34.046  53.430  0.00  0.00     0.185 C 
BRANCH   8   9
ATOM      9  C   UNL d   1      52.975  34.753  52.995  0.00  0.00     0.304 C 
ATOM     10  N   UNL d   1      52.295  35.053  52.630  0.00  0.00    -0.206 NA
ATOM     11  O   UNL d   1      53.695  35.151  52.928  0.00  0.00    -0.263 OA
BRANCH  10  12
ATOM     12  C   UNL d   1      51.576  34.655  52.697  0.00  0.00     0.085 A 
ATOM     13  C   UNL d   1      51.291  34.210  52.054  0.00  0.00     0.019 A 
ATOM     14  C   UNL d   1      50.572  33.810  52.115  0.00  0.00     0.002 A 
ATOM     15  C   UNL d   1      50.133  33.851  52.819  0.00  0.00     0.000 A 
ATOM     16  C   UNL d   1      50.423  34.296  53.456  0.00  0.00     0.002 A 
ATOM     17  C   UNL d   1      51.143  34.695  53.390  0.00  0.00     0.019 A 
ENDBRANCH  10  12
ENDBRANCH   8   9
ENDBRANCH   7   8
ENDBRANCH   2   7
BRANCH   1  18
ATOM     18  C   UNL d   1      53.689  31.860  53.384  0.00  0.00     0.013 C 
BRANCH  18  19
ATOM     19  C   UNL d   1      53.406  31.087  53.394  0.00  0.00     0.092 A 
ATOM     20  C   UNL d   1      52.870  30.758  52.869  0.00  0.00     0.288 A 
ATOM     21  N   UNL d   1      52.744  29.975  53.084  0.00  0.00    -0.163 NA
ATOM     22  O   UNL d   1      52.515  31.146  52.232  0.00  0.00    -0.265 OA
ATOM     23  C   UNL d   1      53.209  29.816  53.751  0.00  0.00     0.313 A 
ATOM     24  S   UNL d   1      53.620  30.507  53.944  0.00  0.00    -0.021 SA
ATOM     25  O   UNL d   1      53.254  29.092  54.156  0.00  0.00    -0.258 OA
ENDBRANCH  18  19
ENDBRANCH   1  18
TORSDOF 6
ENDMDL
MODEL 3
REMARK VINA RESULT:      -6.9      1.549      2.287
REMARK  6 active torsions:
REMARK  status: ('A' for Active; 'I' for Inactive)
REMARK    1  A    between atoms: C_6  and  C_2 
REMARK    2  A    between atoms: C_7  and  C_6 
REMARK    3  A    between atoms: C_8  and  C_15 
REMARK       I    between atoms: N_9  and  C_8 
REMARK    4  A    between atoms: C_16  and  N_9 
REMARK    5  A    between atoms: O_13  and  C_12 
REMARK    6  A    between atoms: C_15  and  O_13 
ROOT
ATOM      1  C   UNL d   1      52.778  34.493  53.593  0.00  0.00     0.023 A 
ATOM      2  C   UNL d   1      53.373  33.981  53.843  0.00  0.00     0.100 A 
ATOM      3  C   UNL d   1      52.464  35.049  54.108  0.00  0.00     0.002 A 
ATOM      4  C   UNL d   1      53.659  34.025  54.616  0.00  0.00     0.025 A 
ATOM      5  C   UNL d   1      52.745  35.100  54.886  0.00  0.00     0.000 A 
ATOM      6  C   UNL d   1      53.344  34.584  55.135  0.00  0.00     0.002 A 
ENDROOT
BRANCH   2   7
ATOM      7  O   UNL d   1      53.689  33.420  53.322  0.00  0.00    -0.300 OA
BRANCH   7   8
ATOM      8  C   UNL d   1      53.866  32.659  53.603  0.00  0.00     0.185 C 
BRANCH   8   9
ATOM      9  C   UNL d   1      54.523  32.250  53.299  0.00  0.00     0.304 C 
ATOM     10  N   UNL d   1      54.470  31.435  53.161  0.00  0.00    -0.206 NA
ATOM     11  O   UNL d   1      55.223  32.656  53.135  0.00  0.00    -0.263 OA
BRANCH  10  12
ATOM     12  C   UNL d   1      53.771  31.030  53.325  0.00  0.00     0.085 A 
ATOM     13  C   UNL d   1      53.666  30.674  54.069  0.00  0.00     0.019 A 
ATOM     14  C   UNL d   1      52.968  30.267  54.238  0.00  0.00     0.002 A 
ATOM     15  C   UNL d   1      52.370  30.214  53.664  0.00  0.00     0.000 A 
ATOM     16  C   UNL d   1      52.481  30.571  52.924  0.00  0.00     0.002 A 
ATOM     17  C   UNL d   1      53.180  30.977  52.760  0.00  0.00     0.019 A 
ENDBRANCH  10  12
ENDBRANCH   8   9
ENDBRANCH   7   8
ENDBRANCH   2   7
BRANCH   1  18
ATOM     18  C   UNL d   1      52.490  34.450  52.818  0.00  0.00     0.013 C 
BRANCH  18  19
ATOM     19  C   UNL d   1      51.680  34.400  52.673  0.00  0.00     0.092 A 
ATOM     20  C   UNL d   1      51.322  34.278  51.947  0.00  0.00     0.288 A 
ATOM     21  N   UNL d   1      50.508  34.265  52.058  0.00  0.00    -0.163 NA
ATOM     22  O   UNL d   1      51.712  34.183  51.225  0.00  0.00    -0.265 OA
ATOM     23  C   UNL d   1      50.359  34.381  52.865  0.00  0.00     0.313 A 
ATOM     24  S   UNL d   1      51.087  34.465  53.247  0.00  0.00    -0.021 SA
ATOM     25  O   UNL d   1      49.612  34.409  53.227  0.00  0.00    -0.258 OA
ENDBRANCH  18  19
ENDBRANCH   1  18
TORSDOF 6
ENDMDL
MODEL 4
REMARK VINA RESULT:      -6.4      1.242      2.013
REMARK  6 active torsions:
REMARK  status: ('A' for Active; 'I' for Inactive)
REMARK    1  A    between atoms: C_6  and  C_2 
REMARK    2  A    between atoms: C_7  and  C_6 
REMARK    3  A    between atoms: C_8  and  C_15 
REMARK       I    between atoms: N_9  and  C_8 
REMARK    4  A    between atoms: C_16  and  N_9 
REMARK    5  A    between atoms: O_13  and  C_12 
REMARK    6  A    between atoms: C_15  and  O_13 
ROOT
ATOM      1  C   UNL d   1      52.345  33.647  53.816  0.00  0.00     0.023 A 
ATOM      2  C   UNL d   1      52.643  33.151  53.228  0.00  0.00     0.100 A 
ATOM      3  C   UNL d   1      51.609  34.000  53.728  0.00  0.00     0.002 A 
ATOM      4  C   UNL d   1      52.202  33.007  52.546  0.00  0.00     0.025 A 
ATOM      5  C   UNL d   1      51.160  33.860  53.047  0.00  0.00     0.000 A 
ATOM      6  C   UNL d   1      51.462  33.361  52.457  0.00  0.00     0.002 A 
ENDROOT
BRANCH   2   7
ATOM      7  O   UNL d   1      53.385  32.796  53.319  0.00  0.00    -0.300 OA
BRANCH   7   8
ATOM      8  C   UNL d   1      53.458  31.975  53.211  0.00  0.00     0.185 C 
BRANCH   8   9
ATOM      9  C   UNL d   1      54.214  31.633  53.157  0.00  0.00     0.304 C 
ATOM     10  N   UNL d   1      54.300  30.815  53.255  0.00  0.00    -0.206 NA
ATOM     11  O   UNL d   1      54.873  32.107  53.008  0.00  0.00    -0.263 OA
BRANCH  10  12
ATOM     12  C   UNL d   1      53.642  30.342  53.404  0.00  0.00     0.085 A 
ATOM     13  C   UNL d   1      53.462  30.124  54.186  0.00  0.00     0.019 A 
ATOM     14  C   UNL d   1      52.804  29.650  54.342  0.00  0.00     0.002 A 
ATOM     15  C   UNL d   1      52.322  29.392  53.717  0.00  0.00     0.000 A 
ATOM     16  C   UNL d   1      52.507  29.614  52.939  0.00  0.00     0.002 A 
ATOM     17  C   UNL d   1      53.166  30.087  52.789  0.00  0.00     0.019 A 
ENDBRANCH  10  12
ENDBRANCH   8   9
ENDBRANCH   7   8
ENDBRANCH   2   7
BRANCH   1  18
ATOM     18  C   UNL d   1      52.785  33.794  54.501  0.00  0.00     0.013 C 
BRANCH  18  19
ATOM     19  C   UNL d   1      53.024  34.559  54.691  0.00  0.00     0.092 A 
ATOM     20  C   UNL d   1      53.653  34.768  55.173  0.00  0.00     0.288 A 
ATOM     21  N   UNL d   1      53.690  35.588  55.210  0.00  0.00    -0.163 NA
ATOM     22  O   UNL d   1      54.164  34.244  55.556  0.00  0.00    -0.265 OA
ATOM     23  C   UNL d   1      53.075  35.892  54.745  0.00  0.00     0.313 A 
ATOM     24  S   UNL d   1      52.661  35.253  54.423  0.00  0.00    -0.021 SA
ATOM     25  O   UNL d   1      52.904  36.695  54.624  0.00  0.00    -0.258 OA
ENDBRANCH  18  19
ENDBRANCH   1  18
TORSDOF 6
ENDMDL
MODEL 5
REMARK VINA RESULT:      -6.1      2.600      4.230
REMARK  6 active torsions:
REMARK  status: ('A' for Active; 'I' for Inactive)
REMARK    1  A    between atoms: C_6  and  C_2 
REMARK    2  A    between atoms: C_7  and  C_6 
REMARK    3  A    between atoms: C_8  and  C_15 
REMARK       I    between atoms: N_9  and  C_8 
REMARK    4  A    between atoms: C_16  and  N_9 
REMARK    5  A    between atoms: O_13  and  C_12 
REMARK    6  A    between atoms: C_15  and  O_13 
ROOT
ATOM      1  C   UNL d   1      50.702  34.548  52.790  0.00  0.00     0.023 A 
ATOM      2  C   UNL d   1      51.507  34.620  52.952  0.00  0.00     0.100 A 
ATOM      3  C   UNL d   1      50.449  34.240  52.074  0.00  0.00     0.002 A 
ATOM      4  C   UNL d   1      52.065  34.381  52.393  0.00  0.00     0.025 A 
ATOM      5  C   UNL d   1      51.002  33.997  51.506  0.00  0.00     0.000 A 
ATOM      6  C   UNL d   1      51.811  34.070  51.672  0.00  0.00     0.002 A 
ENDROOT
BRANCH   2   7
ATOM      7  O   UNL d   1      51.761  34.932  53.676  0.00  0.00    -0.300 OA
BRANCH   7   8
ATOM      8  C   UNL d   1      52.521  34.743  53.956  0.00  0.00     0.185 C 
BRANCH   8   9
ATOM      9  C   UNL d   1      52.881  35.226  54.529  0.00  0.00     0.304 C 
ATOM     10  N   UNL d   1      53.519  34.934  54.967  0.00  0.00    -0.206 NA
ATOM     11  O   UNL d   1      52.601  35.992  54.657  0.00  0.00    -0.263 OA
BRANCH  10  12
ATOM     12  C   UNL d   1      53.798  34.169  54.838  0.00  0.00     0.085 A 
ATOM     13  C   UNL d   1      54.442  34.047  54.325  0.00  0.00     0.019 A 
ATOM     14  C   UNL d   1      54.725  33.283  54.192  0.00  0.00     0.002 A 
ATOM     15  C   UNL d   1      54.366  32.636  54.570  0.00  0.00     0.000 A 
ATOM     16  C   UNL d   1      53.725  32.765  55.080  0.00  0.00     0.002 A 
ATOM     17  C   UNL d   1      53.446  33.530  55.210  0.00  0.00     0.019 A 
ENDBRANCH  10  12
ENDBRANCH   8   9
ENDBRANCH   7   8
ENDBRANCH   2   7
BRANCH   1  18
ATOM     18  C   UNL d   1      50.141  34.788  53.350  0.00  0.00     0.013 C 
BRANCH  18  19
ATOM     19  C   UNL d   1      49.428  35.124  53.111  0.00  0.00     0.092 A 
ATOM     20  C   UNL d   1      49.023  35.727  53.490  0.00  0.00     0.288 A 
ATOM     21  N   UNL d   1      48.340  35.890  53.062  0.00  0.00    -0.163 NA
ATOM     22  O   UNL d   1      49.260  36.108  54.184  0.00  0.00    -0.265 OA
ATOM     23  C   UNL d   1      48.321  35.380  52.409  0.00  0.00     0.313 A 
ATOM     24  S   UNL d   1      48.997  34.904  52.439  0.00  0.00    -0.021 SA
ATOM     25  O   UNL d   1      47.729  35.351  51.827  0.00  0.00    -0.258 OA
ENDBRANCH  18  19
ENDBRANCH   1  18
TORSDOF 6
ENDMDL
MODEL 6
REMARK VINA RESULT:      -5.7      4.198      6.681
REMARK  6 active torsions:
REMARK  status: ('A' for Active; 'I' for Inactive)
REMARK    1  A    between atoms: C_6  and  C_2 
REMARK    2  A    between atoms: C_7  and  C_6 
REMARK    3  A    between atoms: C_8  and  C_15 
REMARK       I    between atoms: N_9  and  C_8 
REMARK    4  A    between atoms: C_16  and  N_9 
REMARK    5  A    between atoms: O_13  and  C_12 
REMARK    6  A    between atoms: C_15  and  O_13 
ROOT
ATOM      1  C   UNL d   1      49.857  34.558  52.444  0.00  0.00     0.023 A 
ATOM      2  C   UNL d   1      49.137  34.960  52.449  0.00  0.00     0.100 A 
ATOM      3  C   UNL d   1      50.122  34.187  51.762  0.00  0.00     0.002 A 
ATOM      4  C   UNL d   1      48.677  34.991  51.765  0.00  0.00     0.025 A 
ATOM      5  C   UNL d   1      49.666  34.214  51.071  0.00  0.00     0.000 A 
ATOM      6  C   UNL d   1      48.942  34.619  51.078  0.00  0.00     0.002 A 
ENDROOT
BRANCH   2   7
ATOM      7  O   UNL d   1      48.872  35.333  53.138  0.00  0.00    -0.300 OA
BRANCH   7   8
ATOM      8  C   UNL d   1      48.178  35.790  53.111  0.00  0.00     0.185 C 
BRANCH   8   9
ATOM      9  C   UNL d   1      48.069  36.406  53.660  0.00  0.00     0.304 C 
ATOM     10  N   UNL d   1      47.309  36.709  53.787  0.00  0.00    -0.206 NA
ATOM     11  O   UNL d   1      48.715  36.709  54.074  0.00  0.00    -0.263 OA
BRANCH  10  12
ATOM     12  C   UNL d   1      46.664  36.405  53.373  0.00  0.00     0.085 A 
ATOM     13  C   UNL d   1      46.219  35.785  53.704  0.00  0.00     0.019 A 
ATOM     14  C   UNL d   1      45.572  35.477  53.294  0.00  0.00     0.002 A 
ATOM     15  C   UNL d   1      45.367  35.786  52.551  0.00  0.00     0.000 A 
ATOM     16  C   UNL d   1      45.815  36.404  52.228  0.00  0.00     0.002 A 
ATOM     17  C   UNL d   1      46.461  36.709  52.641  0.00  0.00     0.019 A 
ENDBRANCH  10  12
ENDBRANCH   8   9
ENDBRANCH   7   8
ENDBRANCH   2   7
BRANCH   1  18
ATOM     18  C   UNL d   1      50.321  34.525  53.130  0.00  0.00     0.013 C 
BRANCH  18  19
ATOM     19  C   UNL d   1      51.020  34.090  53.142  0.00  0.00     0.092 A 
ATOM     20  C   UNL d   1      51.775  34.385  53.264  0.00  0.00     0.288 A 
ATOM     21  N   UNL d   1      52.306  33.759  53.232  0.00  0.00    -0.163 NA
ATOM     22  O   UNL d   1      51.970  35.176  53.397  0.00  0.00    -0.265 OA
ATOM     23  C   UNL d   1      51.875  33.066  53.088  0.00  0.00     0.313 A 
ATOM     24  S   UNL d   1      51.076  33.272  53.033  0.00  0.00    -0.021 SA
ATOM     25  O   UNL d   1      52.188  32.300  53.013  0.00  0.00    -0.258 OA
ENDBRANCH  18  19
ENDBRANCH   1  18
TORSDOF 6
ENDMDL
