MODEL 1
REMARK VINA RESULT:      50.4      0.000      0.000
REMARK  7 active torsions:
REMARK  status: ('A' for Active; 'I' for Inactive)
REMARK    1  A    between atoms: C_2  and  S_1 
REMARK    2  A    between atoms: N_3  and  S_1 
REMARK    3  A    between atoms: C_18  and  N_3 
REMARK    4  A    between atoms: C_6  and  C_21 
REMARK       I    between atoms: N_7  and  C_6 
REMARK    5  A    between atoms: C_12  and  N_7 
REMARK    6  A    between atoms: C_22  and  C_18 
REMARK    7  A    between atoms: C_21  and  C_22 
ROOT
ATOM      1  N   UNL d   1      60.951  48.483  50.748  0.00  0.00    -0.228 N 
ATOM      2  C   UNL d   1      60.893  48.600  51.551  0.00  0.00     0.111 C 
ENDROOT
BRANCH   1   3
ATOM      3  S   UNL d   1      61.202  47.758  50.450  0.00  0.00     0.271 S 
ATOM      4  O   UNL d   1      61.453  48.137  49.786  0.00  0.00    -0.200 OA
ATOM      5  O   UNL d   1      60.943  47.366  51.136  0.00  0.00    -0.200 OA
BRANCH   3   6
ATOM      6  C   UNL d   1      61.453  47.044  50.148  0.00  0.00     0.104 A 
ATOM      7  C   UNL d   1      62.078  47.017  49.619  0.00  0.00     0.013 A 
ATOM      8  C   UNL d   1      62.341  46.293  49.306  0.00  0.00     0.001 A 
ATOM      9  C   UNL d   1      61.968  45.596  49.531  0.00  0.00     0.000 A 
ATOM     10  C   UNL d   1      61.341  45.612  50.061  0.00  0.00     0.001 A 
ATOM     11  C   UNL d   1      62.222  44.882  49.227  0.00  0.00     0.000 C 
ATOM     12  C   UNL d   1      61.079  46.334  50.373  0.00  0.00     0.013 A 
ENDBRANCH   3   6
ENDBRANCH   1   3
BRANCH   1  13
ATOM     13  C   UNL d   1      60.757  49.093  50.224  0.00  0.00     0.092 C 
BRANCH  13  14
ATOM     14  C   UNL d   1      60.257  49.702  50.473  0.00  0.00     0.025 C 
BRANCH  14  15
ATOM     15  C   UNL d   1      59.707  49.561  51.071  0.00  0.00     0.064 C 
BRANCH  15  16
ATOM     16  C   UNL d   1      58.899  49.607  50.908  0.00  0.00     0.279 C 
ATOM     17  N   UNL d   1      58.629  49.570  50.126  0.00  0.00    -0.208 NA
ATOM     18  O   UNL d   1      58.358  49.688  51.526  0.00  0.00    -0.265 OA
BRANCH  17  19
ATOM     19  C   UNL d   1      57.822  49.616  49.964  0.00  0.00     0.088 A 
ATOM     20  C   UNL d   1      57.279  49.617  50.581  0.00  0.00     0.040 A 
ATOM     21  C   UNL d   1      56.471  49.662  50.424  0.00  0.00     0.101 A 
ATOM     22  N   UNL d   1      56.206  49.708  49.641  0.00  0.00    -0.242 NA
ATOM     23  C   UNL d   1      56.752  49.707  49.021  0.00  0.00     0.101 A 
ATOM     24  C   UNL d   1      57.559  49.661  49.183  0.00  0.00     0.040 A 
ENDBRANCH  17  19
ENDBRANCH  15  16
ENDBRANCH  14  15
ENDBRANCH  13  14
ENDBRANCH   1  13
TORSDOF 7
ENDMDL
