MODEL 1
REMARK VINA RESULT:      54.1      0.000      0.000
REMARK  6 active torsions:
REMARK  status: ('A' for Active; 'I' for Inactive)
REMARK    1  A    between atoms: N_9  and  C_1 
REMARK    2  A    between atoms: C_15  and  N_4 
REMARK    3  A    between atoms: C_7  and  N_9 
REMARK    4  A    between atoms: C_12  and  C_11 
REMARK    5  A    between atoms: C_13  and  C_12 
REMARK       I    between atoms: N_16  and  C_13 
REMARK    6  A    between atoms: C_20  and  N_16 
ROOT
ATOM      1  N   UNL d   1      45.333 -18.000  40.466  0.00  0.00    -0.182 NA
ATOM      2  C   UNL d   1      46.028 -18.294  40.126  0.00  0.00     0.197 A 
ATOM      3  C   UNL d   1      44.868 -17.681  39.866  0.00  0.00     0.287 A 
ATOM      4  S   UNL d   1      45.989 -18.155  39.310  0.00  0.00    -0.043 SA
ATOM      5  C   UNL d   1      45.275 -17.779  39.156  0.00  0.00     0.095 A 
ATOM      6  O   UNL d   1      44.126 -17.327  39.962  0.00  0.00    -0.265 OA
ENDROOT
BRANCH   2   7
ATOM      7  N   UNL d   1      46.647 -18.660  40.531  0.00  0.00    -0.215 NA
BRANCH   7   8
ATOM      8  C   UNL d   1      46.551 -18.878  41.312  0.00  0.00     0.159 A 
ATOM      9  C   UNL d   1      46.528 -18.357  41.957  0.00  0.00     0.298 A 
ATOM     10  N   UNL d   1      46.423 -18.812  42.643  0.00  0.00    -0.209 N 
ATOM     11  O   UNL d   1      46.597 -17.541  41.923  0.00  0.00    -0.263 OA
ATOM     12  N   UNL d   1      46.382 -19.604  42.420  0.00  0.00    -0.238 N 
ATOM     13  C   UNL d   1      46.461 -19.645  41.596  0.00  0.00     0.104 A 
ATOM     14  C   UNL d   1      46.280 -20.244  42.923  0.00  0.00     0.120 C 
ATOM     15  C   UNL d   1      46.452 -20.325  41.140  0.00  0.00     0.022 C 
BRANCH  10  16
ATOM     16  C   UNL d   1      46.370 -18.525  43.404  0.00  0.00     0.085 A 
ATOM     17  C   UNL d   1      46.643 -18.982  44.038  0.00  0.00     0.019 A 
ATOM     18  C   UNL d   1      46.590 -18.693  44.800  0.00  0.00     0.002 A 
ATOM     19  C   UNL d   1      46.263 -17.943  44.948  0.00  0.00     0.000 A 
ATOM     20  C   UNL d   1      45.992 -17.490  44.315  0.00  0.00     0.002 A 
ATOM     21  C   UNL d   1      46.045 -17.780  43.545  0.00  0.00     0.019 A 
ENDBRANCH  10  16
ENDBRANCH   7   8
ENDBRANCH   2   7
BRANCH   5  22
ATOM     22  C   UNL d   1      45.006 -17.537  38.415  0.00  0.00     0.074 C 
BRANCH  22  23
ATOM     23  C   UNL d   1      45.242 -16.812  38.109  0.00  0.00     0.280 C 
ATOM     24  N   UNL d   1      44.785 -16.426  37.550  0.00  0.00    -0.208 NA
ATOM     25  O   UNL d   1      45.949 -16.465  38.365  0.00  0.00    -0.265 OA
BRANCH  24  26
ATOM     26  C   UNL d   1      45.024 -15.702  37.246  0.00  0.00     0.085 A 
ATOM     27  C   UNL d   1      44.508 -15.059  37.268  0.00  0.00     0.020 A 
ATOM     28  C   UNL d   1      44.746 -14.329  36.964  0.00  0.00     0.013 A 
ATOM     29  C   UNL d   1      45.507 -14.250  36.637  0.00  0.00     0.058 A 
ATOM     30  C   UNL d   1      46.015 -14.891  36.619  0.00  0.00     0.013 A 
ATOM     31 CL   UNL d   1      45.745 -13.520  36.333  0.00  0.00    -0.082 Cl
ATOM     32  C   UNL d   1      45.777 -15.621  36.923  0.00  0.00     0.020 A 
ENDBRANCH  24  26
ENDBRANCH  22  23
ENDBRANCH   5  22
TORSDOF 6
ENDMDL
