MODEL 1
REMARK VINA RESULT:      25.0      0.000      0.000
REMARK  1 active torsions:
REMARK  status: ('A' for Active; 'I' for Inactive)
REMARK    1  A    between atoms: C_2  and  C_1 
REMARK       I    between atoms: N_3  and  C_2 
ROOT
ATOM      1  C   UNL d   1     -51.519  25.809  33.396  0.00  0.00     0.248 C 
ATOM      2  N   UNL d   1     -50.741  25.520  33.388  0.00  0.00    -0.278 N 
ATOM      3  C   UNL d   1     -50.189  26.019  33.408  0.00  0.00     0.067 A 
ATOM      4  C   UNL d   1     -50.649  24.815  33.364  0.00  0.00     0.067 A 
ATOM      5  C   UNL d   1     -49.873  24.564  33.358  0.00  0.00     0.018 A 
ATOM      6  C   UNL d   1     -49.481  25.791  33.402  0.00  0.00     0.019 A 
ATOM      7  O   UNL d   1     -51.504  26.644  33.425  0.00  0.00    -0.271 OA
ATOM      8  C   UNL d   1     -50.355  26.745  33.433  0.00  0.00     0.019 C 
ATOM      9  C   UNL d   1     -51.263  24.265  33.343  0.00  0.00     0.018 A 
ATOM     10  C   UNL d   1     -49.697  23.764  33.330  0.00  0.00     0.002 A 
ATOM     11  C   UNL d   1     -51.090  23.458  33.315  0.00  0.00     0.002 A 
ATOM     12  C   UNL d   1     -50.305  23.210  33.309  0.00  0.00     0.000 A 
ENDROOT
BRANCH   1  13
ATOM     13  C   UNL d   1     -52.026  25.181  33.372  0.00  0.00     0.112 A 
ATOM     14  C   UNL d   1     -52.551  23.860  33.320  0.00  0.00     0.025 A 
ATOM     15  C   UNL d   1     -52.753  24.673  33.354  0.00  0.00     0.074 A 
ATOM     16  C   UNL d   1     -51.750  23.620  33.308  0.00  0.00     0.002 C 
ATOM     17  C   UNL d   1     -53.282  23.465  33.307  0.00  0.00     0.002 C 
ATOM     18  C   UNL d   1     -53.486  24.271  33.340  0.00  0.00     0.012 C 
ATOM     19  C   UNL d   1     -51.940  24.867  33.359  0.00  0.00    -0.023 A 
ATOM     20  C   UNL d   1     -53.541  24.911  33.367  0.00  0.00     0.172 A 
ATOM     21  C   UNL d   1     -51.328  25.442  33.380  0.00  0.00    -0.018 A 
ATOM     22  C   UNL d   1     -52.930  25.486  33.388  0.00  0.00     0.024 A 
ATOM     23  O   UNL d   1     -54.356  24.713  33.361  0.00  0.00    -0.291 OA
ENDBRANCH   1  13
TORSDOF 1
ENDMDL
MODEL 2
REMARK VINA RESULT:      25.8      0.809      2.691
REMARK  1 active torsions:
REMARK  status: ('A' for Active; 'I' for Inactive)
REMARK    1  A    between atoms: C_2  and  C_1 
REMARK       I    between atoms: N_3  and  C_2 
ROOT
ATOM      1  C   UNL d   1     -52.855  25.605  33.366  0.00  0.00     0.248 C 
ATOM      2  N   UNL d   1     -52.845  24.776  33.361  0.00  0.00    -0.278 N 
ATOM      3  C   UNL d   1     -53.501  24.424  33.375  0.00  0.00     0.067 A 
ATOM      4  C   UNL d   1     -52.212  24.452  33.344  0.00  0.00     0.067 A 
ATOM      5  C   UNL d   1     -52.237  23.636  33.340  0.00  0.00     0.018 A 
ATOM      6  C   UNL d   1     -53.525  23.681  33.371  0.00  0.00     0.019 A 
ATOM      7  O   UNL d   1     -53.647  25.873  33.386  0.00  0.00    -0.271 OA
ATOM      8  C   UNL d   1     -54.129  24.825  33.392  0.00  0.00     0.019 C 
ATOM      9  C   UNL d   1     -51.487  24.845  33.329  0.00  0.00     0.018 A 
ATOM     10  C   UNL d   1     -51.543  23.201  33.321  0.00  0.00     0.002 A 
ATOM     11  C   UNL d   1     -50.786  24.410  33.310  0.00  0.00     0.002 A 
ATOM     12  C   UNL d   1     -50.817  23.587  33.306  0.00  0.00     0.000 A 
ENDROOT
BRANCH   1  13
ATOM     13  C   UNL d   1     -52.093  25.872  33.349  0.00  0.00     0.112 A 
ATOM     14  C   UNL d   1     -50.671  25.920  33.323  0.00  0.00     0.025 A 
ATOM     15  C   UNL d   1     -51.370  26.385  33.331  0.00  0.00     0.074 A 
ATOM     16  C   UNL d   1     -50.715  25.086  33.331  0.00  0.00     0.002 C 
ATOM     17  C   UNL d   1     -50.054  26.476  33.306  0.00  0.00     0.002 C 
ATOM     18  C   UNL d   1     -50.744  26.939  33.315  0.00  0.00     0.012 C 
ATOM     19  C   UNL d   1     -51.826  25.684  33.346  0.00  0.00    -0.023 A 
ATOM     20  C   UNL d   1     -51.329  27.207  33.323  0.00  0.00     0.172 A 
ATOM     21  C   UNL d   1     -52.574  25.302  33.363  0.00  0.00    -0.018 A 
ATOM     22  C   UNL d   1     -52.076  26.826  33.340  0.00  0.00     0.024 A 
ATOM     23  O   UNL d   1     -50.869  27.907  33.308  0.00  0.00    -0.291 OA
ENDBRANCH   1  13
TORSDOF 1
ENDMDL
