MODEL 1
REMARK VINA RESULT:      -5.3      0.000      0.000
REMARK  3 active torsions:
REMARK  status: ('A' for Active; 'I' for Inactive)
REMARK    1  A    between atoms: C_6  and  N_2 
REMARK    2  A    between atoms: C_7  and  C_6 
REMARK    3  A    between atoms: C_8  and  C_7 
ROOT
ATOM      1  N   UNL d   1     -41.201-123.674 -54.496  0.00  0.00    -0.224 NA
ATOM      2  N   UNL d   1     -41.452-123.023 -53.370  0.00  0.00    -0.287 N 
ATOM      3  C   UNL d   1     -41.123-123.667 -53.704  0.00  0.00     0.183 A 
ATOM      4  C   UNL d   1     -41.776-122.569 -53.999  0.00  0.00     0.083 A 
ATOM      5  C   UNL d   1     -41.625-122.960 -54.675  0.00  0.00     0.099 A 
ATOM      6  C   UNL d   1     -42.182-121.860 -54.040  0.00  0.00     0.019 A 
ATOM      7  C   UNL d   1     -41.867-122.677 -55.452  0.00  0.00     0.021 A 
ATOM      8  C   UNL d   1     -42.439-121.537 -54.744  0.00  0.00     0.002 A 
ATOM      9  C   UNL d   1     -42.289-121.927 -55.420  0.00  0.00     0.002 A 
ENDROOT
BRANCH   2  10
ATOM     10  C   UNL d   1     -41.491-122.806 -52.560  0.00  0.00     0.082 C 
BRANCH  10  11
ATOM     11  C   UNL d   1     -41.125-123.264 -52.012  0.00  0.00     0.019 C 
BRANCH  11  12
ATOM     12  C   UNL d   1     -41.376-123.221 -51.215  0.00  0.00     0.002 A 
ATOM     13  C   UNL d   1     -41.135-122.564 -50.750  0.00  0.00     0.000 A 
ATOM     14  C   UNL d   1     -41.387-122.519 -49.950  0.00  0.00     0.000 A 
ATOM     15  C   UNL d   1     -41.859-123.117 -49.647  0.00  0.00     0.000 A 
ATOM     16  C   UNL d   1     -42.098-123.773 -50.115  0.00  0.00     0.000 A 
ATOM     17  C   UNL d   1     -41.851-123.811 -50.889  0.00  0.00     0.000 A 
ENDBRANCH  11  12
ENDBRANCH  10  11
ENDBRANCH   2  10
TORSDOF 3
ENDMDL
MODEL 2
REMARK VINA RESULT:      -5.2      1.202      1.968
REMARK  3 active torsions:
REMARK  status: ('A' for Active; 'I' for Inactive)
REMARK    1  A    between atoms: C_6  and  N_2 
REMARK    2  A    between atoms: C_7  and  C_6 
REMARK    3  A    between atoms: C_8  and  C_7 
ROOT
ATOM      1  N   UNL d   1     -41.221-121.506 -52.706  0.00  0.00    -0.224 NA
ATOM      2  N   UNL d   1     -41.372-122.490 -51.831  0.00  0.00    -0.287 N 
ATOM      3  C   UNL d   1     -41.300-121.703 -51.939  0.00  0.00     0.183 A 
ATOM      4  C   UNL d   1     -41.337-122.837 -52.596  0.00  0.00     0.083 A 
ATOM      5  C   UNL d   1     -41.246-122.247 -53.121  0.00  0.00     0.099 A 
ATOM      6  C   UNL d   1     -41.377-123.606 -52.874  0.00  0.00     0.019 A 
ATOM      7  C   UNL d   1     -41.186-122.373 -53.972  0.00  0.00     0.021 A 
ATOM      8  C   UNL d   1     -41.326-123.793 -53.667  0.00  0.00     0.002 A 
ATOM      9  C   UNL d   1     -41.235-123.203 -54.192  0.00  0.00     0.002 A 
ENDROOT
BRANCH   2  10
ATOM     10  C   UNL d   1     -41.466-122.921 -51.118  0.00  0.00     0.082 C 
BRANCH  10  11
ATOM     11  C   UNL d   1     -41.530-122.524 -50.423  0.00  0.00     0.019 C 
BRANCH  11  12
ATOM     12  C   UNL d   1     -41.713-122.952 -49.727  0.00  0.00     0.002 A 
ATOM     13  C   UNL d   1     -42.507-122.951 -49.451  0.00  0.00     0.000 A 
ATOM     14  C   UNL d   1     -42.693-123.380 -48.753  0.00  0.00     0.000 A 
ATOM     15  C   UNL d   1     -42.096-123.785 -48.363  0.00  0.00     0.000 A 
ATOM     16  C   UNL d   1     -41.303-123.783 -48.643  0.00  0.00     0.000 A 
ATOM     17  C   UNL d   1     -41.129-123.366 -49.319  0.00  0.00     0.000 A 
ENDBRANCH  11  12
ENDBRANCH  10  11
ENDBRANCH   2  10
TORSDOF 3
ENDMDL
MODEL 3
REMARK VINA RESULT:      -4.5      1.031      4.015
REMARK  3 active torsions:
REMARK  status: ('A' for Active; 'I' for Inactive)
REMARK    1  A    between atoms: C_6  and  N_2 
REMARK    2  A    between atoms: C_7  and  C_6 
REMARK    3  A    between atoms: C_8  and  C_7 
ROOT
ATOM      1  N   UNL d   1     -41.123-123.817 -50.733  0.00  0.00    -0.224 NA
ATOM      2  N   UNL d   1     -41.673-123.034 -51.650  0.00  0.00    -0.287 N 
ATOM      3  C   UNL d   1     -41.123-123.589 -51.496  0.00  0.00     0.183 A 
ATOM      4  C   UNL d   1     -42.069-122.886 -50.924  0.00  0.00     0.083 A 
ATOM      5  C   UNL d   1     -41.739-123.355 -50.374  0.00  0.00     0.099 A 
ATOM      6  C   UNL d   1     -42.679-122.389 -50.699  0.00  0.00     0.019 A 
ATOM      7  C   UNL d   1     -41.990-123.370 -49.549  0.00  0.00     0.021 A 
ATOM      8  C   UNL d   1     -42.964-122.355 -49.935  0.00  0.00     0.002 A 
ATOM      9  C   UNL d   1     -42.634-122.824 -49.384  0.00  0.00     0.002 A 
ENDROOT
BRANCH   2  10
ATOM     10  C   UNL d   1     -41.852-122.652 -52.375  0.00  0.00     0.082 C 
BRANCH  10  11
ATOM     11  C   UNL d   1     -41.314-122.662 -52.970  0.00  0.00     0.019 C 
BRANCH  11  12
ATOM     12  C   UNL d   1     -41.564-122.481 -53.747  0.00  0.00     0.002 A 
ATOM     13  C   UNL d   1     -41.964-121.755 -53.884  0.00  0.00     0.000 A 
ATOM     14  C   UNL d   1     -42.217-121.571 -54.663  0.00  0.00     0.000 A 
ATOM     15  C   UNL d   1     -42.066-122.105 -55.267  0.00  0.00     0.000 A 
ATOM     16  C   UNL d   1     -41.665-122.831 -55.127  0.00  0.00     0.000 A 
ATOM     17  C   UNL d   1     -41.423-123.003 -54.370  0.00  0.00     0.000 A 
ENDBRANCH  11  12
ENDBRANCH  10  11
ENDBRANCH   2  10
TORSDOF 3
ENDMDL
MODEL 4
REMARK VINA RESULT:      -3.5      1.710      4.660
REMARK  3 active torsions:
REMARK  status: ('A' for Active; 'I' for Inactive)
REMARK    1  A    between atoms: C_6  and  N_2 
REMARK    2  A    between atoms: C_7  and  C_6 
REMARK    3  A    between atoms: C_8  and  C_7 
ROOT
ATOM      1  N   UNL d   1     -43.094-122.675 -49.316  0.00  0.00    -0.224 NA
ATOM      2  N   UNL d   1     -42.078-122.931 -50.128  0.00  0.00    -0.287 N 
ATOM      3  C   UNL d   1     -42.810-122.625 -50.058  0.00  0.00     0.183 A 
ATOM      4  C   UNL d   1     -41.864-123.205 -49.363  0.00  0.00     0.083 A 
ATOM      5  C   UNL d   1     -42.473-123.052 -48.876  0.00  0.00     0.099 A 
ATOM      6  C   UNL d   1     -41.199-123.570 -49.054  0.00  0.00     0.019 A 
ATOM      7  C   UNL d   1     -42.474-123.250 -48.037  0.00  0.00     0.021 A 
ATOM      8  C   UNL d   1     -41.136-123.784 -48.269  0.00  0.00     0.002 A 
ATOM      9  C   UNL d   1     -41.745-123.631 -47.782  0.00  0.00     0.002 A 
ENDROOT
BRANCH   2  10
ATOM     10  C   UNL d   1     -41.587-122.986 -50.806  0.00  0.00     0.082 C 
BRANCH  10  11
ATOM     11  C   UNL d   1     -41.670-122.449 -51.397  0.00  0.00     0.019 C 
BRANCH  11  12
ATOM     12  C   UNL d   1     -41.495-122.680 -52.182  0.00  0.00     0.002 A 
ATOM     13  C   UNL d   1     -41.299-123.483 -52.332  0.00  0.00     0.000 A 
ATOM     14  C   UNL d   1     -41.123-123.716 -53.120  0.00  0.00     0.000 A 
ATOM     15  C   UNL d   1     -41.146-123.154 -53.717  0.00  0.00     0.000 A 
ATOM     16  C   UNL d   1     -41.342-122.352 -53.562  0.00  0.00     0.000 A 
ATOM     17  C   UNL d   1     -41.512-122.131 -52.797  0.00  0.00     0.000 A 
ENDBRANCH  11  12
ENDBRANCH  10  11
ENDBRANCH   2  10
TORSDOF 3
ENDMDL
MODEL 5
REMARK VINA RESULT:      -2.5      1.005      4.161
REMARK  3 active torsions:
REMARK  status: ('A' for Active; 'I' for Inactive)
REMARK    1  A    between atoms: C_6  and  N_2 
REMARK    2  A    between atoms: C_7  and  C_6 
REMARK    3  A    between atoms: C_8  and  C_7 
ROOT
ATOM      1  N   UNL d   1     -41.122-121.404 -50.919  0.00  0.00    -0.224 NA
ATOM      2  N   UNL d   1     -41.406-122.154 -51.973  0.00  0.00    -0.287 N 
ATOM      3  C   UNL d   1     -41.241-121.422 -51.706  0.00  0.00     0.183 A 
ATOM      4  C   UNL d   1     -41.394-122.659 -51.302  0.00  0.00     0.083 A 
ATOM      5  C   UNL d   1     -41.224-122.209 -50.669  0.00  0.00     0.099 A 
ATOM      6  C   UNL d   1     -41.516-123.461 -51.190  0.00  0.00     0.019 A 
ATOM      7  C   UNL d   1     -41.161-122.519 -49.867  0.00  0.00     0.021 A 
ATOM      8  C   UNL d   1     -41.470-123.817 -50.456  0.00  0.00     0.002 A 
ATOM      9  C   UNL d   1     -41.300-123.367 -49.824  0.00  0.00     0.002 A 
ENDROOT
BRANCH   2  10
ATOM     10  C   UNL d   1     -41.564-122.410 -52.756  0.00  0.00     0.082 C 
BRANCH  10  11
ATOM     11  C   UNL d   1     -41.415-121.916 -53.371  0.00  0.00     0.019 C 
BRANCH  11  12
ATOM     12  C   UNL d   1     -41.682-122.126 -54.135  0.00  0.00     0.002 A 
ATOM     13  C   UNL d   1     -42.336-121.711 -54.461  0.00  0.00     0.000 A 
ATOM     14  C   UNL d   1     -42.607-121.920 -55.229  0.00  0.00     0.000 A 
ATOM     15  C   UNL d   1     -42.225-122.522 -55.635  0.00  0.00     0.000 A 
ATOM     16  C   UNL d   1     -41.571-122.934 -55.305  0.00  0.00     0.000 A 
ATOM     17  C   UNL d   1     -41.314-122.727 -54.562  0.00  0.00     0.000 A 
ENDBRANCH  11  12
ENDBRANCH  10  11
ENDBRANCH   2  10
TORSDOF 3
ENDMDL
