MODEL 1
REMARK VINA RESULT:      86.6      0.000      0.000
REMARK  6 active torsions:
REMARK  status: ('A' for Active; 'I' for Inactive)
REMARK    1  A    between atoms: C_3  and  N_1 
REMARK       I    between atoms: C_4  and  N_1 
REMARK    2  A    between atoms: C_6  and  N_1 
REMARK    3  A    between atoms: N_2  and  C_3 
REMARK    4  A    between atoms: C_7  and  C_4 
REMARK    5  A    between atoms: O_14  and  C_16 
REMARK    6  A    between atoms: C_24  and  O_14 
ROOT
ATOM      1  N   UNL d   1     -57.623 -99.312 -45.453  0.00  0.00    -0.258 N 
ATOM      2  C   UNL d   1     -57.069 -99.919 -45.565  0.00  0.00     0.266 C 
ATOM      3  O   UNL d   1     -57.077-100.369 -46.195  0.00  0.00    -0.267 OA
ENDROOT
BRANCH   1   4
ATOM      4  C   UNL d   1     -57.600 -98.841 -44.774  0.00  0.00     0.171 C 
BRANCH   4   5
ATOM      5  N   UNL d   1     -58.112 -98.809 -44.127  0.00  0.00    -0.257 N 
ATOM      6  C   UNL d   1     -57.906 -98.791 -43.330  0.00  0.00     0.266 A 
ATOM      7  O   UNL d   1     -57.132 -98.802 -43.027  0.00  0.00    -0.267 OA
ATOM      8  C   UNL d   1     -58.605 -98.760 -42.876  0.00  0.00     0.063 A 
ATOM      9  C   UNL d   1     -59.246 -98.759 -43.398  0.00  0.00     0.024 A 
ATOM     10  C   UNL d   1     -58.953 -98.789 -44.170  0.00  0.00     0.085 A 
ENDBRANCH   4   5
ENDBRANCH   1   4
BRANCH   1  11
ATOM     11  C   UNL d   1     -58.207 -99.175 -46.026  0.00  0.00     0.068 A 
ATOM     12  C   UNL d   1     -58.029 -99.265 -46.832  0.00  0.00     0.018 A 
ATOM     13  C   UNL d   1     -58.617 -99.125 -47.385  0.00  0.00     0.002 A 
ATOM     14  C   UNL d   1     -59.366 -98.901 -47.157  0.00  0.00     0.000 A 
ATOM     15  C   UNL d   1     -59.542 -98.812 -46.362  0.00  0.00     0.002 A 
ATOM     16  C   UNL d   1     -59.952 -98.763 -47.721  0.00  0.00     0.000 C 
ATOM     17  C   UNL d   1     -58.970 -98.947 -45.793  0.00  0.00     0.018 A 
ENDBRANCH   1  11
BRANCH   2  18
ATOM     18  C   UNL d   1     -56.495-100.045 -44.990  0.00  0.00     0.057 A 
ATOM     19  C   UNL d   1     -55.913 -99.478 -44.854  0.00  0.00     0.007 A 
ATOM     20  C   UNL d   1     -55.340 -99.597 -44.283  0.00  0.00     0.025 A 
ATOM     21  C   UNL d   1     -55.340-100.292 -43.836  0.00  0.00     0.100 A 
ATOM     22  C   UNL d   1     -55.933-100.870 -43.975  0.00  0.00     0.025 A 
ATOM     23  C   UNL d   1     -56.500-100.741 -44.546  0.00  0.00     0.007 A 
BRANCH  21  24
ATOM     24  O   UNL d   1     -54.776-100.411 -43.274  0.00  0.00    -0.307 OA
BRANCH  24  25
ATOM     25  C   UNL d   1     -54.751-101.117 -42.845  0.00  0.00     0.100 C 
ATOM     26  C   UNL d   1     -54.723-101.835 -43.247  0.00  0.00     0.027 C 
ATOM     27  C   UNL d   1     -54.754-101.106 -42.020  0.00  0.00     0.027 C 
ENDBRANCH  24  25
ENDBRANCH  21  24
ENDBRANCH   2  18
TORSDOF 6
ENDMDL
