MODEL 1
REMARK VINA RESULT:      -2.5      0.000      0.000
REMARK  9 active torsions:
REMARK  status: ('A' for Active; 'I' for Inactive)
REMARK    1  A    between atoms: C_14  and  N_1 
REMARK    2  A    between atoms: S_6  and  C_2 
REMARK    3  A    between atoms: C_8  and  C_3 
REMARK    4  A    between atoms: C_16  and  S_6 
REMARK    5  A    between atoms: O_11  and  C_8 
REMARK    6  A    between atoms: C_9  and  C_16 
REMARK    7  A    between atoms: O_19  and  C_9 
REMARK    8  A    between atoms: C_12  and  O_11 
REMARK    9  A    between atoms: C_15  and  C_14 
ROOT
ATOM      1  N   UNL d   1      33.119  21.970 -21.457  0.00  0.00    -0.266 N 
ATOM      2  C   UNL d   1      33.093  22.009 -20.638  0.00  0.00     0.202 A 
ATOM      3  C   UNL d   1      33.194  21.174 -21.670  0.00  0.00     0.196 A 
ATOM      4  N   UNL d   1      33.151  21.242 -20.341  0.00  0.00    -0.121 NA
ATOM      5  N   UNL d   1      33.213  20.723 -20.984  0.00  0.00    -0.126 NA
ENDROOT
BRANCH   3   6
ATOM      6  C   UNL d   1      33.241  20.881 -22.440  0.00  0.00     0.162 C 
BRANCH   6   7
ATOM      7  O   UNL d   1      33.071  20.086 -22.590  0.00  0.00    -0.300 OA
BRANCH   7   8
ATOM      8  C   UNL d   1      33.046  19.805 -23.366  0.00  0.00     0.118 A 
ATOM      9  C   UNL d   1      32.831  19.028 -23.509  0.00  0.00     0.104 A 
ATOM     10  N   UNL d   1      32.640  18.528 -22.879  0.00  0.00    -0.242 NA
ATOM     11  C   UNL d   1      32.804  18.740 -24.281  0.00  0.00     0.020 A 
ATOM     12  C   UNL d   1      32.425  17.752 -23.021  0.00  0.00     0.099 A 
ATOM     13  C   UNL d   1      32.397  17.456 -23.797  0.00  0.00     0.021 A 
ATOM     14  C   UNL d   1      32.588  17.957 -24.424  0.00  0.00     0.003 A 
ATOM     15  C   UNL d   1      32.995  19.236 -24.914  0.00  0.00     0.002 A 
ATOM     16  C   UNL d   1      33.211  20.019 -24.764  0.00  0.00     0.002 A 
ATOM     17  C   UNL d   1      33.237  20.301 -24.000  0.00  0.00     0.026 A 
ENDBRANCH   7   8
ENDBRANCH   6   7
ENDBRANCH   3   6
BRANCH   1  18
ATOM     18  C   UNL d   1      33.080  22.603 -21.976  0.00  0.00     0.084 C 
BRANCH  18  19
ATOM     19  C   UNL d   1      32.373  22.762 -22.372  0.00  0.00     0.019 C 
ATOM     20  C   UNL d   1      32.184  23.535 -22.578  0.00  0.00     0.002 C 
ENDBRANCH  18  19
ENDBRANCH   1  18
BRANCH   2  21
ATOM     21  S   UNL d   1      33.022  22.689 -20.187  0.00  0.00    -0.042 SA
BRANCH  21  22
ATOM     22  C   UNL d   1      33.218  22.687 -19.385  0.00  0.00     0.107 C 
BRANCH  22  23
ATOM     23  C   UNL d   1      32.891  23.239 -18.874  0.00  0.00     0.303 C 
ATOM     24  O   UNL d   1      32.218  23.669 -19.101  0.00  0.00    -0.259 OA
BRANCH  23  25
ATOM     25  O   UNL d   1      33.224  23.374 -18.131  0.00  0.00    -0.295 OA
ATOM     26  C   UNL d   1      32.751  23.576 -17.490  0.00  0.00     0.185 C 
ENDBRANCH  23  25
ENDBRANCH  22  23
ENDBRANCH  21  22
ENDBRANCH   2  21
TORSDOF 9
ENDMDL
MODEL 2
REMARK VINA RESULT:      -0.6      2.234      3.483
REMARK  9 active torsions:
REMARK  status: ('A' for Active; 'I' for Inactive)
REMARK    1  A    between atoms: C_14  and  N_1 
REMARK    2  A    between atoms: S_6  and  C_2 
REMARK    3  A    between atoms: C_8  and  C_3 
REMARK    4  A    between atoms: C_16  and  S_6 
REMARK    5  A    between atoms: O_11  and  C_8 
REMARK    6  A    between atoms: C_9  and  C_16 
REMARK    7  A    between atoms: O_19  and  C_9 
REMARK    8  A    between atoms: C_12  and  O_11 
REMARK    9  A    between atoms: C_15  and  C_14 
ROOT
ATOM      1  N   UNL d   1      33.074  20.008 -22.967  0.00  0.00    -0.266 N 
ATOM      2  C   UNL d   1      33.074  20.735 -23.346  0.00  0.00     0.202 A 
ATOM      3  C   UNL d   1      32.876  19.431 -23.525  0.00  0.00     0.196 A 
ATOM      4  N   UNL d   1      32.876  20.613 -24.137  0.00  0.00    -0.121 NA
ATOM      5  N   UNL d   1      32.753  19.802 -24.248  0.00  0.00    -0.126 NA
ENDROOT
BRANCH   3   6
ATOM      6  C   UNL d   1      32.811  18.621 -23.383  0.00  0.00     0.162 C 
BRANCH   6   7
ATOM      7  O   UNL d   1      32.393  18.141 -23.910  0.00  0.00    -0.300 OA
BRANCH   7   8
ATOM      8  C   UNL d   1      32.251  17.348 -23.729  0.00  0.00     0.118 A 
ATOM      9  C   UNL d   1      31.537  17.005 -23.938  0.00  0.00     0.104 A 
ATOM     10  N   UNL d   1      30.963  17.453 -24.329  0.00  0.00    -0.242 NA
ATOM     11  C   UNL d   1      31.389  16.215 -23.761  0.00  0.00     0.020 A 
ATOM     12  C   UNL d   1      30.249  17.111 -24.539  0.00  0.00     0.099 A 
ATOM     13  C   UNL d   1      30.094  16.315 -24.362  0.00  0.00     0.021 A 
ATOM     14  C   UNL d   1      30.669  15.871 -23.972  0.00  0.00     0.003 A 
ATOM     15  C   UNL d   1      31.961  15.764 -23.370  0.00  0.00     0.002 A 
ATOM     16  C   UNL d   1      32.679  16.114 -23.161  0.00  0.00     0.002 A 
ATOM     17  C   UNL d   1      32.824  16.896 -23.338  0.00  0.00     0.026 A 
ENDBRANCH   7   8
ENDBRANCH   6   7
ENDBRANCH   3   6
BRANCH   1  18
ATOM     18  C   UNL d   1      33.241  19.872 -22.176  0.00  0.00     0.084 C 
BRANCH  18  19
ATOM     19  C   UNL d   1      32.725  20.154 -21.596  0.00  0.00     0.019 C 
ATOM     20  C   UNL d   1      32.903  20.043 -20.801  0.00  0.00     0.002 C 
ENDBRANCH  18  19
ENDBRANCH   1  18
BRANCH   2  21
ATOM     21  S   UNL d   1      33.241  21.461 -23.005  0.00  0.00    -0.042 SA
BRANCH  21  22
ATOM     22  C   UNL d   1      33.238  22.151 -23.456  0.00  0.00     0.107 C 
BRANCH  22  23
ATOM     23  C   UNL d   1      33.120  22.882 -23.102  0.00  0.00     0.303 C 
ATOM     24  O   UNL d   1      33.067  22.940 -22.276  0.00  0.00    -0.259 OA
BRANCH  23  25
ATOM     25  O   UNL d   1      33.052  23.565 -23.560  0.00  0.00    -0.295 OA
ATOM     26  C   UNL d   1      32.388  23.691 -24.029  0.00  0.00     0.185 C 
ENDBRANCH  23  25
ENDBRANCH  22  23
ENDBRANCH  21  22
ENDBRANCH   2  21
TORSDOF 9
ENDMDL
