MODEL 1
REMARK VINA RESULT:      -5.1      0.000      0.000
REMARK  6 active torsions:
REMARK  status: ('A' for Active; 'I' for Inactive)
REMARK    1  A    between atoms: S_4  and  C_1 
REMARK    2  A    between atoms: C_9  and  N_2 
REMARK    3  A    between atoms: C_11  and  S_4 
REMARK    4  A    between atoms: C_6  and  C_11 
REMARK       I    between atoms: N_8  and  C_6 
REMARK    5  A    between atoms: C_12  and  N_8 
REMARK    6  A    between atoms: O_18  and  C_13 
ROOT
ATOM      1  S   UNL d   1      58.612  -0.201  29.745  0.00  0.00    -0.044 SA
ENDROOT
BRANCH   1   2
ATOM      2  C   UNL d   1      59.283  -0.123  29.266  0.00  0.00     0.180 A 
ATOM      3  N   UNL d   1      59.663  -0.731  28.872  0.00  0.00    -0.284 N 
ATOM      4  C   UNL d   1      60.301  -0.401  28.465  0.00  0.00     0.103 A 
ATOM      5  C   UNL d   1      60.310   0.422  28.615  0.00  0.00     0.120 A 
ATOM      6  N   UNL d   1      59.682   0.578  29.107  0.00  0.00    -0.219 NA
BRANCH   3   7
ATOM      7  C   UNL d   1      59.475  -1.534  28.856  0.00  0.00     0.066 A 
ATOM      8  C   UNL d   1      59.964  -2.078  29.222  0.00  0.00     0.018 A 
ATOM      9  C   UNL d   1      59.777  -2.881  29.207  0.00  0.00     0.002 A 
ATOM     10  C   UNL d   1      59.101  -3.141  28.826  0.00  0.00     0.000 A 
ATOM     11  C   UNL d   1      58.606  -2.594  28.455  0.00  0.00     0.002 A 
ATOM     12  C   UNL d   1      58.793  -1.791  28.470  0.00  0.00     0.018 A 
ENDBRANCH   3   7
ENDBRANCH   1   2
BRANCH   1  13
ATOM     13  C   UNL d   1      58.349   0.435  30.201  0.00  0.00     0.101 C 
BRANCH  13  14
ATOM     14  C   UNL d   1      57.703   0.357  30.686  0.00  0.00     0.286 C 
ATOM     15  N   UNL d   1      57.785   0.007  31.420  0.00  0.00    -0.208 NA
ATOM     16  O   UNL d   1      56.969   0.631  30.432  0.00  0.00    -0.265 OA
BRANCH  15  17
ATOM     17  C   UNL d   1      57.136  -0.074  31.913  0.00  0.00     0.085 A 
ATOM     18  C   UNL d   1      56.763  -0.808  31.989  0.00  0.00     0.021 A 
ATOM     19  C   UNL d   1      56.108  -0.897  32.486  0.00  0.00     0.026 A 
ATOM     20  C   UNL d   1      55.828  -0.248  32.906  0.00  0.00     0.094 A 
ATOM     21  C   UNL d   1      56.211   0.485  32.822  0.00  0.00     0.026 A 
ATOM     22  C   UNL d   1      56.853   0.567  32.334  0.00  0.00     0.021 A 
BRANCH  20  23
ATOM     23  O   UNL d   1      55.169  -0.341  33.405  0.00  0.00    -0.328 OA
ATOM     24  C   UNL d   1      54.795   0.332  33.705  0.00  0.00     0.181 C 
ENDBRANCH  20  23
ENDBRANCH  15  17
ENDBRANCH  13  14
ENDBRANCH   1  13
TORSDOF 6
ENDMDL
