MODEL 1
REMARK VINA RESULT:      40.4      0.000      0.000
REMARK  6 active torsions:
REMARK  status: ('A' for Active; 'I' for Inactive)
REMARK    1  A    between atoms: S_6  and  C_1 
REMARK    2  A    between atoms: C_7  and  S_6 
REMARK    3  A    between atoms: C_8  and  C_7 
REMARK    4  A    between atoms: O_14  and  C_9 
REMARK    5  A    between atoms: C_17  and  O_14 
REMARK    6  A    between atoms: C_18  and  C_17 
ROOT
ATOM      1  C   UNL d   1     -50.558  26.660  33.456  0.00  0.00     0.038 C 
ENDROOT
BRANCH   1   2
ATOM      2  S   UNL d   1     -50.416  25.860  33.306  0.00  0.00    -0.048 SA
BRANCH   2   3
ATOM      3  C   UNL d   1     -51.042  25.323  33.306  0.00  0.00     0.194 A 
ATOM      4  N   UNL d   1     -50.987  24.502  33.306  0.00  0.00    -0.220 NA
ATOM      5  C   UNL d   1     -51.772  24.194  33.306  0.00  0.00     0.101 A 
ATOM      6  C   UNL d   1     -52.045  23.416  33.306  0.00  0.00     0.021 A 
ATOM      7  C   UNL d   1     -52.307  24.817  33.306  0.00  0.00     0.101 A 
ATOM      8  C   UNL d   1     -52.835  23.281  33.306  0.00  0.00     0.002 A 
ATOM      9  C   UNL d   1     -53.370  23.904  33.306  0.00  0.00     0.002 A 
ATOM     10  C   UNL d   1     -53.117  24.664  33.306  0.00  0.00     0.021 A 
ATOM     11  N   UNL d   1     -51.862  25.521  33.306  0.00  0.00    -0.220 NA
ENDBRANCH   2   3
ENDBRANCH   1   2
BRANCH   1  12
ATOM     12  C   UNL d   1     -50.013  27.069  33.921  0.00  0.00     0.007 A 
ATOM     13  C   UNL d   1     -50.287  27.706  34.368  0.00  0.00     0.003 A 
ATOM     14  C   UNL d   1     -49.764  28.133  34.842  0.00  0.00     0.025 A 
ATOM     15  C   UNL d   1     -48.966  27.922  34.870  0.00  0.00     0.100 A 
ATOM     16  C   UNL d   1     -48.715  27.302  34.431  0.00  0.00     0.025 A 
ATOM     17  C   UNL d   1     -49.238  26.875  33.957  0.00  0.00     0.003 A 
BRANCH  15  18
ATOM     18  O   UNL d   1     -48.443  28.349  35.344  0.00  0.00    -0.305 OA
BRANCH  18  19
ATOM     19  C   UNL d   1     -47.895  28.859  34.997  0.00  0.00     0.123 C 
BRANCH  19  20
ATOM     20  C   UNL d   1     -47.381  29.296  35.472  0.00  0.00     0.027 C 
ATOM     21  C   UNL d   1     -47.631  30.018  35.794  0.00  0.00     0.002 C 
ENDBRANCH  19  20
ENDBRANCH  18  19
ENDBRANCH  15  18
ENDBRANCH   1  12
TORSDOF 6
ENDMDL
