MODEL 1
REMARK VINA RESULT:      -9.0      0.000      0.000
REMARK  6 active torsions:
REMARK  status: ('A' for Active; 'I' for Inactive)
REMARK    1  A    between atoms: N_2  and  C_1 
REMARK    2  A    between atoms: N_3  and  C_1 
REMARK    3  A    between atoms: C_8  and  N_3 
REMARK    4  A    between atoms: C_5  and  O_7 
REMARK    5  A    between atoms: C_17  and  C_6 
REMARK    6  A    between atoms: O_7  and  C_9 
ROOT
ATOM      1  N   UNL d   1      53.071  32.230  53.041  0.00  0.00    -0.219 NA
ENDROOT
BRANCH   1   2
ATOM      2  C   UNL d   1      52.466  32.714  53.339  0.00  0.00     0.206 C 
ATOM      3  S   UNL d   1      51.719  32.392  53.474  0.00  0.00    -0.038 SA
BRANCH   2   4
ATOM      4  N   UNL d   1      52.617  33.516  53.499  0.00  0.00    -0.282 N 
ATOM      5  C   UNL d   1      52.266  34.097  53.040  0.00  0.00     0.066 A 
ATOM      6  C   UNL d   1      52.404  34.897  53.183  0.00  0.00     0.018 A 
ATOM      7  C   UNL d   1      52.912  35.119  53.809  0.00  0.00     0.003 A 
ATOM      8  C   UNL d   1      53.255  34.528  54.258  0.00  0.00     0.019 A 
ATOM      9  C   UNL d   1      53.111  33.731  54.107  0.00  0.00     0.082 A 
BRANCH   5  10
ATOM     10  C   UNL d   1      51.752  33.873  52.408  0.00  0.00     0.018 C 
ATOM     11  C   UNL d   1      51.373  34.445  51.980  0.00  0.00     0.002 C 
ENDBRANCH   5  10
ENDBRANCH   2   4
ENDBRANCH   1   2
BRANCH   1  12
ATOM     12  C   UNL d   1      53.104  31.430  53.232  0.00  0.00     0.084 A 
ATOM     13  C   UNL d   1      53.674  31.159  53.779  0.00  0.00     0.021 A 
ATOM     14  C   UNL d   1      53.718  30.377  53.975  0.00  0.00     0.026 A 
ATOM     15  C   UNL d   1      53.184  29.820  53.626  0.00  0.00     0.105 A 
ATOM     16  C   UNL d   1      52.614  30.091  53.078  0.00  0.00     0.026 A 
ATOM     17  C   UNL d   1      52.580  30.892  52.887  0.00  0.00     0.021 A 
BRANCH  15  18
ATOM     18  O   UNL d   1      53.221  29.019  53.820  0.00  0.00    -0.260 OA
BRANCH  18  19
ATOM     19  C   UNL d   1      53.318  28.783  54.611  0.00  0.00     0.391 C 
ATOM     20  F   UNL d   1      52.734  28.947  55.171  0.00  0.00    -0.145 F 
ATOM     21  F   UNL d   1      54.012  28.376  54.840  0.00  0.00    -0.145 F 
ENDBRANCH  18  19
ENDBRANCH  15  18
ENDBRANCH   1  12
TORSDOF 6
ENDMDL
MODEL 2
REMARK VINA RESULT:      -7.8      3.454      4.619
REMARK  6 active torsions:
REMARK  status: ('A' for Active; 'I' for Inactive)
REMARK    1  A    between atoms: N_2  and  C_1 
REMARK    2  A    between atoms: N_3  and  C_1 
REMARK    3  A    between atoms: C_8  and  N_3 
REMARK    4  A    between atoms: C_5  and  O_7 
REMARK    5  A    between atoms: C_17  and  C_6 
REMARK    6  A    between atoms: O_7  and  C_9 
ROOT
ATOM      1  N   UNL d   1      52.275  34.250  53.170  0.00  0.00    -0.219 NA
ENDROOT
BRANCH   1   2
ATOM      2  C   UNL d   1      52.561  33.589  53.583  0.00  0.00     0.206 C 
ATOM      3  S   UNL d   1      52.182  32.862  53.495  0.00  0.00    -0.038 SA
BRANCH   2   4
ATOM      4  N   UNL d   1      53.224  33.664  54.078  0.00  0.00    -0.282 N 
ATOM      5  C   UNL d   1      53.864  33.160  53.984  0.00  0.00     0.066 A 
ATOM      6  C   UNL d   1      54.530  33.219  54.466  0.00  0.00     0.018 A 
ATOM      7  C   UNL d   1      54.553  33.806  55.062  0.00  0.00     0.003 A 
ATOM      8  C   UNL d   1      53.908  34.301  55.143  0.00  0.00     0.019 A 
ATOM      9  C   UNL d   1      53.246  34.234  54.656  0.00  0.00     0.082 A 
BRANCH   5  10
ATOM     10  C   UNL d   1      53.840  32.567  53.383  0.00  0.00     0.018 C 
ATOM     11  C   UNL d   1      54.472  32.073  53.285  0.00  0.00     0.002 C 
ENDBRANCH   5  10
ENDBRANCH   2   4
ENDBRANCH   1   2
BRANCH   1  12
ATOM     12  C   UNL d   1      51.534  34.236  52.812  0.00  0.00     0.084 A 
ATOM     13  C   UNL d   1      51.478  34.176  51.980  0.00  0.00     0.021 A 
ATOM     14  C   UNL d   1      50.758  34.162  51.616  0.00  0.00     0.026 A 
ATOM     15  C   UNL d   1      50.047  34.207  52.075  0.00  0.00     0.105 A 
ATOM     16  C   UNL d   1      50.104  34.268  52.906  0.00  0.00     0.026 A 
ATOM     17  C   UNL d   1      50.845  34.281  53.265  0.00  0.00     0.021 A 
BRANCH  15  18
ATOM     18  O   UNL d   1      49.307  34.193  51.712  0.00  0.00    -0.260 OA
BRANCH  18  19
ATOM     19  C   UNL d   1      48.920  34.904  51.520  0.00  0.00     0.391 C 
ATOM     20  F   UNL d   1      48.556  35.354  52.109  0.00  0.00    -0.145 F 
ATOM     21  F   UNL d   1      48.900  35.163  50.725  0.00  0.00    -0.145 F 
ENDBRANCH  18  19
ENDBRANCH  15  18
ENDBRANCH   1  12
TORSDOF 6
ENDMDL
