MODEL 1
REMARK VINA RESULT:      -7.7      0.000      0.000
REMARK  2 active torsions:
REMARK  status: ('A' for Active; 'I' for Inactive)
REMARK    1  A    between atoms: C_2  and  C_5 
REMARK       I    between atoms: C_5  and  N_9 
REMARK    2  A    between atoms: N_9  and  C_15 
ROOT
ATOM      1  C   UNL d   1     -48.293  13.097  22.922  0.00  0.00     0.304 C 
ATOM      2  N   UNL d   1     -47.584  13.310  23.276  0.00  0.00    -0.206 NA
ATOM      3  O   UNL d   1     -48.314  12.490  22.381  0.00  0.00    -0.263 OA
ENDROOT
BRANCH   1   4
ATOM      4  C   UNL d   1     -48.987  13.490  23.108  0.00  0.00     0.182 A 
ATOM      5  O   UNL d   1     -48.982  14.307  23.139  0.00  0.00    -0.298 OA
ATOM      6  C   UNL d   1     -49.684  14.708  23.327  0.00  0.00     0.123 A 
ATOM      7  C   UNL d   1     -49.688  15.532  23.361  0.00  0.00     0.027 A 
ATOM      8  C   UNL d   1     -50.362  14.286  23.477  0.00  0.00     0.123 A 
ATOM      9  C   UNL d   1     -50.386  15.922  23.548  0.00  0.00     0.002 A 
ATOM     10  C   UNL d   1     -51.064  15.512  23.698  0.00  0.00     0.002 A 
ATOM     11  C   UNL d   1     -51.061  14.688  23.664  0.00  0.00     0.027 A 
ATOM     12  O   UNL d   1     -50.359  13.462  23.443  0.00  0.00    -0.301 OA
ATOM     13  C   UNL d   1     -49.665  13.077  23.258  0.00  0.00     0.152 A 
ENDBRANCH   1   4
BRANCH   2  14
ATOM     14  C   UNL d   1     -46.852  12.946  23.125  0.00  0.00     0.085 A 
ATOM     15  C   UNL d   1     -46.601  12.223  23.451  0.00  0.00     0.021 A 
ATOM     16  C   UNL d   1     -45.876  11.918  23.266  0.00  0.00     0.021 A 
ATOM     17  C   UNL d   1     -45.383  12.302  22.766  0.00  0.00     0.088 A 
ATOM     18  C   UNL d   1     -45.621  13.020  22.435  0.00  0.00     0.050 A 
ATOM     19  N   UNL d   1     -44.630  12.164  22.461  0.00  0.00    -0.239 NA
ATOM     20  C   UNL d   1     -46.356  13.354  22.607  0.00  0.00     0.027 A 
ATOM     21  S   UNL d   1     -45.002  13.300  21.935  0.00  0.00    -0.066 SA
ATOM     22  C   UNL d   1     -44.407  12.733  21.984  0.00  0.00     0.111 A 
ATOM     23  C   UNL d   1     -43.683  12.790  21.571  0.00  0.00     0.028 C 
ENDBRANCH   2  14
TORSDOF 2
ENDMDL
MODEL 2
REMARK VINA RESULT:      -7.5      2.037      5.223
REMARK  2 active torsions:
REMARK  status: ('A' for Active; 'I' for Inactive)
REMARK    1  A    between atoms: C_2  and  C_5 
REMARK       I    between atoms: C_5  and  N_9 
REMARK    2  A    between atoms: N_9  and  C_15 
ROOT
ATOM      1  C   UNL d   1     -46.436  12.678  23.224  0.00  0.00     0.304 C 
ATOM      2  N   UNL d   1     -47.211  12.685  22.956  0.00  0.00    -0.206 NA
ATOM      3  O   UNL d   1     -46.054  13.377  23.388  0.00  0.00    -0.263 OA
ENDROOT
BRANCH   1   4
ATOM      4  C   UNL d   1     -46.036  11.970  23.329  0.00  0.00     0.182 A 
ATOM      5  O   UNL d   1     -45.234  11.943  23.177  0.00  0.00    -0.298 OA
ATOM      6  C   UNL d   1     -44.827  11.227  23.283  0.00  0.00     0.123 A 
ATOM      7  C   UNL d   1     -44.017  11.190  23.131  0.00  0.00     0.027 A 
ATOM      8  C   UNL d   1     -45.229  10.568  23.535  0.00  0.00     0.123 A 
ATOM      9  C   UNL d   1     -43.622  10.479  23.238  0.00  0.00     0.002 A 
ATOM     10  C   UNL d   1     -44.012   9.819  23.488  0.00  0.00     0.002 A 
ATOM     11  C   UNL d   1     -44.822   9.856  23.640  0.00  0.00     0.027 A 
ATOM     12  O   UNL d   1     -46.039  10.604  23.687  0.00  0.00    -0.301 OA
ATOM     13  C   UNL d   1     -46.431  11.311  23.580  0.00  0.00     0.152 A 
ENDBRANCH   1   4
BRANCH   2  14
ATOM     14  C   UNL d   1     -47.662  13.372  22.832  0.00  0.00     0.085 A 
ATOM     15  C   UNL d   1     -47.481  13.971  22.283  0.00  0.00     0.021 A 
ATOM     16  C   UNL d   1     -47.959  14.618  22.207  0.00  0.00     0.021 A 
ATOM     17  C   UNL d   1     -48.617  14.698  22.655  0.00  0.00     0.088 A 
ATOM     18  C   UNL d   1     -48.808  14.111  23.204  0.00  0.00     0.050 A 
ATOM     19  N   UNL d   1     -49.214  15.262  22.728  0.00  0.00    -0.239 NA
ATOM     20  C   UNL d   1     -48.337  13.440  23.302  0.00  0.00     0.027 A 
ATOM     21  S   UNL d   1     -49.520  14.335  23.596  0.00  0.00    -0.066 SA
ATOM     22  C   UNL d   1     -49.734  15.058  23.265  0.00  0.00     0.111 A 
ATOM     23  C   UNL d   1     -50.415  15.485  23.495  0.00  0.00     0.028 C 
ENDBRANCH   2  14
TORSDOF 2
ENDMDL
MODEL 3
REMARK VINA RESULT:      -6.5      8.646      9.418
REMARK  2 active torsions:
REMARK  status: ('A' for Active; 'I' for Inactive)
REMARK    1  A    between atoms: C_2  and  C_5 
REMARK       I    between atoms: C_5  and  N_9 
REMARK    2  A    between atoms: N_9  and  C_15 
ROOT
ATOM      1  C   UNL d   1     -40.012  14.543  20.327  0.00  0.00     0.304 C 
ATOM      2  N   UNL d   1     -39.648  14.873  19.670  0.00  0.00    -0.206 NA
ATOM      3  O   UNL d   1     -40.702  14.122  20.244  0.00  0.00    -0.263 OA
ENDROOT
BRANCH   1   4
ATOM      4  C   UNL d   1     -39.687  14.633  21.074  0.00  0.00     0.182 A 
ATOM      5  O   UNL d   1     -39.363  13.981  21.445  0.00  0.00    -0.298 OA
ATOM      6  C   UNL d   1     -39.032  14.069  22.202  0.00  0.00     0.123 A 
ATOM      7  C   UNL d   1     -38.703  13.416  22.583  0.00  0.00     0.027 A 
ATOM      8  C   UNL d   1     -39.036  14.798  22.561  0.00  0.00     0.123 A 
ATOM      9  C   UNL d   1     -38.378  13.511  23.331  0.00  0.00     0.002 A 
ATOM     10  C   UNL d   1     -38.377  14.230  23.696  0.00  0.00     0.002 A 
ATOM     11  C   UNL d   1     -38.707  14.883  23.315  0.00  0.00     0.027 A 
ATOM     12  O   UNL d   1     -39.366  15.451  22.180  0.00  0.00    -0.301 OA
ATOM     13  C   UNL d   1     -39.687  15.355  21.437  0.00  0.00     0.152 A 
ENDBRANCH   1   4
BRANCH   2  14
ATOM     14  C   UNL d   1     -39.933  14.813  18.892  0.00  0.00     0.085 A 
ATOM     15  C   UNL d   1     -39.719  14.222  18.348  0.00  0.00     0.021 A 
ATOM     16  C   UNL d   1     -40.030  14.215  17.602  0.00  0.00     0.021 A 
ATOM     17  C   UNL d   1     -40.551  14.776  17.369  0.00  0.00     0.088 A 
ATOM     18  C   UNL d   1     -40.772  15.369  17.900  0.00  0.00     0.050 A 
ATOM     19  N   UNL d   1     -40.969  14.941  16.678  0.00  0.00    -0.239 NA
ATOM     20  C   UNL d   1     -40.469  15.399  18.668  0.00  0.00     0.027 A 
ATOM     21  S   UNL d   1     -41.321  15.880  17.514  0.00  0.00    -0.066 SA
ATOM     22  C   UNL d   1     -41.411  15.573  16.756  0.00  0.00     0.111 A 
ATOM     23  C   UNL d   1     -41.911  15.912  16.178  0.00  0.00     0.028 C 
ENDBRANCH   2  14
TORSDOF 2
ENDMDL
MODEL 4
REMARK VINA RESULT:      -6.1      8.791     10.185
REMARK  2 active torsions:
REMARK  status: ('A' for Active; 'I' for Inactive)
REMARK    1  A    between atoms: C_2  and  C_5 
REMARK       I    between atoms: C_5  and  N_9 
REMARK    2  A    between atoms: N_9  and  C_15 
ROOT
ATOM      1  C   UNL d   1     -39.171  14.557  19.600  0.00  0.00     0.304 C 
ATOM      2  N   UNL d   1     -39.322  14.009  19.008  0.00  0.00    -0.206 NA
ATOM      3  O   UNL d   1     -38.969  15.321  19.407  0.00  0.00    -0.263 OA
ENDROOT
BRANCH   1   4
ATOM      4  C   UNL d   1     -39.221  14.344  20.389  0.00  0.00     0.182 A 
ATOM      5  O   UNL d   1     -38.574  13.996  20.746  0.00  0.00    -0.298 OA
ATOM      6  C   UNL d   1     -38.622  13.779  21.547  0.00  0.00     0.123 A 
ATOM      7  C   UNL d   1     -37.973  13.426  21.915  0.00  0.00     0.027 A 
ATOM      8  C   UNL d   1     -39.307  13.915  21.961  0.00  0.00     0.123 A 
ATOM      9  C   UNL d   1     -38.029  13.215  22.706  0.00  0.00     0.002 A 
ATOM     10  C   UNL d   1     -38.704  13.346  23.126  0.00  0.00     0.002 A 
ATOM     11  C   UNL d   1     -39.353  13.699  22.758  0.00  0.00     0.027 A 
ATOM     12  O   UNL d   1     -39.956  14.268  21.593  0.00  0.00    -0.301 OA
ATOM     13  C   UNL d   1     -39.900  14.478  20.808  0.00  0.00     0.152 A 
ENDBRANCH   1   4
BRANCH   2  14
ATOM     14  C   UNL d   1     -39.286  14.170  18.194  0.00  0.00     0.085 A 
ATOM     15  C   UNL d   1     -39.774  14.710  17.791  0.00  0.00     0.021 A 
ATOM     16  C   UNL d   1     -39.692  14.825  16.995  0.00  0.00     0.021 A 
ATOM     17  C   UNL d   1     -39.141  14.424  16.576  0.00  0.00     0.088 A 
ATOM     18  C   UNL d   1     -38.650  13.885  16.965  0.00  0.00     0.050 A 
ATOM     19  N   UNL d   1     -38.905  14.398  15.787  0.00  0.00    -0.239 NA
ATOM     20  C   UNL d   1     -38.713  13.749  17.777  0.00  0.00     0.027 A 
ATOM     21  S   UNL d   1     -38.127  13.545  16.397  0.00  0.00    -0.066 SA
ATOM     22  C   UNL d   1     -38.324  13.896  15.679  0.00  0.00     0.111 A 
ATOM     23  C   UNL d   1     -37.940  13.718  14.959  0.00  0.00     0.028 C 
ENDBRANCH   2  14
TORSDOF 2
ENDMDL
MODEL 5
REMARK VINA RESULT:      -5.7      8.865     10.609
REMARK  2 active torsions:
REMARK  status: ('A' for Active; 'I' for Inactive)
REMARK    1  A    between atoms: C_2  and  C_5 
REMARK       I    between atoms: C_5  and  N_9 
REMARK    2  A    between atoms: N_9  and  C_15 
ROOT
ATOM      1  C   UNL d   1     -39.209  13.989  18.798  0.00  0.00     0.304 C 
ATOM      2  N   UNL d   1     -38.665  14.011  19.412  0.00  0.00    -0.206 NA
ATOM      3  O   UNL d   1     -40.006  14.019  18.956  0.00  0.00    -0.263 OA
ENDROOT
BRANCH   1   4
ATOM      4  C   UNL d   1     -38.958  13.939  18.019  0.00  0.00     0.182 A 
ATOM      5  O   UNL d   1     -38.722  14.620  17.635  0.00  0.00    -0.298 OA
ATOM      6  C   UNL d   1     -38.468  14.572  16.846  0.00  0.00     0.123 A 
ATOM      7  C   UNL d   1     -38.227  15.255  16.451  0.00  0.00     0.027 A 
ATOM      8  C   UNL d   1     -38.457  13.852  16.469  0.00  0.00     0.123 A 
ATOM      9  C   UNL d   1     -37.977  15.198  15.671  0.00  0.00     0.002 A 
ATOM     10  C   UNL d   1     -37.963  14.489  15.288  0.00  0.00     0.002 A 
ATOM     11  C   UNL d   1     -38.203  13.806  15.684  0.00  0.00     0.027 A 
ATOM     12  O   UNL d   1     -38.697  13.169  16.865  0.00  0.00    -0.301 OA
ATOM     13  C   UNL d   1     -38.945  13.226  17.638  0.00  0.00     0.152 A 
ENDBRANCH   1   4
BRANCH   2  14
ATOM     14  C   UNL d   1     -38.863  14.062  20.217  0.00  0.00     0.085 A 
ATOM     15  C   UNL d   1     -39.475  14.530  20.531  0.00  0.00     0.021 A 
ATOM     16  C   UNL d   1     -39.621  14.539  21.326  0.00  0.00     0.021 A 
ATOM     17  C   UNL d   1     -39.182  14.098  21.829  0.00  0.00     0.088 A 
ATOM     18  C   UNL d   1     -38.572  13.629  21.531  0.00  0.00     0.050 A 
ATOM     19  N   UNL d   1     -39.171  13.972  22.644  0.00  0.00    -0.239 NA
ATOM     20  C   UNL d   1     -38.402  13.601  20.723  0.00  0.00     0.027 A 
ATOM     21  S   UNL d   1     -38.205  13.228  22.176  0.00  0.00    -0.066 SA
ATOM     22  C   UNL d   1     -38.613  13.474  22.847  0.00  0.00     0.111 A 
ATOM     23  C   UNL d   1     -38.430  13.210  23.619  0.00  0.00     0.028 C 
ENDBRANCH   2  14
TORSDOF 2
ENDMDL
MODEL 6
REMARK VINA RESULT:      -5.1      9.092      9.867
REMARK  2 active torsions:
REMARK  status: ('A' for Active; 'I' for Inactive)
REMARK    1  A    between atoms: C_2  and  C_5 
REMARK       I    between atoms: C_5  and  N_9 
REMARK    2  A    between atoms: N_9  and  C_15 
ROOT
ATOM      1  C   UNL d   1     -38.800  15.487  19.323  0.00  0.00     0.304 C 
ATOM      2  N   UNL d   1     -39.265  15.265  19.962  0.00  0.00    -0.206 NA
ATOM      3  O   UNL d   1     -38.001  15.602  19.420  0.00  0.00    -0.263 OA
ENDROOT
BRANCH   1   4
ATOM      4  C   UNL d   1     -39.132  15.596  18.582  0.00  0.00     0.182 A 
ATOM      5  O   UNL d   1     -39.946  15.574  18.507  0.00  0.00    -0.298 OA
ATOM      6  C   UNL d   1     -40.285  15.684  17.757  0.00  0.00     0.123 A 
ATOM      7  C   UNL d   1     -41.106  15.664  17.673  0.00  0.00     0.027 A 
ATOM      8  C   UNL d   1     -39.808  15.810  17.113  0.00  0.00     0.123 A 
ATOM      9  C   UNL d   1     -41.434  15.773  16.928  0.00  0.00     0.002 A 
ATOM     10  C   UNL d   1     -40.968  15.899  16.282  0.00  0.00     0.002 A 
ATOM     11  C   UNL d   1     -40.148  15.919  16.367  0.00  0.00     0.027 A 
ATOM     12  O   UNL d   1     -38.987  15.830  17.197  0.00  0.00    -0.301 OA
ATOM     13  C   UNL d   1     -38.663  15.722  17.936  0.00  0.00     0.152 A 
ENDBRANCH   1   4
BRANCH   2  14
ATOM     14  C   UNL d   1     -38.981  15.141  20.733  0.00  0.00     0.085 A 
ATOM     15  C   UNL d   1     -38.498  15.671  21.156  0.00  0.00     0.021 A 
ATOM     16  C   UNL d   1     -38.252  15.496  21.905  0.00  0.00     0.021 A 
ATOM     17  C   UNL d   1     -38.466  14.810  22.258  0.00  0.00     0.088 A 
ATOM     18  C   UNL d   1     -38.945  14.276  21.849  0.00  0.00     0.050 A 
ATOM     19  N   UNL d   1     -38.326  14.456  22.990  0.00  0.00    -0.239 NA
ATOM     20  C   UNL d   1     -39.210  14.430  21.082  0.00  0.00     0.027 A 
ATOM     21  S   UNL d   1     -39.083  13.608  22.346  0.00  0.00    -0.066 SA
ATOM     22  C   UNL d   1     -38.678  13.768  23.044  0.00  0.00     0.111 A 
ATOM     23  C   UNL d   1     -38.665  13.246  23.698  0.00  0.00     0.028 C 
ENDBRANCH   2  14
TORSDOF 2
ENDMDL
MODEL 7
REMARK VINA RESULT:      -5.1      0.965      1.330
REMARK  2 active torsions:
REMARK  status: ('A' for Active; 'I' for Inactive)
REMARK    1  A    between atoms: C_2  and  C_5 
REMARK       I    between atoms: C_5  and  N_9 
REMARK    2  A    between atoms: N_9  and  C_15 
ROOT
ATOM      1  C   UNL d   1     -48.162  13.314  22.454  0.00  0.00     0.304 C 
ATOM      2  N   UNL d   1     -47.629  13.234  23.072  0.00  0.00    -0.206 NA
ATOM      3  O   UNL d   1     -47.979  13.025  21.716  0.00  0.00    -0.263 OA
ENDROOT
BRANCH   1   4
ATOM      4  C   UNL d   1     -48.884  13.685  22.570  0.00  0.00     0.182 A 
ATOM      5  O   UNL d   1     -48.901  14.403  22.960  0.00  0.00    -0.298 OA
ATOM      6  C   UNL d   1     -49.630  14.782  23.078  0.00  0.00     0.123 A 
ATOM      7  C   UNL d   1     -49.656  15.507  23.471  0.00  0.00     0.027 A 
ATOM      8  C   UNL d   1     -50.313  14.435  22.807  0.00  0.00     0.123 A 
ATOM      9  C   UNL d   1     -50.381  15.874  23.585  0.00  0.00     0.002 A 
ATOM     10  C   UNL d   1     -51.064  15.539  23.319  0.00  0.00     0.002 A 
ATOM     11  C   UNL d   1     -51.039  14.814  22.926  0.00  0.00     0.027 A 
ATOM     12  O   UNL d   1     -50.287  13.710  22.414  0.00  0.00    -0.301 OA
ATOM     13  C   UNL d   1     -49.567  13.346  22.302  0.00  0.00     0.152 A 
ENDBRANCH   1   4
BRANCH   2  14
ATOM     14  C   UNL d   1     -46.886  12.868  23.011  0.00  0.00     0.085 A 
ATOM     15  C   UNL d   1     -46.234  13.175  22.595  0.00  0.00     0.021 A 
ATOM     16  C   UNL d   1     -45.534  12.771  22.571  0.00  0.00     0.021 A 
ATOM     17  C   UNL d   1     -45.451  12.069  22.945  0.00  0.00     0.088 A 
ATOM     18  C   UNL d   1     -46.091  11.753  23.362  0.00  0.00     0.050 A 
ATOM     19  N   UNL d   1     -44.842  11.520  23.039  0.00  0.00    -0.239 NA
ATOM     20  C   UNL d   1     -46.817  12.145  23.402  0.00  0.00     0.027 A 
ATOM     21  S   UNL d   1     -45.852  11.018  23.698  0.00  0.00    -0.066 SA
ATOM     22  C   UNL d   1     -45.068  10.916  23.469  0.00  0.00     0.111 A 
ATOM     23  C   UNL d   1     -44.608  10.252  23.684  0.00  0.00     0.028 C 
ENDBRANCH   2  14
TORSDOF 2
ENDMDL
MODEL 8
REMARK VINA RESULT:      -4.7      2.022      5.341
REMARK  2 active torsions:
REMARK  status: ('A' for Active; 'I' for Inactive)
REMARK    1  A    between atoms: C_2  and  C_5 
REMARK       I    between atoms: C_5  and  N_9 
REMARK    2  A    between atoms: N_9  and  C_15 
ROOT
ATOM      1  C   UNL d   1     -46.153  13.044  22.203  0.00  0.00     0.304 C 
ATOM      2  N   UNL d   1     -46.562  13.016  22.913  0.00  0.00    -0.206 NA
ATOM      3  O   UNL d   1     -46.527  13.293  21.525  0.00  0.00    -0.263 OA
ENDROOT
BRANCH   1   4
ATOM      4  C   UNL d   1     -45.365  12.821  22.165  0.00  0.00     0.182 A 
ATOM      5  O   UNL d   1     -44.859  13.239  21.680  0.00  0.00    -0.298 OA
ATOM      6  C   UNL d   1     -44.060  13.016  21.640  0.00  0.00     0.123 A 
ATOM      7  C   UNL d   1     -43.542  13.433  21.152  0.00  0.00     0.027 A 
ATOM      8  C   UNL d   1     -43.794  12.388  22.082  0.00  0.00     0.123 A 
ATOM      9  C   UNL d   1     -42.754  13.206  21.119  0.00  0.00     0.002 A 
ATOM     10  C   UNL d   1     -42.480  12.584  21.553  0.00  0.00     0.002 A 
ATOM     11  C   UNL d   1     -42.999  12.167  22.041  0.00  0.00     0.027 A 
ATOM     12  O   UNL d   1     -44.313  11.971  22.570  0.00  0.00    -0.301 OA
ATOM     13  C   UNL d   1     -45.095  12.197  22.603  0.00  0.00     0.152 A 
ENDBRANCH   1   4
BRANCH   2  14
ATOM     14  C   UNL d   1     -47.360  13.230  23.008  0.00  0.00     0.085 A 
ATOM     15  C   UNL d   1     -47.662  14.001  22.924  0.00  0.00     0.021 A 
ATOM     16  C   UNL d   1     -48.450  14.148  23.028  0.00  0.00     0.021 A 
ATOM     17  C   UNL d   1     -48.957  13.558  23.215  0.00  0.00     0.088 A 
ATOM     18  C   UNL d   1     -48.670  12.788  23.301  0.00  0.00     0.050 A 
ATOM     19  N   UNL d   1     -49.767  13.502  23.358  0.00  0.00    -0.239 NA
ATOM     20  C   UNL d   1     -47.870  12.610  23.200  0.00  0.00     0.027 A 
ATOM     21  S   UNL d   1     -49.317  12.284  23.496  0.00  0.00    -0.066 SA
ATOM     22  C   UNL d   1     -49.977  12.773  23.520  0.00  0.00     0.111 A 
ATOM     23  C   UNL d   1     -50.748  12.499  23.695  0.00  0.00     0.028 C 
ENDBRANCH   2  14
TORSDOF 2
ENDMDL
