MODEL 1
REMARK VINA RESULT:      -4.4      0.000      0.000
REMARK  3 active torsions:
REMARK  status: ('A' for Active; 'I' for Inactive)
REMARK    1  A    between atoms: C_3  and  C_1 
REMARK       I    between atoms: N_7  and  C_3 
REMARK    2  A    between atoms: C_11  and  N_7 
REMARK    3  A    between atoms: O_17  and  C_12 
ROOT
ATOM      1  C   UNL d   1      57.426  -0.228  31.001  0.00  0.00     0.121 A 
ATOM      2  C   UNL d   1      57.462  -0.998  30.768  0.00  0.00     0.305 A 
ATOM      3  C   UNL d   1      57.905   0.339  30.627  0.00  0.00     0.012 A 
ATOM      4  O   UNL d   1      57.978  -1.214  30.157  0.00  0.00    -0.273 OA
ATOM      5  C   UNL d   1      58.414   0.115  30.022  0.00  0.00     0.023 A 
ATOM      6  C   UNL d   1      58.450  -0.655  29.789  0.00  0.00     0.103 A 
ATOM      7  O   UNL d   1      56.986  -1.558  31.141  0.00  0.00    -0.259 OA
ATOM      8  C   UNL d   1      58.890   0.681  29.650  0.00  0.00     0.002 A 
ATOM      9  C   UNL d   1      58.963  -0.872  29.180  0.00  0.00     0.025 A 
ATOM     10  C   UNL d   1      59.442  -0.310  28.805  0.00  0.00     0.002 A 
ATOM     11  C   UNL d   1      59.406   0.459  29.038  0.00  0.00     0.000 A 
ENDROOT
BRANCH   1  12
ATOM     12  C   UNL d   1      56.913  -0.006  31.611  0.00  0.00     0.284 C 
ATOM     13  N   UNL d   1      56.985  -0.322  32.368  0.00  0.00    -0.208 NA
ATOM     14  O   UNL d   1      56.307   0.542  31.489  0.00  0.00    -0.265 OA
BRANCH  13  15
ATOM     15  C   UNL d   1      56.478  -0.093  32.942  0.00  0.00     0.085 A 
ATOM     16  C   UNL d   1      56.706   0.441  33.534  0.00  0.00     0.021 A 
ATOM     17  C   UNL d   1      56.200   0.680  34.122  0.00  0.00     0.026 A 
ATOM     18  C   UNL d   1      55.407   0.367  34.124  0.00  0.00     0.094 A 
ATOM     19  C   UNL d   1      55.174  -0.177  33.520  0.00  0.00     0.026 A 
ATOM     20  C   UNL d   1      55.716  -0.388  32.952  0.00  0.00     0.021 A 
BRANCH  18  21
ATOM     21  O   UNL d   1      54.872   0.595  34.711  0.00  0.00    -0.328 OA
ATOM     22  C   UNL d   1      55.128   0.635  35.494  0.00  0.00     0.181 C 
ENDBRANCH  18  21
ENDBRANCH  13  15
ENDBRANCH   1  12
TORSDOF 3
ENDMDL
