MODEL 1
REMARK VINA RESULT:      36.2      0.000      0.000
REMARK  7 active torsions:
REMARK  status: ('A' for Active; 'I' for Inactive)
REMARK    1  A    between atoms: C_8  and  C_1 
REMARK    2  A    between atoms: N_7  and  C_2 
REMARK    3  A    between atoms: C_10  and  C_4 
REMARK       I    between atoms: C_6  and  N_7 
REMARK       I    between atoms: N_9  and  C_6 
REMARK    4  A    between atoms: O_14  and  C_8 
REMARK    5  A    between atoms: C_13  and  N_9 
REMARK    6  A    between atoms: O_20  and  C_15 
REMARK    7  A    between atoms: C_23  and  O_20 
ROOT
ATOM      1  C   UNL d   1      46.249 -19.326  43.089  0.00  0.00     0.110 A 
ATOM      2  C   UNL d   1      46.495 -18.518  43.293  0.00  0.00     0.098 A 
ATOM      3  S   UNL d   1      46.192 -19.390  42.300  0.00  0.00    -0.080 SA
ATOM      4  C   UNL d   1      46.392 -18.647  41.949  0.00  0.00     0.031 A 
ATOM      5  C   UNL d   1      46.581 -18.106  42.587  0.00  0.00     0.026 A 
ENDROOT
BRANCH   2   6
ATOM      6  N   UNL d   1      46.628 -18.189  44.034  0.00  0.00    -0.190 NA
ATOM      7  C   UNL d   1      46.397 -17.398  44.187  0.00  0.00     0.369 C 
ATOM      8  N   UNL d   1      46.046 -16.951  43.624  0.00  0.00    -0.191 NA
ATOM      9  O   UNL d   1      46.541 -17.076  44.955  0.00  0.00    -0.242 OA
BRANCH   8  10
ATOM     10  C   UNL d   1      45.826 -16.183  43.786  0.00  0.00     0.086 A 
ATOM     11  C   UNL d   1      45.198 -16.040  44.282  0.00  0.00     0.021 A 
ATOM     12  C   UNL d   1      44.965 -15.267  44.454  0.00  0.00     0.026 A 
ATOM     13  C   UNL d   1      45.372 -14.639  44.122  0.00  0.00     0.100 A 
ATOM     14  C   UNL d   1      46.001 -14.782  43.627  0.00  0.00     0.026 A 
ATOM     15  C   UNL d   1      46.230 -15.556  43.457  0.00  0.00     0.021 A 
BRANCH  13  16
ATOM     16  O   UNL d   1      45.142 -13.874  44.293  0.00  0.00    -0.305 OA
BRANCH  16  17
ATOM     17  C   UNL d   1      45.697 -13.268  44.283  0.00  0.00     0.123 C 
ATOM     18  C   UNL d   1      45.461 -12.492  44.480  0.00  0.00     0.029 C 
ENDBRANCH  16  17
ENDBRANCH  13  16
ENDBRANCH   8  10
ENDBRANCH   2   6
BRANCH   1  19
ATOM     19  C   UNL d   1      46.093 -19.949  43.625  0.00  0.00     0.303 C 
ATOM     20  O   UNL d   1      46.646 -20.144  44.188  0.00  0.00    -0.259 OA
BRANCH  19  21
ATOM     21  O   UNL d   1      45.366 -20.329  43.539  0.00  0.00    -0.295 OA
ATOM     22  C   UNL d   1      44.739 -20.233  44.074  0.00  0.00     0.185 C 
ENDBRANCH  19  21
ENDBRANCH   1  19
BRANCH   4  23
ATOM     23  C   UNL d   1      46.399 -18.485  41.131  0.00  0.00     0.006 A 
ATOM     24  C   UNL d   1      46.278 -17.714  40.841  0.00  0.00     0.001 A 
ATOM     25  C   UNL d   1      46.286 -17.558  40.033  0.00  0.00     0.000 A 
ATOM     26  C   UNL d   1      46.419 -18.183  39.490  0.00  0.00     0.000 A 
ATOM     27  C   UNL d   1      46.544 -18.981  39.786  0.00  0.00     0.000 A 
ATOM     28  C   UNL d   1      46.532 -19.110  40.587  0.00  0.00     0.001 A 
ENDBRANCH   4  23
TORSDOF 7
ENDMDL
