MODEL 1
REMARK VINA RESULT:      -9.4      0.000      0.000
REMARK  3 active torsions:
REMARK  status: ('A' for Active; 'I' for Inactive)
REMARK    1  A    between atoms: N_2  and  S_1 
REMARK    2  A    between atoms: C_3  and  S_1 
REMARK    3  A    between atoms: C_5  and  N_4 
ROOT
ATOM      1  N   UNL d   1      50.998  34.235  52.736  0.00  0.00    -0.226 N 
ATOM      2  N   UNL d   1      52.388  33.936  53.557  0.00  0.00    -0.301 N 
ATOM      3  C   UNL d   1      51.675  34.673  52.573  0.00  0.00     0.111 A 
ATOM      4  C   UNL d   1      51.019  33.647  53.311  0.00  0.00     0.111 A 
ATOM      5  C   UNL d   1      52.374  34.523  52.986  0.00  0.00     0.100 A 
ATOM      6  C   UNL d   1      51.717  33.497  53.723  0.00  0.00     0.100 A 
ENDROOT
BRANCH   1   7
ATOM      7  S   UNL d   1      50.300  34.385  52.323  0.00  0.00     0.271 S 
ATOM      8  O   UNL d   1      50.709  34.323  51.609  0.00  0.00    -0.200 OA
ATOM      9  O   UNL d   1      49.891  34.447  53.037  0.00  0.00    -0.200 OA
BRANCH   7  10
ATOM     10  C   UNL d   1      49.602  34.535  51.910  0.00  0.00     0.104 A 
ATOM     11  C   UNL d   1      49.015  35.004  52.247  0.00  0.00     0.015 A 
ATOM     12  C   UNL d   1      48.317  35.154  51.834  0.00  0.00     0.028 A 
ATOM     13  C   UNL d   1      47.730  35.626  52.176  0.00  0.00     0.002 C 
ATOM     14  C   UNL d   1      48.205  34.835  51.085  0.00  0.00     0.140 A 
ATOM     15  C   UNL d   1      48.791  34.366  50.747  0.00  0.00     0.030 A 
ATOM     16  F   UNL d   1      47.507  34.985  50.672  0.00  0.00    -0.204 F 
ATOM     17  C   UNL d   1      49.489  34.216  51.160  0.00  0.00     0.015 A 
ENDBRANCH   7  10
ENDBRANCH   1   7
BRANCH   2  18
ATOM     18  C   UNL d   1      53.086  33.786  53.970  0.00  0.00     0.064 A 
ATOM     19  C   UNL d   1      53.552  33.137  53.771  0.00  0.00     0.016 A 
ATOM     20  C   UNL d   1      54.250  32.987  54.184  0.00  0.00     0.001 A 
ATOM     21  C   UNL d   1      53.319  32.634  53.157  0.00  0.00     0.002 C 
ATOM     22  C   UNL d   1      54.483  33.486  54.796  0.00  0.00     0.000 A 
ATOM     23  C   UNL d   1      54.018  34.135  54.994  0.00  0.00     0.002 A 
ATOM     24  C   UNL d   1      55.181  33.336  55.208  0.00  0.00     0.000 C 
ATOM     25  C   UNL d   1      53.319  34.285  54.581  0.00  0.00     0.018 A 
ENDBRANCH   2  18
TORSDOF 3
ENDMDL
MODEL 2
REMARK VINA RESULT:      -9.1      2.081      5.291
REMARK  3 active torsions:
REMARK  status: ('A' for Active; 'I' for Inactive)
REMARK    1  A    between atoms: N_2  and  S_1 
REMARK    2  A    between atoms: C_3  and  S_1 
REMARK    3  A    between atoms: C_5  and  N_4 
ROOT
ATOM      1  N   UNL d   1      51.670  33.873  52.976  0.00  0.00    -0.226 N 
ATOM      2  N   UNL d   1      50.234  34.349  52.340  0.00  0.00    -0.301 N 
ATOM      3  C   UNL d   1      51.653  34.318  52.284  0.00  0.00     0.111 A 
ATOM      4  C   UNL d   1      50.966  33.666  53.347  0.00  0.00     0.111 A 
ATOM      5  C   UNL d   1      50.931  34.558  51.965  0.00  0.00     0.100 A 
ATOM      6  C   UNL d   1      50.244  33.905  53.028  0.00  0.00     0.100 A 
ENDROOT
BRANCH   1   7
ATOM      7  S   UNL d   1      52.392  33.633  53.295  0.00  0.00     0.271 S 
ATOM      8  O   UNL d   1      52.113  32.859  53.345  0.00  0.00    -0.200 OA
ATOM      9  O   UNL d   1      52.671  34.408  53.245  0.00  0.00    -0.200 OA
BRANCH   7  10
ATOM     10  C   UNL d   1      53.114  33.394  53.615  0.00  0.00     0.104 A 
ATOM     11  C   UNL d   1      53.365  33.694  54.339  0.00  0.00     0.015 A 
ATOM     12  C   UNL d   1      54.087  33.455  54.659  0.00  0.00     0.028 A 
ATOM     13  C   UNL d   1      54.336  33.758  55.387  0.00  0.00     0.002 C 
ATOM     14  C   UNL d   1      54.558  32.916  54.254  0.00  0.00     0.140 A 
ATOM     15  C   UNL d   1      54.308  32.615  53.530  0.00  0.00     0.030 A 
ATOM     16  F   UNL d   1      55.280  32.676  54.574  0.00  0.00    -0.204 F 
ATOM     17  C   UNL d   1      53.586  32.854  53.211  0.00  0.00     0.015 A 
ENDBRANCH   7  10
ENDBRANCH   1   7
BRANCH   2  18
ATOM     18  C   UNL d   1      49.512  34.588  52.020  0.00  0.00     0.064 A 
ATOM     19  C   UNL d   1      49.011  35.077  52.452  0.00  0.00     0.016 A 
ATOM     20  C   UNL d   1      48.289  35.317  52.133  0.00  0.00     0.001 A 
ATOM     21  C   UNL d   1      49.232  35.330  53.209  0.00  0.00     0.002 C 
ATOM     22  C   UNL d   1      48.067  35.067  51.380  0.00  0.00     0.000 A 
ATOM     23  C   UNL d   1      48.568  34.577  50.948  0.00  0.00     0.002 A 
ATOM     24  C   UNL d   1      47.346  35.306  51.061  0.00  0.00     0.000 C 
ATOM     25  C   UNL d   1      49.290  34.338  51.268  0.00  0.00     0.018 A 
ENDBRANCH   2  18
TORSDOF 3
ENDMDL
