MODEL 1
REMARK VINA RESULT:       3.5      0.000      0.000
REMARK  10 active torsions:
REMARK  status: ('A' for Active; 'I' for Inactive)
REMARK    1  A    between atoms: C_2  and  S_1 
REMARK    2  A    between atoms: N_3  and  S_1 
REMARK    3  A    between atoms: C_19  and  N_3 
REMARK    4  A    between atoms: C_4  and  C_8 
REMARK       I    between atoms: N_14  and  C_4 
REMARK    5  A    between atoms: O_27  and  C_7 
REMARK    6  A    between atoms: O_28  and  C_11 
REMARK    7  A    between atoms: C_29  and  N_14 
REMARK    8  A    between atoms: C_22  and  C_19 
REMARK    9  A    between atoms: C_21  and  C_30 
REMARK   10  A    between atoms: C_30  and  C_29 
ROOT
ATOM      1  C   UNL d   1      58.861  -3.329  28.910  0.00  0.00     0.058 A 
ATOM      2  C   UNL d   1      58.130  -2.999  28.737  0.00  0.00     0.005 A 
ATOM      3  C   UNL d   1      59.437  -2.866  29.292  0.00  0.00     0.005 A 
ATOM      4  C   UNL d   1      58.544  -1.756  29.320  0.00  0.00     0.020 A 
ATOM      5  C   UNL d   1      57.971  -2.207  28.943  0.00  0.00     0.002 A 
ATOM      6  C   UNL d   1      59.274  -2.080  29.495  0.00  0.00     0.002 A 
ENDROOT
BRANCH   1   7
ATOM      7  C   UNL d   1      59.025  -4.106  28.711  0.00  0.00     0.279 C 
ATOM      8  O   UNL d   1      59.803  -4.329  28.532  0.00  0.00    -0.265 OA
ATOM      9  N   UNL d   1      58.421  -4.663  28.688  0.00  0.00    -0.206 NA
BRANCH   9  10
ATOM     10  C   UNL d   1      58.592  -5.445  28.486  0.00  0.00     0.102 C 
BRANCH  10  11
ATOM     11  C   UNL d   1      57.986  -5.992  28.467  0.00  0.00     0.021 C 
BRANCH  11  12
ATOM     12  C   UNL d   1      58.162  -6.786  28.469  0.00  0.00     0.004 A 
ATOM     13  C   UNL d   1      57.560  -7.351  28.471  0.00  0.00     0.026 A 
ATOM     14  C   UNL d   1      57.744  -8.146  28.473  0.00  0.00     0.116 A 
ATOM     15  C   UNL d   1      58.542  -8.389  28.472  0.00  0.00     0.116 A 
ATOM     16  C   UNL d   1      59.137  -7.835  28.470  0.00  0.00     0.026 A 
ATOM     17  C   UNL d   1      58.950  -7.029  28.468  0.00  0.00     0.002 A 
BRANCH  14  18
ATOM     18  O   UNL d   1      57.140  -8.708  28.475  0.00  0.00    -0.326 OA
ATOM     19  C   UNL d   1      56.434  -8.733  28.989  0.00  0.00     0.181 C 
ENDBRANCH  14  18
BRANCH  15  20
ATOM     20  O   UNL d   1      58.742  -9.174  28.474  0.00  0.00    -0.326 OA
ATOM     21  C   UNL d   1      59.323  -9.448  28.969  0.00  0.00     0.181 C 
ENDBRANCH  15  20
ENDBRANCH  11  12
ENDBRANCH  10  11
ENDBRANCH   9  10
ENDBRANCH   1   7
BRANCH   4  22
ATOM     22  C   UNL d   1      58.380  -0.969  29.522  0.00  0.00     0.112 C 
BRANCH  22  23
ATOM     23  N   UNL d   1      58.758  -0.632  30.159  0.00  0.00    -0.157 NA
BRANCH  23  24
ATOM     24  S   UNL d   1      58.312  -0.309  30.785  0.00  0.00     0.285 S 
ATOM     25  O   UNL d   1      58.318  -1.041  31.163  0.00  0.00    -0.198 OA
ATOM     26  O   UNL d   1      58.309   0.422  30.401  0.00  0.00    -0.198 OA
BRANCH  24  27
ATOM     27  C   UNL d   1      57.873   0.017  31.395  0.00  0.00     0.105 A 
ATOM     28  C   UNL d   1      58.244   0.354  32.038  0.00  0.00     0.012 A 
ATOM     29  C   UNL d   1      57.798   0.682  32.654  0.00  0.00     0.001 A 
ATOM     30  C   UNL d   1      59.075   0.363  32.069  0.00  0.00     0.001 C 
ATOM     31  C   UNL d   1      56.970   0.670  32.619  0.00  0.00     0.000 A 
ATOM     32  C   UNL d   1      56.592   0.328  31.965  0.00  0.00     0.001 A 
ATOM     33  C   UNL d   1      57.042  -0.000  31.350  0.00  0.00     0.013 A 
ATOM     34  C   UNL d   1      55.771   0.314  31.926  0.00  0.00     0.000 C 
ENDBRANCH  24  27
ENDBRANCH  23  24
ENDBRANCH  22  23
ENDBRANCH   4  22
TORSDOF 10
ENDMDL
MODEL 2
REMARK VINA RESULT:       6.4      6.057      8.917
REMARK  10 active torsions:
REMARK  status: ('A' for Active; 'I' for Inactive)
REMARK    1  A    between atoms: C_2  and  S_1 
REMARK    2  A    between atoms: N_3  and  S_1 
REMARK    3  A    between atoms: C_19  and  N_3 
REMARK    4  A    between atoms: C_4  and  C_8 
REMARK       I    between atoms: N_14  and  C_4 
REMARK    5  A    between atoms: O_27  and  C_7 
REMARK    6  A    between atoms: O_28  and  C_11 
REMARK    7  A    between atoms: C_29  and  N_14 
REMARK    8  A    between atoms: C_22  and  C_19 
REMARK    9  A    between atoms: C_21  and  C_30 
REMARK   10  A    between atoms: C_30  and  C_29 
ROOT
ATOM      1  C   UNL d   1      59.427  -9.672  34.007  0.00  0.00     0.058 A 
ATOM      2  C   UNL d   1      60.089  -9.774  33.534  0.00  0.00     0.005 A 
ATOM      3  C   UNL d   1      58.676  -9.613  33.653  0.00  0.00     0.005 A 
ATOM      4  C   UNL d   1      59.262  -9.759  32.362  0.00  0.00     0.020 A 
ATOM      5  C   UNL d   1      60.006  -9.818  32.705  0.00  0.00     0.002 A 
ATOM      6  C   UNL d   1      58.599  -9.657  32.829  0.00  0.00     0.002 A 
ENDROOT
BRANCH   1   7
ATOM      7  C   UNL d   1      59.501  -9.629  34.822  0.00  0.00     0.279 C 
ATOM      8  O   UNL d   1      58.831  -9.727  35.301  0.00  0.00    -0.265 OA
ATOM      9  N   UNL d   1      60.234  -9.488  35.163  0.00  0.00    -0.206 NA
BRANCH   9  10
ATOM     10  C   UNL d   1      60.304  -9.445  35.985  0.00  0.00     0.102 C 
BRANCH  10  11
ATOM     11  C   UNL d   1      60.763  -8.857  36.315  0.00  0.00     0.021 C 
BRANCH  11  12
ATOM     12  C   UNL d   1      60.551  -8.078  36.216  0.00  0.00     0.004 A 
ATOM     13  C   UNL d   1      59.762  -7.845  36.277  0.00  0.00     0.026 A 
ATOM     14  C   UNL d   1      59.557  -7.061  36.176  0.00  0.00     0.116 A 
ATOM     15  C   UNL d   1      60.147  -6.494  36.012  0.00  0.00     0.116 A 
ATOM     16  C   UNL d   1      60.926  -6.721  35.951  0.00  0.00     0.026 A 
ATOM     17  C   UNL d   1      61.132  -7.516  36.054  0.00  0.00     0.002 A 
BRANCH  14  18
ATOM     18  O   UNL d   1      58.767  -6.831  36.237  0.00  0.00    -0.326 OA
ATOM     19  C   UNL d   1      58.191  -6.722  35.590  0.00  0.00     0.181 C 
ENDBRANCH  14  18
BRANCH  15  20
ATOM     20  O   UNL d   1      59.961  -5.713  35.909  0.00  0.00    -0.326 OA
ATOM     21  C   UNL d   1      60.517  -5.138  36.043  0.00  0.00     0.181 C 
ENDBRANCH  15  20
ENDBRANCH  11  12
ENDBRANCH  10  11
ENDBRANCH   9  10
ENDBRANCH   1   7
BRANCH   4  22
ATOM     22  C   UNL d   1      59.185  -9.802  31.538  0.00  0.00     0.112 C 
BRANCH  22  23
ATOM     23  N   UNL d   1      58.840  -9.186  31.134  0.00  0.00    -0.157 NA
BRANCH  23  24
ATOM     24  S   UNL d   1      58.340  -9.342  30.485  0.00  0.00     0.285 S 
ATOM     25  O   UNL d   1      57.742  -8.903  30.845  0.00  0.00    -0.198 OA
ATOM     26  O   UNL d   1      58.943  -9.779  30.129  0.00  0.00    -0.198 OA
BRANCH  24  27
ATOM     27  C   UNL d   1      57.856  -9.500  29.844  0.00  0.00     0.105 A 
ATOM     28  C   UNL d   1      58.174  -9.610  29.101  0.00  0.00     0.012 A 
ATOM     29  C   UNL d   1      57.681  -9.770  28.455  0.00  0.00     0.001 A 
ATOM     30  C   UNL d   1      58.998  -9.561  29.001  0.00  0.00     0.001 C 
ATOM     31  C   UNL d   1      56.861  -9.818  28.559  0.00  0.00     0.000 A 
ATOM     32  C   UNL d   1      56.536  -9.706  29.314  0.00  0.00     0.001 A 
ATOM     33  C   UNL d   1      57.033  -9.546  29.961  0.00  0.00     0.013 A 
ATOM     34  C   UNL d   1      55.723  -9.752  29.423  0.00  0.00     0.000 C 
ENDBRANCH  24  27
ENDBRANCH  23  24
ENDBRANCH  22  23
ENDBRANCH   4  22
TORSDOF 10
ENDMDL
