MODEL 1
REMARK VINA RESULT:      18.0      0.000      0.000
REMARK  2 active torsions:
REMARK  status: ('A' for Active; 'I' for Inactive)
REMARK    1  A    between atoms: N_2  and  S_1 
REMARK    2  A    between atoms: C_8  and  S_1 
ROOT
ATOM      1  N   UNL d   1      46.275 -18.285  44.212  0.00  0.00    -0.231 N 
ATOM      2  C   UNL d   1      46.484 -18.822  44.792  0.00  0.00     0.092 A 
ATOM      3  C   UNL d   1      46.306 -18.676  43.486  0.00  0.00     0.075 A 
ATOM      4  C   UNL d   1      46.646 -19.546  44.433  0.00  0.00     0.021 A 
ATOM      5  C   UNL d   1      46.536 -19.458  43.623  0.00  0.00     0.018 A 
ATOM      6  C   UNL d   1      46.155 -18.419  42.720  0.00  0.00     0.018 A 
ATOM      7  C   UNL d   1      46.614 -19.980  42.994  0.00  0.00     0.002 A 
ATOM      8  C   UNL d   1      46.233 -18.943  42.085  0.00  0.00     0.002 A 
ATOM      9  C   UNL d   1      46.462 -19.726  42.222  0.00  0.00     0.000 A 
ENDROOT
BRANCH   1  10
ATOM     10  S   UNL d   1      46.070 -17.495  44.330  0.00  0.00     0.271 S 
ATOM     11  O   UNL d   1      46.622 -17.270  43.753  0.00  0.00    -0.200 OA
ATOM     12  O   UNL d   1      45.522 -17.723  44.904  0.00  0.00    -0.200 OA
BRANCH  10  13
ATOM     13  C   UNL d   1      45.862 -16.702  44.450  0.00  0.00     0.104 A 
ATOM     14  C   UNL d   1      45.164 -16.511  44.836  0.00  0.00     0.013 A 
ATOM     15  C   UNL d   1      44.959 -15.729  44.955  0.00  0.00     0.001 A 
ATOM     16  C   UNL d   1      45.457 -15.125  44.685  0.00  0.00     0.000 A 
ATOM     17  C   UNL d   1      46.156 -15.310  44.299  0.00  0.00     0.001 A 
ATOM     18  C   UNL d   1      46.362 -16.101  44.180  0.00  0.00     0.013 A 
ENDBRANCH  10  13
ENDBRANCH   1  10
TORSDOF 2
ENDMDL
MODEL 2
REMARK VINA RESULT:      18.8      0.535      1.324
REMARK  2 active torsions:
REMARK  status: ('A' for Active; 'I' for Inactive)
REMARK    1  A    between atoms: N_2  and  S_1 
REMARK    2  A    between atoms: C_8  and  S_1 
ROOT
ATOM      1  N   UNL d   1      46.187 -18.045  43.484  0.00  0.00    -0.231 N 
ATOM      2  C   UNL d   1      46.258 -18.177  42.680  0.00  0.00     0.092 A 
ATOM      3  C   UNL d   1      46.325 -18.763  43.868  0.00  0.00     0.075 A 
ATOM      4  C   UNL d   1      46.440 -18.971  42.559  0.00  0.00     0.021 A 
ATOM      5  C   UNL d   1      46.483 -19.337  43.294  0.00  0.00     0.018 A 
ATOM      6  C   UNL d   1      46.328 -18.965  44.665  0.00  0.00     0.018 A 
ATOM      7  C   UNL d   1      46.642 -20.110  43.519  0.00  0.00     0.002 A 
ATOM      8  C   UNL d   1      46.488 -19.743  44.893  0.00  0.00     0.002 A 
ATOM      9  C   UNL d   1      46.645 -20.317  44.319  0.00  0.00     0.000 A 
ENDROOT
BRANCH   1  10
ATOM     10  S   UNL d   1      46.008 -17.327  43.848  0.00  0.00     0.271 S 
ATOM     11  O   UNL d   1      46.573 -17.487  44.433  0.00  0.00    -0.200 OA
ATOM     12  O   UNL d   1      45.447 -17.171  43.262  0.00  0.00    -0.200 OA
BRANCH  10  13
ATOM     13  C   UNL d   1      45.827 -16.605  44.210  0.00  0.00     0.104 A 
ATOM     14  C   UNL d   1      45.102 -16.496  44.578  0.00  0.00     0.013 A 
ATOM     15  C   UNL d   1      44.923 -15.783  44.936  0.00  0.00     0.001 A 
ATOM     16  C   UNL d   1      45.476 -15.166  44.928  0.00  0.00     0.000 A 
ATOM     17  C   UNL d   1      46.202 -15.269  44.561  0.00  0.00     0.001 A 
ATOM     18  C   UNL d   1      46.381 -15.990  44.200  0.00  0.00     0.013 A 
ENDBRANCH  10  13
ENDBRANCH   1  10
TORSDOF 2
ENDMDL
MODEL 3
REMARK VINA RESULT:      19.8      2.195      4.748
REMARK  2 active torsions:
REMARK  status: ('A' for Active; 'I' for Inactive)
REMARK    1  A    between atoms: N_2  and  S_1 
REMARK    2  A    between atoms: C_8  and  S_1 
ROOT
ATOM      1  N   UNL d   1      45.194 -14.219  44.045  0.00  0.00    -0.231 N 
ATOM      2  C   UNL d   1      44.538 -13.933  43.649  0.00  0.00     0.092 A 
ATOM      3  C   UNL d   1      45.622 -13.569  44.321  0.00  0.00     0.075 A 
ATOM      4  C   UNL d   1      44.553 -13.110  43.676  0.00  0.00     0.021 A 
ATOM      5  C   UNL d   1      45.225 -12.881  44.092  0.00  0.00     0.018 A 
ATOM      6  C   UNL d   1      46.321 -13.518  44.750  0.00  0.00     0.018 A 
ATOM      7  C   UNL d   1      45.528 -12.145  44.293  0.00  0.00     0.002 A 
ATOM      8  C   UNL d   1      46.628 -12.778  44.954  0.00  0.00     0.002 A 
ATOM      9  C   UNL d   1      46.231 -12.090  44.724  0.00  0.00     0.000 A 
ENDROOT
BRANCH   1  10
ATOM     10  S   UNL d   1      45.393 -15.012  44.150  0.00  0.00     0.271 S 
ATOM     11  O   UNL d   1      44.657 -15.145  44.508  0.00  0.00    -0.200 OA
ATOM     12  O   UNL d   1      46.125 -14.876  43.794  0.00  0.00    -0.200 OA
BRANCH  10  13
ATOM     13  C   UNL d   1      45.596 -15.808  44.255  0.00  0.00     0.104 A 
ATOM     14  C   UNL d   1      45.247 -16.250  44.852  0.00  0.00     0.013 A 
ATOM     15  C   UNL d   1      45.448 -17.035  44.955  0.00  0.00     0.001 A 
ATOM     16  C   UNL d   1      46.005 -17.389  44.455  0.00  0.00     0.000 A 
ATOM     17  C   UNL d   1      46.356 -16.953  43.857  0.00  0.00     0.001 A 
ATOM     18  C   UNL d   1      46.153 -16.159  43.754  0.00  0.00     0.013 A 
ENDBRANCH  10  13
ENDBRANCH   1  10
TORSDOF 2
ENDMDL
