MODEL 1
REMARK VINA RESULT:      16.1      0.000      0.000
REMARK  2 active torsions:
REMARK  status: ('A' for Active; 'I' for Inactive)
REMARK    1  A    between atoms: C_6  and  C_1 
REMARK    2  A    between atoms: C_7  and  C_5 
ROOT
ATOM      1  C   UNL d   1     -58.445 -98.766 -43.852  0.00  0.00     0.085 A 
ATOM      2  C   UNL d   1     -58.509 -98.759 -44.675  0.00  0.00     0.137 A 
ATOM      3  C   UNL d   1     -57.660 -98.768 -43.641  0.00  0.00     0.013 A 
ATOM      4  S   UNL d   1     -57.743 -98.757 -44.973  0.00  0.00    -0.066 SA
ATOM      5  C   UNL d   1     -57.227 -98.762 -44.350  0.00  0.00     0.031 A 
ATOM      6  N   UNL d   1     -59.226 -98.756 -45.087  0.00  0.00    -0.141 N 
ENDROOT
BRANCH   5   7
ATOM      7  C   UNL d   1     -56.410 -98.762 -44.360  0.00  0.00     0.006 A 
ATOM      8  C   UNL d   1     -56.017 -98.769 -45.069  0.00  0.00     0.001 A 
ATOM      9  C   UNL d   1     -55.189 -98.769 -45.087  0.00  0.00     0.000 A 
ATOM     10  C   UNL d   1     -54.766 -98.763 -44.389  0.00  0.00     0.000 A 
ATOM     11  C   UNL d   1     -55.164 -98.756 -43.666  0.00  0.00     0.000 A 
ATOM     12  C   UNL d   1     -55.981 -98.756 -43.655  0.00  0.00     0.001 A 
ENDBRANCH   5   7
BRANCH   1  13
ATOM     13  C   UNL d   1     -59.083 -98.770 -43.302  0.00  0.00     0.299 C 
ATOM     14  O   UNL d   1     -58.931 -98.755 -42.503  0.00  0.00    -0.264 OA
ATOM     15  N   UNL d   1     -59.852 -98.789 -43.587  0.00  0.00    -0.102 N 
ENDBRANCH   1  13
TORSDOF 2
ENDMDL
