MODEL 1
REMARK VINA RESULT:     100.3      0.000      0.000
REMARK  6 active torsions:
REMARK  status: ('A' for Active; 'I' for Inactive)
REMARK    1  A    between atoms: C_8  and  N_1 
REMARK    2  A    between atoms: C_6  and  C_3 
REMARK    3  A    between atoms: C_7  and  C_6 
REMARK       I    between atoms: N_11  and  C_7 
REMARK    4  A    between atoms: C_9  and  C_8 
REMARK       I    between atoms: N_12  and  C_9 
REMARK    5  A    between atoms: C_17  and  N_11 
REMARK    6  A    between atoms: C_16  and  N_12 
ROOT
ATOM      1  N   UNL d   1      61.643  47.839  50.316  0.00  0.00    -0.230 N 
ATOM      2  C   UNL d   1      61.541  48.296  49.633  0.00  0.00     0.299 A 
ATOM      3  C   UNL d   1      60.943  48.922  50.643  0.00  0.00     0.095 A 
ATOM      4  C   UNL d   1      61.272  48.227  50.942  0.00  0.00     0.274 A 
ATOM      5  S   UNL d   1      61.108  48.963  49.846  0.00  0.00    -0.022 SA
ATOM      6  O   UNL d   1      61.826  48.109  48.882  0.00  0.00    -0.259 OA
ATOM      7  O   UNL d   1      61.238  47.964  51.726  0.00  0.00    -0.266 OA
ENDROOT
BRANCH   1   8
ATOM      8  C   UNL d   1      62.047  47.118  50.360  0.00  0.00     0.149 C 
BRANCH   8   9
ATOM      9  C   UNL d   1      61.665  46.452  50.661  0.00  0.00     0.297 C 
ATOM     10  N   UNL d   1      61.759  45.727  50.291  0.00  0.00    -0.207 NA
ATOM     11  O   UNL d   1      61.189  46.517  51.335  0.00  0.00    -0.264 OA
BRANCH  10  12
ATOM     12  C   UNL d   1      61.376  45.057  50.591  0.00  0.00     0.085 A 
ATOM     13  C   UNL d   1      60.562  45.070  50.706  0.00  0.00     0.019 A 
ATOM     14  C   UNL d   1      60.180  44.405  51.005  0.00  0.00     0.002 A 
ATOM     15  C   UNL d   1      60.616  43.726  51.187  0.00  0.00     0.000 A 
ATOM     16  C   UNL d   1      61.439  43.719  51.069  0.00  0.00     0.002 A 
ATOM     17  C   UNL d   1      60.240  43.059  51.486  0.00  0.00     0.000 C 
ATOM     18  C   UNL d   1      61.816  44.385  50.771  0.00  0.00     0.019 A 
ENDBRANCH  10  12
ENDBRANCH   8   9
ENDBRANCH   1   8
BRANCH   3  19
ATOM     19  C   UNL d   1      60.520  49.475  51.087  0.00  0.00     0.074 C 
BRANCH  19  20
ATOM     20  C   UNL d   1      59.699  49.494  51.042  0.00  0.00     0.280 C 
ATOM     21  N   UNL d   1      59.321  49.526  50.317  0.00  0.00    -0.208 NA
ATOM     22  O   UNL d   1      59.246  49.482  51.735  0.00  0.00    -0.265 OA
BRANCH  21  23
ATOM     23  C   UNL d   1      58.501  49.545  50.276  0.00  0.00     0.085 A 
ATOM     24  C   UNL d   1      58.129  49.648  49.551  0.00  0.00     0.020 A 
ATOM     25  C   UNL d   1      57.305  49.667  49.512  0.00  0.00     0.013 A 
ATOM     26  C   UNL d   1      56.858  49.583  50.193  0.00  0.00     0.058 A 
ATOM     27  C   UNL d   1      57.232  49.479  50.928  0.00  0.00     0.013 A 
ATOM     28 CL   UNL d   1      56.034  49.602  50.155  0.00  0.00    -0.082 Cl
ATOM     29  C   UNL d   1      58.056  49.460  50.965  0.00  0.00     0.020 A 
ENDBRANCH  21  23
ENDBRANCH  19  20
ENDBRANCH   3  19
TORSDOF 6
ENDMDL
