MODEL 1
REMARK VINA RESULT:      -4.1      0.000      0.000
REMARK  4 active torsions:
REMARK  status: ('A' for Active; 'I' for Inactive)
REMARK    1  A    between atoms: S_16  and  C_7 
REMARK    2  A    between atoms: C_10  and  N_11 
REMARK       I    between atoms: N_11  and  C_14 
REMARK    3  A    between atoms: C_14  and  C_20 
REMARK    4  A    between atoms: C_20  and  S_16 
ROOT
ATOM      1  N   UNL d   1      58.583  -1.590  29.642  0.00  0.00    -0.167 N 
ATOM      2  C   UNL d   1      58.912  -0.866  29.442  0.00  0.00     0.220 A 
ATOM      3  C   UNL d   1      58.875  -2.295  29.317  0.00  0.00     0.301 A 
ATOM      4  S   UNL d   1      58.499  -0.282  29.856  0.00  0.00    -0.019 SA
ATOM      5  N   UNL d   1      57.973  -1.464  30.173  0.00  0.00    -0.147 NA
ATOM      6  N   UNL d   1      59.541  -0.831  28.912  0.00  0.00    -0.121 NA
ATOM      7  C   UNL d   1      57.922  -0.654  30.306  0.00  0.00     0.164 A 
ATOM      8  N   UNL d   1      59.841  -1.521  28.582  0.00  0.00    -0.141 NA
ATOM      9  C   UNL d   1      59.510  -2.249  28.783  0.00  0.00     0.161 A 
ATOM     10  O   UNL d   1      58.547  -3.016  29.516  0.00  0.00    -0.263 OA
ATOM     11  C   UNL d   1      59.807  -2.943  28.455  0.00  0.00     0.028 C 
ENDROOT
BRANCH   7  12
ATOM     12  S   UNL d   1      57.383  -0.277  30.804  0.00  0.00    -0.054 SA
BRANCH  12  13
ATOM     13  C   UNL d   1      57.355  -0.463  31.603  0.00  0.00     0.100 C 
BRANCH  13  14
ATOM     14  C   UNL d   1      56.806  -0.084  32.093  0.00  0.00     0.288 C 
ATOM     15  N   UNL d   1      56.532  -0.463  32.776  0.00  0.00    -0.182 NA
ATOM     16  O   UNL d   1      56.533   0.670  31.899  0.00  0.00    -0.265 OA
BRANCH  15  17
ATOM     17  C   UNL d   1      55.985  -0.085  33.264  0.00  0.00     0.197 A 
ATOM     18  N   UNL d   1      55.158  -0.157  33.222  0.00  0.00    -0.219 NA
ATOM     19  C   UNL d   1      54.833   0.315  33.810  0.00  0.00     0.108 A 
ATOM     20  C   UNL d   1      55.457   0.682  34.219  0.00  0.00     0.059 A 
ATOM     21  S   UNL d   1      56.159   0.432  33.879  0.00  0.00    -0.046 SA
ENDBRANCH  15  17
ENDBRANCH  13  14
ENDBRANCH  12  13
ENDBRANCH   7  12
TORSDOF 4
ENDMDL
MODEL 2
REMARK VINA RESULT:      -3.5      1.360      5.113
REMARK  4 active torsions:
REMARK  status: ('A' for Active; 'I' for Inactive)
REMARK    1  A    between atoms: S_16  and  C_7 
REMARK    2  A    between atoms: C_10  and  N_11 
REMARK       I    between atoms: N_11  and  C_14 
REMARK    3  A    between atoms: C_14  and  C_20 
REMARK    4  A    between atoms: C_20  and  S_16 
ROOT
ATOM      1  N   UNL d   1      56.804  -0.611  31.835  0.00  0.00    -0.167 N 
ATOM      2  C   UNL d   1      56.827   0.204  31.746  0.00  0.00     0.220 A 
ATOM      3  C   UNL d   1      56.286  -0.966  32.376  0.00  0.00     0.301 A 
ATOM      4  S   UNL d   1      57.395   0.377  31.171  0.00  0.00    -0.019 SA
ATOM      5  N   UNL d   1      57.349  -0.946  31.324  0.00  0.00    -0.147 NA
ATOM      6  N   UNL d   1      56.331   0.682  32.197  0.00  0.00    -0.121 NA
ATOM      7  C   UNL d   1      57.715  -0.334  30.913  0.00  0.00     0.164 A 
ATOM      8  N   UNL d   1      55.812   0.344  32.737  0.00  0.00    -0.141 NA
ATOM      9  C   UNL d   1      55.789  -0.476  32.826  0.00  0.00     0.161 A 
ATOM     10  O   UNL d   1      56.263  -1.778  32.464  0.00  0.00    -0.263 OA
ATOM     11  C   UNL d   1      55.271  -0.818  33.365  0.00  0.00     0.028 C 
ENDROOT
BRANCH   7  12
ATOM     12  S   UNL d   1      58.302  -0.417  30.340  0.00  0.00    -0.054 SA
BRANCH  12  13
ATOM     13  C   UNL d   1      58.305  -1.067  29.838  0.00  0.00     0.100 C 
BRANCH  13  14
ATOM     14  C   UNL d   1      59.022  -1.351  29.539  0.00  0.00     0.288 C 
ATOM     15  N   UNL d   1      59.108  -2.157  29.370  0.00  0.00    -0.182 NA
ATOM     16  O   UNL d   1      59.649  -0.830  29.411  0.00  0.00    -0.265 OA
BRANCH  15  17
ATOM     17  C   UNL d   1      59.824  -2.439  29.072  0.00  0.00     0.197 A 
ATOM     18  N   UNL d   1      60.381  -2.002  28.639  0.00  0.00    -0.219 NA
ATOM     19  C   UNL d   1      61.008  -2.500  28.455  0.00  0.00     0.108 A 
ATOM     20  C   UNL d   1      60.841  -3.250  28.775  0.00  0.00     0.059 A 
ATOM     21  S   UNL d   1      60.115  -3.204  29.151  0.00  0.00    -0.046 SA
ENDBRANCH  15  17
ENDBRANCH  13  14
ENDBRANCH  12  13
ENDBRANCH   7  12
TORSDOF 4
ENDMDL
MODEL 3
REMARK VINA RESULT:      -2.1      1.140      1.541
REMARK  4 active torsions:
REMARK  status: ('A' for Active; 'I' for Inactive)
REMARK    1  A    between atoms: S_16  and  C_7 
REMARK    2  A    between atoms: C_10  and  N_11 
REMARK       I    between atoms: N_11  and  C_14 
REMARK    3  A    between atoms: C_14  and  C_20 
REMARK    4  A    between atoms: C_20  and  S_16 
ROOT
ATOM      1  N   UNL d   1      59.360  -2.562  29.161  0.00  0.00    -0.167 N 
ATOM      2  C   UNL d   1      60.016  -2.073  29.206  0.00  0.00     0.220 A 
ATOM      3  C   UNL d   1      59.433  -3.350  28.911  0.00  0.00     0.301 A 
ATOM      4  S   UNL d   1      59.759  -1.333  29.470  0.00  0.00    -0.019 SA
ATOM      5  N   UNL d   1      58.699  -2.138  29.393  0.00  0.00    -0.147 NA
ATOM      6  N   UNL d   1      60.760  -2.360  29.002  0.00  0.00    -0.121 NA
ATOM      7  C   UNL d   1      58.947  -1.377  29.585  0.00  0.00     0.164 A 
ATOM      8  N   UNL d   1      60.847  -3.138  28.753  0.00  0.00    -0.141 NA
ATOM      9  C   UNL d   1      60.187  -3.630  28.708  0.00  0.00     0.161 A 
ATOM     10  O   UNL d   1      58.779  -3.837  28.866  0.00  0.00    -0.263 OA
ATOM     11  C   UNL d   1      60.270  -4.411  28.459  0.00  0.00     0.028 C 
ENDROOT
BRANCH   7  12
ATOM     12  S   UNL d   1      58.464  -0.761  29.847  0.00  0.00    -0.054 SA
BRANCH  12  13
ATOM     13  C   UNL d   1      57.783  -0.921  30.275  0.00  0.00     0.100 C 
BRANCH  13  14
ATOM     14  C   UNL d   1      57.540  -0.399  30.870  0.00  0.00     0.288 C 
ATOM     15  N   UNL d   1      57.005  -0.652  31.449  0.00  0.00    -0.182 NA
ATOM     16  O   UNL d   1      57.833   0.372  30.883  0.00  0.00    -0.265 OA
BRANCH  15  17
ATOM     17  C   UNL d   1      56.765  -0.130  32.041  0.00  0.00     0.197 A 
ATOM     18  N   UNL d   1      55.997   0.165  32.152  0.00  0.00    -0.219 NA
ATOM     19  C   UNL d   1      56.009   0.665  32.804  0.00  0.00     0.108 A 
ATOM     20  C   UNL d   1      56.786   0.681  33.100  0.00  0.00     0.059 A 
ATOM     21  S   UNL d   1      57.243   0.192  32.627  0.00  0.00    -0.046 SA
ENDBRANCH  15  17
ENDBRANCH  13  14
ENDBRANCH  12  13
ENDBRANCH   7  12
TORSDOF 4
ENDMDL
MODEL 4
REMARK VINA RESULT:      -1.6      9.158      9.893
REMARK  4 active torsions:
REMARK  status: ('A' for Active; 'I' for Inactive)
REMARK    1  A    between atoms: S_16  and  C_7 
REMARK    2  A    between atoms: C_10  and  N_11 
REMARK       I    between atoms: N_11  and  C_14 
REMARK    3  A    between atoms: C_14  and  C_20 
REMARK    4  A    between atoms: C_20  and  S_16 
ROOT
ATOM      1  N   UNL d   1      59.713  -9.145  34.019  0.00  0.00    -0.167 N 
ATOM      2  C   UNL d   1      60.487  -9.006  33.786  0.00  0.00     0.220 A 
ATOM      3  C   UNL d   1      59.468  -8.985  34.795  0.00  0.00     0.301 A 
ATOM      4  S   UNL d   1      60.550  -9.220  32.990  0.00  0.00    -0.019 SA
ATOM      5  N   UNL d   1      59.295  -9.442  33.381  0.00  0.00    -0.147 NA
ATOM      6  N   UNL d   1      61.032  -8.705  34.324  0.00  0.00    -0.121 NA
ATOM      7  C   UNL d   1      59.814  -9.488  32.743  0.00  0.00     0.164 A 
ATOM      8  N   UNL d   1      60.804  -8.542  35.096  0.00  0.00    -0.141 NA
ATOM      9  C   UNL d   1      60.025  -8.682  35.330  0.00  0.00     0.161 A 
ATOM     10  O   UNL d   1      58.697  -9.124  35.027  0.00  0.00    -0.263 OA
ATOM     11  C   UNL d   1      59.791  -8.520  36.103  0.00  0.00     0.028 C 
ENDROOT
BRANCH   7  12
ATOM     12  S   UNL d   1      59.629  -9.757  31.986  0.00  0.00    -0.054 SA
BRANCH  12  13
ATOM     13  C   UNL d   1      58.846  -9.818  31.746  0.00  0.00     0.100 C 
BRANCH  13  14
ATOM     14  C   UNL d   1      58.663  -9.810  30.939  0.00  0.00     0.288 C 
ATOM     15  N   UNL d   1      57.872  -9.815  30.695  0.00  0.00    -0.182 NA
ATOM     16  O   UNL d   1      59.270  -9.796  30.380  0.00  0.00    -0.265 OA
BRANCH  15  17
ATOM     17  C   UNL d   1      57.691  -9.807  29.890  0.00  0.00     0.197 A 
ATOM     18  N   UNL d   1      58.237  -9.799  29.265  0.00  0.00    -0.219 NA
ATOM     19  C   UNL d   1      57.815  -9.793  28.560  0.00  0.00     0.108 A 
ATOM     20  C   UNL d   1      57.005  -9.796  28.746  0.00  0.00     0.059 A 
ATOM     21  S   UNL d   1      56.937  -9.805  29.563  0.00  0.00    -0.046 SA
ENDBRANCH  15  17
ENDBRANCH  13  14
ENDBRANCH  12  13
ENDBRANCH   7  12
TORSDOF 4
ENDMDL
