MODEL 1
REMARK VINA RESULT:      -4.1      0.000      0.000
REMARK  1 active torsions:
REMARK  status: ('A' for Active; 'I' for Inactive)
REMARK    1  A    between atoms: C_2  and  C_1 
REMARK       I    between atoms: N_3  and  C_2 
ROOT
ATOM      1  C   UNL d   1      30.310  17.587 -24.655  0.00  0.00     0.248 C 
ATOM      2  N   UNL d   1      29.868  17.030 -24.227  0.00  0.00    -0.278 N 
ATOM      3  C   UNL d   1      29.127  17.050 -24.301  0.00  0.00     0.067 A 
ATOM      4  C   UNL d   1      30.222  16.569 -23.818  0.00  0.00     0.067 A 
ATOM      5  C   UNL d   1      29.758  16.035 -23.411  0.00  0.00     0.018 A 
ATOM      6  C   UNL d   1      28.704  16.563 -23.931  0.00  0.00     0.019 A 
ATOM      7  O   UNL d   1      29.791  18.072 -25.097  0.00  0.00    -0.271 OA
ATOM      8  C   UNL d   1      28.818  17.560 -24.748  0.00  0.00     0.019 C 
ATOM      9  C   UNL d   1      31.043  16.551 -23.739  0.00  0.00     0.018 A 
ATOM     10  C   UNL d   1      30.104  15.476 -22.921  0.00  0.00     0.002 A 
ATOM     11  C   UNL d   1      31.394  15.989 -23.246  0.00  0.00     0.002 A 
ATOM     12  C   UNL d   1      30.922  15.453 -22.838  0.00  0.00     0.000 A 
ENDROOT
BRANCH   1  13
ATOM     13  C   UNL d   1      31.093  17.470 -24.497  0.00  0.00     0.112 A 
ATOM     14  C   UNL d   1      32.405  16.920 -24.466  0.00  0.00     0.025 A 
ATOM     15  C   UNL d   1      31.922  17.551 -24.194  0.00  0.00     0.074 A 
ATOM     16  C   UNL d   1      32.087  16.322 -24.957  0.00  0.00     0.002 C 
ATOM     17  C   UNL d   1      33.152  17.076 -24.139  0.00  0.00     0.002 C 
ATOM     18  C   UNL d   1      32.677  17.702 -23.868  0.00  0.00     0.012 C 
ATOM     19  C   UNL d   1      31.274  17.222 -24.607  0.00  0.00    -0.023 A 
ATOM     20  C   UNL d   1      32.233  18.141 -23.711  0.00  0.00     0.172 A 
ATOM     21  C   UNL d   1      30.465  17.248 -24.833  0.00  0.00    -0.018 A 
ATOM     22  C   UNL d   1      31.425  18.167 -23.937  0.00  0.00     0.024 A 
ATOM     23  O   UNL d   1      32.885  18.467 -23.299  0.00  0.00    -0.291 OA
ENDBRANCH   1  13
TORSDOF 1
ENDMDL
MODEL 2
REMARK VINA RESULT:      -3.8      0.974      2.701
REMARK  1 active torsions:
REMARK  status: ('A' for Active; 'I' for Inactive)
REMARK    1  A    between atoms: C_2  and  C_1 
REMARK       I    between atoms: N_3  and  C_2 
ROOT
ATOM      1  C   UNL d   1      30.347  17.617 -24.684  0.00  0.00     0.248 C 
ATOM      2  N   UNL d   1      31.075  17.419 -24.338  0.00  0.00    -0.278 N 
ATOM      3  C   UNL d   1      31.645  17.888 -24.444  0.00  0.00     0.067 A 
ATOM      4  C   UNL d   1      31.111  16.816 -23.963  0.00  0.00     0.067 A 
ATOM      5  C   UNL d   1      31.840  16.651 -23.636  0.00  0.00     0.018 A 
ATOM      6  C   UNL d   1      32.309  17.738 -24.146  0.00  0.00     0.019 A 
ATOM      7  O   UNL d   1      30.424  18.340 -25.097  0.00  0.00    -0.271 OA
ATOM      8  C   UNL d   1      31.539  18.504 -24.849  0.00  0.00     0.019 C 
ATOM      9  C   UNL d   1      30.478  16.300 -23.848  0.00  0.00     0.018 A 
ATOM     10  C   UNL d   1      31.950  15.971 -23.191  0.00  0.00     0.002 A 
ATOM     11  C   UNL d   1      30.585  15.615 -23.400  0.00  0.00     0.002 A 
ATOM     12  C   UNL d   1      31.323  15.453 -23.073  0.00  0.00     0.000 A 
ENDROOT
BRANCH   1  13
ATOM     13  C   UNL d   1      29.811  17.041 -24.503  0.00  0.00     0.112 A 
ATOM     14  C   UNL d   1      29.111  15.804 -24.456  0.00  0.00     0.025 A 
ATOM     15  C   UNL d   1      29.129  16.589 -24.162  0.00  0.00     0.074 A 
ATOM     16  C   UNL d   1      29.690  15.539 -24.998  0.00  0.00     0.002 C 
ATOM     17  C   UNL d   1      28.450  15.460 -24.088  0.00  0.00     0.002 C 
ATOM     18  C   UNL d   1      28.465  16.238 -23.795  0.00  0.00     0.012 C 
ATOM     19  C   UNL d   1      29.811  16.737 -24.622  0.00  0.00    -0.023 A 
ATOM     20  C   UNL d   1      28.560  16.852 -23.628  0.00  0.00     0.172 A 
ATOM     21  C   UNL d   1      30.418  17.259 -24.878  0.00  0.00    -0.018 A 
ATOM     22  C   UNL d   1      29.166  17.373 -23.884  0.00  0.00     0.024 A 
ATOM     23  O   UNL d   1      27.876  16.700 -23.168  0.00  0.00    -0.291 OA
ENDBRANCH   1  13
TORSDOF 1
ENDMDL
MODEL 3
REMARK VINA RESULT:      -3.8      1.296      3.196
REMARK  1 active torsions:
REMARK  status: ('A' for Active; 'I' for Inactive)
REMARK    1  A    between atoms: C_2  and  C_1 
REMARK       I    between atoms: N_3  and  C_2 
ROOT
ATOM      1  C   UNL d   1      31.688  15.910 -23.405  0.00  0.00     0.248 C 
ATOM      2  N   UNL d   1      31.953  16.635 -23.711  0.00  0.00    -0.278 N 
ATOM      3  C   UNL d   1      32.647  16.846 -23.541  0.00  0.00     0.067 A 
ATOM      4  C   UNL d   1      31.502  17.009 -24.115  0.00  0.00     0.067 A 
ATOM      5  C   UNL d   1      31.794  17.716 -24.399  0.00  0.00     0.018 A 
ATOM      6  C   UNL d   1      32.912  17.490 -23.800  0.00  0.00     0.019 A 
ATOM      7  O   UNL d   1      32.297  15.563 -22.950  0.00  0.00    -0.271 OA
ATOM      8  C   UNL d   1      33.068  16.406 -23.112  0.00  0.00     0.019 C 
ATOM      9  C   UNL d   1      30.735  16.771 -24.300  0.00  0.00     0.018 A 
ATOM     10  C   UNL d   1      31.326  18.196 -24.871  0.00  0.00     0.002 A 
ATOM     11  C   UNL d   1      30.261  17.252 -24.775  0.00  0.00     0.002 A 
ATOM     12  C   UNL d   1      30.559  17.965 -25.059  0.00  0.00     0.000 A 
ENDROOT
BRANCH   1  13
ATOM     13  C   UNL d   1      30.930  15.788 -23.653  0.00  0.00     0.112 A 
ATOM     14  C   UNL d   1      29.792  15.520 -24.465  0.00  0.00     0.025 A 
ATOM     15  C   UNL d   1      30.048  15.697 -23.685  0.00  0.00     0.074 A 
ATOM     16  C   UNL d   1      30.345  15.452 -25.089  0.00  0.00     0.002 C 
ATOM     17  C   UNL d   1      28.967  15.453 -24.401  0.00  0.00     0.002 C 
ATOM     18  C   UNL d   1      29.217  15.627 -23.628  0.00  0.00     0.012 C 
ATOM     19  C   UNL d   1      30.838  15.720 -23.958  0.00  0.00    -0.023 A 
ATOM     20  C   UNL d   1      29.506  15.764 -23.069  0.00  0.00     0.172 A 
ATOM     21  C   UNL d   1      31.657  15.829 -23.809  0.00  0.00    -0.018 A 
ATOM     22  C   UNL d   1      30.324  15.872 -22.920  0.00  0.00     0.024 A 
ATOM     23  O   UNL d   1      28.713  15.740 -22.799  0.00  0.00    -0.291 OA
ENDBRANCH   1  13
TORSDOF 1
ENDMDL
MODEL 4
REMARK VINA RESULT:      -3.8      1.425      2.511
REMARK  1 active torsions:
REMARK  status: ('A' for Active; 'I' for Inactive)
REMARK    1  A    between atoms: C_2  and  C_1 
REMARK       I    between atoms: N_3  and  C_2 
ROOT
ATOM      1  C   UNL d   1      32.845  16.835 -23.399  0.00  0.00     0.248 C 
ATOM      2  N   UNL d   1      32.105  16.569 -23.663  0.00  0.00    -0.278 N 
ATOM      3  C   UNL d   1      31.906  15.874 -23.484  0.00  0.00     0.067 A 
ATOM      4  C   UNL d   1      31.707  17.019 -24.044  0.00  0.00     0.067 A 
ATOM      5  C   UNL d   1      30.986  16.726 -24.287  0.00  0.00     0.018 A 
ATOM      6  C   UNL d   1      31.249  15.607 -23.706  0.00  0.00     0.019 A 
ATOM      7  O   UNL d   1      33.221  16.226 -22.966  0.00  0.00    -0.271 OA
ATOM      8  C   UNL d   1      32.371  15.453 -23.082  0.00  0.00     0.019 C 
ATOM      9  C   UNL d   1      31.931  17.788 -24.240  0.00  0.00     0.018 A 
ATOM     10  C   UNL d   1      30.478  17.194 -24.730  0.00  0.00     0.002 A 
ATOM     11  C   UNL d   1      31.422  18.261 -24.685  0.00  0.00     0.002 A 
ATOM     12  C   UNL d   1      30.695  17.961 -24.929  0.00  0.00     0.000 A 
ENDROOT
BRANCH   1  13
ATOM     13  C   UNL d   1      32.950  17.594 -23.652  0.00  0.00     0.112 A 
ATOM     14  C   UNL d   1      33.182  18.733 -24.472  0.00  0.00     0.025 A 
ATOM     15  C   UNL d   1      33.029  18.477 -23.688  0.00  0.00     0.074 A 
ATOM     16  C   UNL d   1      33.240  18.180 -25.097  0.00  0.00     0.002 C 
ATOM     17  C   UNL d   1      33.240  19.560 -24.412  0.00  0.00     0.002 C 
ATOM     18  C   UNL d   1      33.089  19.309 -23.634  0.00  0.00     0.012 C 
ATOM     19  C   UNL d   1      33.009  17.686 -23.959  0.00  0.00    -0.023 A 
ATOM     20  C   UNL d   1      32.971  19.019 -23.072  0.00  0.00     0.172 A 
ATOM     21  C   UNL d   1      32.916  16.866 -23.806  0.00  0.00    -0.018 A 
ATOM     22  C   UNL d   1      32.878  18.200 -22.918  0.00  0.00     0.024 A 
ATOM     23  O   UNL d   1      32.992  19.814 -22.804  0.00  0.00    -0.291 OA
ENDBRANCH   1  13
TORSDOF 1
ENDMDL
MODEL 5
REMARK VINA RESULT:      -2.8      1.021      1.693
REMARK  1 active torsions:
REMARK  status: ('A' for Active; 'I' for Inactive)
REMARK    1  A    between atoms: C_2  and  C_1 
REMARK       I    between atoms: N_3  and  C_2 
ROOT
ATOM      1  C   UNL d   1      30.921  17.473 -24.372  0.00  0.00     0.248 C 
ATOM      2  N   UNL d   1      31.081  16.673 -24.222  0.00  0.00    -0.278 N 
ATOM      3  C   UNL d   1      30.550  16.178 -24.391  0.00  0.00     0.067 A 
ATOM      4  C   UNL d   1      31.714  16.508 -23.942  0.00  0.00     0.067 A 
ATOM      5  C   UNL d   1      31.840  15.714 -23.807  0.00  0.00     0.018 A 
ATOM      6  C   UNL d   1      30.665  15.454 -24.268  0.00  0.00     0.019 A 
ATOM      7  O   UNL d   1      30.154  17.545 -24.698  0.00  0.00    -0.271 OA
ATOM      8  C   UNL d   1      29.908  16.419 -24.683  0.00  0.00     0.019 C 
ATOM      9  C   UNL d   1      32.300  17.059 -23.757  0.00  0.00     0.018 A 
ATOM     10  C   UNL d   1      32.549  15.456 -23.486  0.00  0.00     0.002 A 
ATOM     11  C   UNL d   1      33.014  16.803 -23.433  0.00  0.00     0.002 A 
ATOM     12  C   UNL d   1      33.136  16.000 -23.299  0.00  0.00     0.000 A 
ENDROOT
BRANCH   1  13
ATOM     13  C   UNL d   1      31.563  17.910 -24.152  0.00  0.00     0.112 A 
ATOM     14  C   UNL d   1      32.581  18.532 -23.376  0.00  0.00     0.025 A 
ATOM     15  C   UNL d   1      32.277  18.436 -24.153  0.00  0.00     0.074 A 
ATOM     16  C   UNL d   1      32.215  18.155 -22.726  0.00  0.00     0.002 C 
ATOM     17  C   UNL d   1      33.238  19.032 -23.472  0.00  0.00     0.002 C 
ATOM     18  C   UNL d   1      32.939  18.939 -24.242  0.00  0.00     0.012 C 
ATOM     19  C   UNL d   1      31.675  17.942 -23.847  0.00  0.00    -0.023 A 
ATOM     20  C   UNL d   1      32.636  18.806 -24.794  0.00  0.00     0.172 A 
ATOM     21  C   UNL d   1      30.997  17.462 -23.966  0.00  0.00    -0.018 A 
ATOM     22  C   UNL d   1      31.958  18.327 -24.913  0.00  0.00     0.024 A 
ATOM     23  O   UNL d   1      33.241  19.302 -25.097  0.00  0.00    -0.291 OA
ENDBRANCH   1  13
TORSDOF 1
ENDMDL
MODEL 6
REMARK VINA RESULT:      -1.3      4.807      6.409
REMARK  1 active torsions:
REMARK  status: ('A' for Active; 'I' for Inactive)
REMARK    1  A    between atoms: C_2  and  C_1 
REMARK       I    between atoms: N_3  and  C_2 
ROOT
ATOM      1  C   UNL d   1      32.615  21.036 -21.615  0.00  0.00     0.248 C 
ATOM      2  N   UNL d   1      32.863  21.317 -22.355  0.00  0.00    -0.278 N 
ATOM      3  C   UNL d   1      33.016  20.812 -22.881  0.00  0.00     0.067 A 
ATOM      4  C   UNL d   1      32.914  22.021 -22.442  0.00  0.00     0.067 A 
ATOM      5  C   UNL d   1      33.160  22.264 -23.181  0.00  0.00     0.018 A 
ATOM      6  C   UNL d   1      33.240  21.033 -23.554  0.00  0.00     0.019 A 
ATOM      7  O   UNL d   1      32.592  20.200 -21.630  0.00  0.00    -0.271 OA
ATOM      8  C   UNL d   1      32.942  20.088 -22.724  0.00  0.00     0.019 C 
ATOM      9  C   UNL d   1      32.744  22.577 -21.858  0.00  0.00     0.018 A 
ATOM     10  C   UNL d   1      33.241  23.063 -23.349  0.00  0.00     0.002 A 
ATOM     11  C   UNL d   1      32.823  23.382 -22.022  0.00  0.00     0.002 A 
ATOM     12  C   UNL d   1      33.072  23.622 -22.770  0.00  0.00     0.000 A 
ENDROOT
BRANCH   1  13
ATOM     13  C   UNL d   1      32.480  21.668 -21.132  0.00  0.00     0.112 A 
ATOM     14  C   UNL d   1      31.955  22.872 -20.585  0.00  0.00     0.025 A 
ATOM     15  C   UNL d   1      32.510  22.254 -20.467  0.00  0.00     0.074 A 
ATOM     16  C   UNL d   1      31.464  22.880 -21.262  0.00  0.00     0.002 C 
ATOM     17  C   UNL d   1      32.052  23.367 -19.925  0.00  0.00     0.002 C 
ATOM     18  C   UNL d   1      32.603  22.756 -19.805  0.00  0.00     0.012 C 
ATOM     19  C   UNL d   1      32.262  21.905 -21.185  0.00  0.00    -0.023 A 
ATOM     20  C   UNL d   1      32.995  22.245 -19.801  0.00  0.00     0.172 A 
ATOM     21  C   UNL d   1      32.321  21.291 -21.755  0.00  0.00    -0.018 A 
ATOM     22  C   UNL d   1      33.054  21.632 -20.370  0.00  0.00     0.024 A 
ATOM     23  O   UNL d   1      33.241  22.598 -19.082  0.00  0.00    -0.291 OA
ENDBRANCH   1  13
TORSDOF 1
ENDMDL
