MODEL 1
REMARK VINA RESULT:      20.9      0.000      0.000
REMARK  3 active torsions:
REMARK  status: ('A' for Active; 'I' for Inactive)
REMARK    1  A    between atoms: N_2  and  C_1 
REMARK    2  A    between atoms: C_4  and  C_1 
REMARK       I    between atoms: C_3  and  N_2 
REMARK       I    between atoms: N_5  and  C_3 
REMARK       I    between atoms: C_6  and  N_5 
REMARK    3  A    between atoms: C_11  and  C_6 
ROOT
ATOM      1  N   UNL d   1      45.224 -13.969  44.173  0.00  0.00    -0.159 NA
ATOM      2  C   UNL d   1      45.857 -14.103  44.700  0.00  0.00     0.371 C 
ATOM      3  N   UNL d   1      46.333 -13.472  44.946  0.00  0.00    -0.152 NA
ATOM      4  C   UNL d   1      46.180 -12.700  44.668  0.00  0.00     0.283 C 
ATOM      5  O   UNL d   1      45.987 -14.848  44.955  0.00  0.00    -0.243 OA
ATOM      6  O   UNL d   1      46.647 -12.081  44.909  0.00  0.00    -0.265 OA
ENDROOT
BRANCH   1   7
ATOM      7  C   UNL d   1      44.747 -14.597  43.926  0.00  0.00     0.386 A 
ATOM      8  O   UNL d   1      45.577 -14.566  43.875  0.00  0.00    -0.281 OA
ATOM      9  C   UNL d   1      45.837 -15.267  43.537  0.00  0.00     0.147 A 
ATOM     10  C   UNL d   1      45.187 -15.727  43.379  0.00  0.00     0.147 A 
ATOM     11  O   UNL d   1      44.515 -15.291  43.629  0.00  0.00    -0.281 OA
BRANCH   7  12
ATOM     12  C   UNL d   1      43.959 -14.392  44.081  0.00  0.00     0.470 C 
ATOM     13  F   UNL d   1      43.890 -14.082  43.314  0.00  0.00    -0.164 F 
ATOM     14  F   UNL d   1      44.043 -14.708  44.849  0.00  0.00    -0.164 F 
ATOM     15  F   UNL d   1      43.162 -14.188  44.248  0.00  0.00    -0.164 F 
ENDBRANCH   7  12
ENDBRANCH   1   7
BRANCH   4  16
ATOM     16  C   UNL d   1      45.562 -12.557  44.151  0.00  0.00     0.058 A 
ATOM     17  C   UNL d   1      45.672 -12.642  43.338  0.00  0.00     0.005 A 
ATOM     18  C   UNL d   1      45.056 -12.500  42.810  0.00  0.00     0.000 A 
ATOM     19  C   UNL d   1      44.318 -12.270  43.112  0.00  0.00     0.000 A 
ATOM     20  C   UNL d   1      44.205 -12.185  43.924  0.00  0.00     0.000 A 
ATOM     21  C   UNL d   1      44.820 -12.327  44.435  0.00  0.00     0.005 A 
ENDBRANCH   4  16
TORSDOF 3
ENDMDL
MODEL 2
REMARK VINA RESULT:      21.6      1.302      2.384
REMARK  3 active torsions:
REMARK  status: ('A' for Active; 'I' for Inactive)
REMARK    1  A    between atoms: N_2  and  C_1 
REMARK    2  A    between atoms: C_4  and  C_1 
REMARK       I    between atoms: C_3  and  N_2 
REMARK       I    between atoms: N_5  and  C_3 
REMARK       I    between atoms: C_6  and  N_5 
REMARK    3  A    between atoms: C_11  and  C_6 
ROOT
ATOM      1  N   UNL d   1      45.399 -13.220  43.522  0.00  0.00    -0.159 NA
ATOM      2  C   UNL d   1      46.221 -13.128  43.632  0.00  0.00     0.371 C 
ATOM      3  N   UNL d   1      46.639 -13.658  44.111  0.00  0.00    -0.152 NA
ATOM      4  C   UNL d   1      46.238 -14.288  44.484  0.00  0.00     0.283 C 
ATOM      5  O   UNL d   1      46.586 -12.519  43.267  0.00  0.00    -0.243 OA
ATOM      6  O   UNL d   1      46.646 -14.809  44.954  0.00  0.00    -0.265 OA
ENDROOT
BRANCH   1   7
ATOM      7  C   UNL d   1      44.980 -12.691  43.045  0.00  0.00     0.386 A 
ATOM      8  O   UNL d   1      45.658 -13.119  42.820  0.00  0.00    -0.281 OA
ATOM      9  C   UNL d   1      45.835 -12.922  42.044  0.00  0.00     0.147 A 
ATOM     10  C   UNL d   1      45.283 -12.385  41.786  0.00  0.00     0.147 A 
ATOM     11  O   UNL d   1      44.757 -12.254  42.427  0.00  0.00    -0.281 OA
BRANCH   7  12
ATOM     12  C   UNL d   1      44.348 -12.395  43.492  0.00  0.00     0.470 C 
ATOM     13  F   UNL d   1      43.821 -12.610  42.888  0.00  0.00    -0.164 F 
ATOM     14  F   UNL d   1      44.890 -12.184  44.091  0.00  0.00    -0.164 F 
ATOM     15  F   UNL d   1      43.715 -12.092  43.953  0.00  0.00    -0.164 F 
ENDBRANCH   7  12
ENDBRANCH   1   7
BRANCH   4  16
ATOM     16  C   UNL d   1      45.431 -14.388  44.383  0.00  0.00     0.058 A 
ATOM     17  C   UNL d   1      44.903 -14.093  44.943  0.00  0.00     0.005 A 
ATOM     18  C   UNL d   1      44.090 -14.189  44.851  0.00  0.00     0.000 A 
ATOM     19  C   UNL d   1      43.811 -14.590  44.180  0.00  0.00     0.000 A 
ATOM     20  C   UNL d   1      44.337 -14.887  43.619  0.00  0.00     0.000 A 
ATOM     21  C   UNL d   1      45.136 -14.786  43.721  0.00  0.00     0.005 A 
ENDBRANCH   4  16
TORSDOF 3
ENDMDL
MODEL 3
REMARK VINA RESULT:      21.6      1.385      2.126
REMARK  3 active torsions:
REMARK  status: ('A' for Active; 'I' for Inactive)
REMARK    1  A    between atoms: N_2  and  C_1 
REMARK    2  A    between atoms: C_4  and  C_1 
REMARK       I    between atoms: C_3  and  N_2 
REMARK       I    between atoms: N_5  and  C_3 
REMARK       I    between atoms: C_6  and  N_5 
REMARK    3  A    between atoms: C_11  and  C_6 
ROOT
ATOM      1  N   UNL d   1      45.030 -13.740  43.824  0.00  0.00    -0.159 NA
ATOM      2  C   UNL d   1      44.809 -13.905  43.037  0.00  0.00     0.371 C 
ATOM      3  N   UNL d   1      44.954 -13.351  42.440  0.00  0.00    -0.152 NA
ATOM      4  C   UNL d   1      45.322 -12.625  42.623  0.00  0.00     0.283 C 
ATOM      5  O   UNL d   1      44.458 -14.605  42.881  0.00  0.00    -0.243 OA
ATOM      6  O   UNL d   1      45.465 -12.081  42.038  0.00  0.00    -0.265 OA
ENDROOT
BRANCH   1   7
ATOM      7  C   UNL d   1      44.887 -14.291  44.423  0.00  0.00     0.386 A 
ATOM      8  O   UNL d   1      44.312 -13.828  44.038  0.00  0.00    -0.281 OA
ATOM      9  C   UNL d   1      43.580 -14.017  44.357  0.00  0.00     0.147 A 
ATOM     10  C   UNL d   1      43.691 -14.583  44.929  0.00  0.00     0.147 A 
ATOM     11  O   UNL d   1      44.515 -14.741  44.954  0.00  0.00    -0.281 OA
BRANCH   7  12
ATOM     12  C   UNL d   1      45.615 -14.620  44.643  0.00  0.00     0.470 C 
ATOM     13  F   UNL d   1      45.377 -15.352  44.330  0.00  0.00    -0.164 F 
ATOM     14  F   UNL d   1      45.840 -13.878  44.952  0.00  0.00    -0.164 F 
ATOM     15  F   UNL d   1      46.356 -14.943  44.869  0.00  0.00    -0.164 F 
ENDBRANCH   7  12
ENDBRANCH   1   7
BRANCH   4  16
ATOM     16  C   UNL d   1      45.544 -12.452  43.393  0.00  0.00     0.058 A 
ATOM     17  C   UNL d   1      44.972 -12.272  43.959  0.00  0.00     0.005 A 
ATOM     18  C   UNL d   1      45.184 -12.097  44.735  0.00  0.00     0.000 A 
ATOM     19  C   UNL d   1      45.989 -12.104  44.939  0.00  0.00     0.000 A 
ATOM     20  C   UNL d   1      46.563 -12.283  44.374  0.00  0.00     0.000 A 
ATOM     21  C   UNL d   1      46.341 -12.454  43.612  0.00  0.00     0.005 A 
ENDBRANCH   4  16
TORSDOF 3
ENDMDL
MODEL 4
REMARK VINA RESULT:      23.1      6.325      7.112
REMARK  3 active torsions:
REMARK  status: ('A' for Active; 'I' for Inactive)
REMARK    1  A    between atoms: N_2  and  C_1 
REMARK    2  A    between atoms: C_4  and  C_1 
REMARK       I    between atoms: C_3  and  N_2 
REMARK       I    between atoms: N_5  and  C_3 
REMARK       I    between atoms: C_6  and  N_5 
REMARK    3  A    between atoms: C_11  and  C_6 
ROOT
ATOM      1  N   UNL d   1      44.538 -15.182  37.411  0.00  0.00    -0.159 NA
ATOM      2  C   UNL d   1      44.051 -14.653  37.834  0.00  0.00     0.371 C 
ATOM      3  N   UNL d   1      44.362 -13.942  38.123  0.00  0.00    -0.152 NA
ATOM      4  C   UNL d   1      45.164 -13.753  37.991  0.00  0.00     0.283 C 
ATOM      5  O   UNL d   1      43.287 -14.852  37.949  0.00  0.00    -0.243 OA
ATOM      6  O   UNL d   1      45.470 -13.057  38.274  0.00  0.00    -0.265 OA
ENDROOT
BRANCH   1   7
ATOM      7  C   UNL d   1      44.231 -15.893  37.122  0.00  0.00     0.386 A 
ATOM      8  O   UNL d   1      43.930 -15.132  36.968  0.00  0.00    -0.281 OA
ATOM      9  C   UNL d   1      43.276 -15.213  36.480  0.00  0.00     0.147 A 
ATOM     10  C   UNL d   1      43.168 -16.004  36.330  0.00  0.00     0.147 A 
ATOM     11  O   UNL d   1      43.775 -16.412  36.741  0.00  0.00    -0.281 OA
BRANCH   7  12
ATOM     12  C   UNL d   1      44.702 -16.509  37.414  0.00  0.00     0.470 C 
ATOM     13  F   UNL d   1      44.982 -16.656  36.646  0.00  0.00    -0.164 F 
ATOM     14  F   UNL d   1      44.411 -16.349  38.180  0.00  0.00    -0.164 F 
ATOM     15  F   UNL d   1      45.175 -17.131  37.720  0.00  0.00    -0.164 F 
ENDBRANCH   7  12
ENDBRANCH   1   7
BRANCH   4  16
ATOM     16  C   UNL d   1      45.652 -14.266  37.578  0.00  0.00     0.058 A 
ATOM     17  C   UNL d   1      45.701 -14.220  36.756  0.00  0.00     0.005 A 
ATOM     18  C   UNL d   1      46.188 -14.730  36.331  0.00  0.00     0.000 A 
ATOM     19  C   UNL d   1      46.631 -15.295  36.747  0.00  0.00     0.000 A 
ATOM     20  C   UNL d   1      46.584 -15.343  37.569  0.00  0.00     0.000 A 
ATOM     21  C   UNL d   1      46.101 -14.834  37.977  0.00  0.00     0.005 A 
ENDBRANCH   4  16
TORSDOF 3
ENDMDL
MODEL 5
REMARK VINA RESULT:      23.6      4.657      5.793
REMARK  3 active torsions:
REMARK  status: ('A' for Active; 'I' for Inactive)
REMARK    1  A    between atoms: N_2  and  C_1 
REMARK    2  A    between atoms: C_4  and  C_1 
REMARK       I    between atoms: C_3  and  N_2 
REMARK       I    between atoms: N_5  and  C_3 
REMARK       I    between atoms: C_6  and  N_5 
REMARK    3  A    between atoms: C_11  and  C_6 
ROOT
ATOM      1  N   UNL d   1      46.152 -19.081  43.036  0.00  0.00    -0.159 NA
ATOM      2  C   UNL d   1      46.485 -19.845  43.072  0.00  0.00     0.371 C 
ATOM      3  N   UNL d   1      46.646 -20.261  42.375  0.00  0.00    -0.152 NA
ATOM      4  C   UNL d   1      46.476 -19.917  41.634  0.00  0.00     0.283 C 
ATOM      5  O   UNL d   1      46.641 -20.157  43.790  0.00  0.00    -0.243 OA
ATOM      6  O   UNL d   1      46.634 -20.325  40.950  0.00  0.00    -0.265 OA
ENDROOT
BRANCH   1   7
ATOM      7  C   UNL d   1      45.991 -18.663  43.731  0.00  0.00     0.386 A 
ATOM      8  O   UNL d   1      46.167 -19.475  43.680  0.00  0.00    -0.281 OA
ATOM      9  C   UNL d   1      46.151 -19.785  44.439  0.00  0.00     0.147 A 
ATOM     10  C   UNL d   1      45.970 -19.184  44.954  0.00  0.00     0.147 A 
ATOM     11  O   UNL d   1      45.873 -18.491  44.492  0.00  0.00    -0.281 OA
BRANCH   7  12
ATOM     12  C   UNL d   1      45.847 -17.874  43.522  0.00  0.00     0.470 C 
ATOM     13  F   UNL d   1      46.645 -17.785  43.312  0.00  0.00    -0.164 F 
ATOM     14  F   UNL d   1      45.047 -17.978  43.737  0.00  0.00    -0.164 F 
ATOM     15  F   UNL d   1      45.691 -17.076  43.314  0.00  0.00    -0.164 F 
ENDBRANCH   7  12
ENDBRANCH   1   7
BRANCH   4  16
ATOM     16  C   UNL d   1      46.149 -19.168  41.587  0.00  0.00     0.058 A 
ATOM     17  C   UNL d   1      45.331 -19.069  41.613  0.00  0.00     0.005 A 
ATOM     18  C   UNL d   1      44.992 -18.320  41.566  0.00  0.00     0.000 A 
ATOM     19  C   UNL d   1      45.493 -17.662  41.492  0.00  0.00     0.000 A 
ATOM     20  C   UNL d   1      46.311 -17.757  41.466  0.00  0.00     0.000 A 
ATOM     21  C   UNL d   1      46.633 -18.501  41.513  0.00  0.00     0.005 A 
ENDBRANCH   4  16
TORSDOF 3
ENDMDL
