MODEL 1
REMARK VINA RESULT:      60.3      0.000      0.000
REMARK  8 active torsions:
REMARK  status: ('A' for Active; 'I' for Inactive)
REMARK    1  A    between atoms: C_5  and  C_1 
REMARK    2  A    between atoms: N_6  and  C_2 
REMARK    3  A    between atoms: C_7  and  C_5 
REMARK    4  A    between atoms: C_8  and  C_5 
REMARK    5  A    between atoms: O_13  and  C_7 
REMARK    6  A    between atoms: C_12  and  C_16 
REMARK    7  A    between atoms: C_22  and  O_13 
REMARK    8  A    between atoms: C_25  and  C_22 
ROOT
ATOM      1  C   UNL d   1      15.185  17.838  -5.047  0.00  0.00     0.296 C 
ATOM      2  O   UNL d   1      15.955  17.926  -5.341  0.00  0.00    -0.259 OA
ATOM      3  O   UNL d   1      14.610  18.398  -5.235  0.00  0.00    -0.296 OA
ATOM      4  C   UNL d   1      14.035  18.959  -5.424  0.00  0.00     0.185 C 
ENDROOT
BRANCH   1   5
ATOM      5  C   UNL d   1      14.999  17.193  -4.569  0.00  0.00     0.065 A 
ATOM      6  C   UNL d   1      14.894  16.644  -3.868  0.00  0.00     0.018 A 
ATOM      7  C   UNL d   1      14.468  15.882  -4.423  0.00  0.00     0.057 A 
ATOM      8  N   UNL d   1      14.243  15.280  -4.250  0.00  0.00    -0.192 NA
ATOM      9  C   UNL d   1      14.325  15.761  -4.917  0.00  0.00     0.057 A 
ATOM     10  C   UNL d   1      14.782  16.592  -4.353  0.00  0.00     0.018 A 
BRANCH   8  11
ATOM     11  C   UNL d   1      13.922  14.519  -4.236  0.00  0.00     0.145 A 
ATOM     12  C   UNL d   1      13.805  14.307  -3.452  0.00  0.00     0.117 A 
ATOM     13  N   UNL d   1      13.487  13.566  -3.269  0.00  0.00    -0.241 NA
ATOM     14  C   UNL d   1      13.288  13.044  -3.865  0.00  0.00     0.099 A 
ATOM     15  C   UNL d   1      13.404  13.254  -4.661  0.00  0.00     0.100 A 
ATOM     16  C   UNL d   1      12.972  12.311  -3.687  0.00  0.00     0.021 A 
ATOM     17  C   UNL d   1      13.203  12.727  -5.266  0.00  0.00     0.021 A 
ATOM     18  N   UNL d   1      13.722  13.994  -4.844  0.00  0.00    -0.230 NA
ATOM     19  C   UNL d   1      12.888  11.996  -5.076  0.00  0.00     0.002 A 
ATOM     20  C   UNL d   1      12.769  11.780  -4.286  0.00  0.00     0.002 A 
BRANCH  12  21
ATOM     21  C   UNL d   1      14.054  14.935  -2.977  0.00  0.00     0.104 C 
BRANCH  21  22
ATOM     22  C   UNL d   1      14.570  14.880  -2.325  0.00  0.00     0.303 C 
ATOM     23  O   UNL d   1      15.278  15.301  -2.326  0.00  0.00    -0.259 OA
BRANCH  22  24
ATOM     24  O   UNL d   1      14.368  14.405  -1.681  0.00  0.00    -0.271 OA
BRANCH  24  25
ATOM     25  C   UNL d   1      14.928  13.902  -1.347  0.00  0.00     0.126 C 
BRANCH  25  26
ATOM     26  C   UNL d   1      15.141  13.986  -0.557  0.00  0.00     0.025 C 
ATOM     27  C   UNL d   1      14.599  14.279  -0.015  0.00  0.00     0.002 C 
ATOM     28  C   UNL d   1      15.900  13.776  -0.311  0.00  0.00     0.002 C 
ENDBRANCH  25  26
ENDBRANCH  24  25
ENDBRANCH  22  24
ENDBRANCH  21  22
BRANCH  21  29
ATOM     29  C   UNL d   1      13.704  15.624  -3.257  0.00  0.00     0.129 C 
ATOM     30  N   UNL d   1      13.367  16.227  -2.799  0.00  0.00    -0.146 N 
ENDBRANCH  21  29
ENDBRANCH  12  21
ENDBRANCH   8  11
ENDBRANCH   1   5
TORSDOF 8
ENDMDL
MODEL 2
REMARK VINA RESULT:      60.5      1.609      3.618
REMARK  8 active torsions:
REMARK  status: ('A' for Active; 'I' for Inactive)
REMARK    1  A    between atoms: C_5  and  C_1 
REMARK    2  A    between atoms: N_6  and  C_2 
REMARK    3  A    between atoms: C_7  and  C_5 
REMARK    4  A    between atoms: C_8  and  C_5 
REMARK    5  A    between atoms: O_13  and  C_7 
REMARK    6  A    between atoms: C_12  and  C_16 
REMARK    7  A    between atoms: C_22  and  O_13 
REMARK    8  A    between atoms: C_25  and  C_22 
ROOT
ATOM      1  C   UNL d   1      14.391  19.544  -5.952  0.00  0.00     0.296 C 
ATOM      2  O   UNL d   1      15.050  19.858  -6.344  0.00  0.00    -0.259 OA
ATOM      3  O   UNL d   1      13.692  19.980  -5.914  0.00  0.00    -0.296 OA
ATOM      4  C   UNL d   1      12.993  20.416  -5.877  0.00  0.00     0.185 C 
ENDROOT
BRANCH   1   5
ATOM      5  C   UNL d   1      14.437  18.799  -5.603  0.00  0.00     0.065 A 
ATOM      6  C   UNL d   1      14.438  17.913  -5.464  0.00  0.00     0.018 A 
ATOM      7  C   UNL d   1      14.641  17.990  -4.452  0.00  0.00     0.057 A 
ATOM      8  N   UNL d   1      14.720  17.527  -3.979  0.00  0.00    -0.192 NA
ATOM      9  C   UNL d   1      14.727  18.347  -4.074  0.00  0.00     0.057 A 
ATOM     10  C   UNL d   1      14.511  18.300  -5.155  0.00  0.00     0.018 A 
BRANCH   8  11
ATOM     11  C   UNL d   1      14.847  17.117  -3.274  0.00  0.00     0.145 A 
ATOM     12  C   UNL d   1      14.940  16.322  -3.454  0.00  0.00     0.117 A 
ATOM     13  N   UNL d   1      15.076  15.776  -2.849  0.00  0.00    -0.241 NA
ATOM     14  C   UNL d   1      15.119  16.024  -2.072  0.00  0.00     0.099 A 
ATOM     15  C   UNL d   1      15.026  16.828  -1.883  0.00  0.00     0.100 A 
ATOM     16  C   UNL d   1      15.254  15.485  -1.470  0.00  0.00     0.021 A 
ATOM     17  C   UNL d   1      15.070  17.080  -1.097  0.00  0.00     0.021 A 
ATOM     18  N   UNL d   1      14.890  17.374  -2.488  0.00  0.00    -0.230 NA
ATOM     19  C   UNL d   1      15.205  16.533  -0.504  0.00  0.00     0.002 A 
ATOM     20  C   UNL d   1      15.298  15.730  -0.684  0.00  0.00     0.002 A 
BRANCH  12  21
ATOM     21  C   UNL d   1      14.870  16.236  -4.273  0.00  0.00     0.104 C 
BRANCH  21  22
ATOM     22  C   UNL d   1      14.318  15.752  -4.667  0.00  0.00     0.303 C 
ATOM     23  O   UNL d   1      14.315  15.720  -5.490  0.00  0.00    -0.259 OA
BRANCH  22  24
ATOM     24  O   UNL d   1      13.777  15.307  -4.231  0.00  0.00    -0.271 OA
BRANCH  24  25
ATOM     25  C   UNL d   1      13.238  14.817  -4.616  0.00  0.00     0.126 C 
BRANCH  25  26
ATOM     26  C   UNL d   1      13.040  14.087  -4.294  0.00  0.00     0.025 C 
ATOM     27  C   UNL d   1      13.111  13.406  -4.746  0.00  0.00     0.002 C 
ATOM     28  C   UNL d   1      12.769  14.041  -3.515  0.00  0.00     0.002 C 
ENDBRANCH  25  26
ENDBRANCH  24  25
ENDBRANCH  22  24
ENDBRANCH  21  22
BRANCH  21  29
ATOM     29  C   UNL d   1      15.438  16.708  -4.631  0.00  0.00     0.129 C 
ATOM     30  N   UNL d   1      16.135  16.449  -4.998  0.00  0.00    -0.146 N 
ENDBRANCH  21  29
ENDBRANCH  12  21
ENDBRANCH   8  11
ENDBRANCH   1   5
TORSDOF 8
ENDMDL
MODEL 3
REMARK VINA RESULT:      62.0      1.585      4.042
REMARK  8 active torsions:
REMARK  status: ('A' for Active; 'I' for Inactive)
REMARK    1  A    between atoms: C_5  and  C_1 
REMARK    2  A    between atoms: N_6  and  C_2 
REMARK    3  A    between atoms: C_7  and  C_5 
REMARK    4  A    between atoms: C_8  and  C_5 
REMARK    5  A    between atoms: O_13  and  C_7 
REMARK    6  A    between atoms: C_12  and  C_16 
REMARK    7  A    between atoms: C_22  and  O_13 
REMARK    8  A    between atoms: C_25  and  C_22 
ROOT
ATOM      1  C   UNL d   1      13.178  12.505  -4.357  0.00  0.00     0.296 C 
ATOM      2  O   UNL d   1      12.999  11.939  -3.780  0.00  0.00    -0.259 OA
ATOM      3  O   UNL d   1      13.270  12.273  -5.143  0.00  0.00    -0.296 OA
ATOM      4  C   UNL d   1      13.363  12.042  -5.929  0.00  0.00     0.185 C 
ENDROOT
BRANCH   1   5
ATOM      5  C   UNL d   1      13.261  13.297  -4.144  0.00  0.00     0.065 A 
ATOM      6  C   UNL d   1      13.313  14.061  -3.677  0.00  0.00     0.018 A 
ATOM      7  C   UNL d   1      13.487  14.653  -4.507  0.00  0.00     0.057 A 
ATOM      8  N   UNL d   1      13.584  15.309  -4.572  0.00  0.00    -0.192 NA
ATOM      9  C   UNL d   1      13.542  14.624  -5.031  0.00  0.00     0.057 A 
ATOM     10  C   UNL d   1      13.355  13.965  -4.166  0.00  0.00     0.018 A 
BRANCH   8  11
ATOM     11  C   UNL d   1      13.719  16.074  -4.851  0.00  0.00     0.145 A 
ATOM     12  C   UNL d   1      14.308  16.413  -4.390  0.00  0.00     0.117 A 
ATOM     13  N   UNL d   1      14.559  17.185  -4.545  0.00  0.00    -0.241 NA
ATOM     14  C   UNL d   1      14.223  17.613  -5.155  0.00  0.00     0.099 A 
ATOM     15  C   UNL d   1      13.627  17.275  -5.625  0.00  0.00     0.100 A 
ATOM     16  C   UNL d   1      14.469  18.377  -5.311  0.00  0.00     0.021 A 
ATOM     17  C   UNL d   1      13.286  17.707  -6.242  0.00  0.00     0.021 A 
ATOM     18  N   UNL d   1      13.376  16.503  -5.470  0.00  0.00    -0.230 NA
ATOM     19  C   UNL d   1      13.540  18.471  -6.389  0.00  0.00     0.002 A 
ATOM     20  C   UNL d   1      14.134  18.814  -5.925  0.00  0.00     0.002 A 
BRANCH  12  21
ATOM     21  C   UNL d   1      14.540  15.858  -3.824  0.00  0.00     0.104 C 
BRANCH  21  22
ATOM     22  C   UNL d   1      14.342  15.875  -3.015  0.00  0.00     0.303 C 
ATOM     23  O   UNL d   1      13.551  15.899  -2.786  0.00  0.00    -0.259 OA
BRANCH  22  24
ATOM     24  O   UNL d   1      14.940  15.867  -2.446  0.00  0.00    -0.271 OA
BRANCH  24  25
ATOM     25  C   UNL d   1      14.900  16.370  -1.796  0.00  0.00     0.126 C 
BRANCH  25  26
ATOM     26  C   UNL d   1      15.271  16.166  -1.091  0.00  0.00     0.025 C 
ATOM     27  C   UNL d   1      15.555  16.752  -0.592  0.00  0.00     0.002 C 
ATOM     28  C   UNL d   1      15.357  15.371  -0.886  0.00  0.00     0.002 C 
ENDBRANCH  25  26
ENDBRANCH  24  25
ENDBRANCH  22  24
ENDBRANCH  21  22
BRANCH  21  29
ATOM     29  C   UNL d   1      14.999  15.287  -4.195  0.00  0.00     0.129 C 
ATOM     30  N   UNL d   1      15.827  15.273  -4.238  0.00  0.00    -0.146 N 
ENDBRANCH  21  29
ENDBRANCH  12  21
ENDBRANCH   8  11
ENDBRANCH   1   5
TORSDOF 8
ENDMDL
