MODEL 1
REMARK VINA RESULT:      83.9      0.000      0.000
REMARK  4 active torsions:
REMARK  status: ('A' for Active; 'I' for Inactive)
REMARK    1  A    between atoms: N_5  and  S_1 
REMARK    2  A    between atoms: C_8  and  S_1 
REMARK    3  A    between atoms: C_2  and  C_7 
REMARK    4  A    between atoms: C_11  and  N_5 
ROOT
ATOM      1  C   UNL d   1     -55.392-102.221 -39.438  0.00  0.00     0.025 A 
ATOM      2  C   UNL d   1     -55.142-101.492 -39.733  0.00  0.00     0.020 A 
ATOM      3  C   UNL d   1     -54.959-101.403 -40.527  0.00  0.00     0.094 A 
ATOM      4  C   UNL d   1     -55.462-102.870 -39.939  0.00  0.00     0.002 A 
ATOM      5  C   UNL d   1     -55.031-102.062 -41.033  0.00  0.00     0.020 A 
ATOM      6  C   UNL d   1     -55.074-100.843 -39.222  0.00  0.00     0.002 C 
ATOM      7  C   UNL d   1     -55.282-102.793 -40.733  0.00  0.00     0.002 A 
ENDROOT
BRANCH   3   8
ATOM      8  N   UNL d   1     -54.712-100.683 -40.822  0.00  0.00    -0.158 NA
BRANCH   8   9
ATOM      9  S   UNL d   1     -54.819-100.504 -41.619  0.00  0.00     0.285 S 
ATOM     10  O   UNL d   1     -54.896-101.315 -41.780  0.00  0.00    -0.198 OA
ATOM     11  O   UNL d   1     -54.741 -99.697 -41.449  0.00  0.00    -0.198 OA
BRANCH   9  12
ATOM     12  C   UNL d   1     -54.927-100.329 -42.418  0.00  0.00     0.107 A 
ATOM     13  C   UNL d   1     -54.899-100.941 -42.977  0.00  0.00     0.040 A 
ATOM     14  C   UNL d   1     -55.009-100.752 -43.772  0.00  0.00     0.123 A 
ATOM     15  O   UNL d   1     -54.984-101.347 -44.333  0.00  0.00    -0.301 OA
ATOM     16  C   UNL d   1     -55.142 -99.973 -44.010  0.00  0.00     0.123 A 
ATOM     17  C   UNL d   1     -55.091-101.175 -45.130  0.00  0.00     0.149 A 
ATOM     18  C   UNL d   1     -55.224-100.394 -45.361  0.00  0.00     0.149 A 
ATOM     19  O   UNL d   1     -55.249 -99.799 -44.801  0.00  0.00    -0.301 OA
ATOM     20  C   UNL d   1     -55.167 -99.377 -43.446  0.00  0.00     0.028 A 
ATOM     21  C   UNL d   1     -55.059 -99.552 -42.648  0.00  0.00     0.015 A 
ENDBRANCH   9  12
ENDBRANCH   8   9
ENDBRANCH   3   8
BRANCH   1  22
ATOM     22  C   UNL d   1     -55.575-102.298 -38.626  0.00  0.00     0.112 A 
ATOM     23  S   UNL d   1     -56.244-102.662 -38.316  0.00  0.00    -0.047 SA
ATOM     24  C   UNL d   1     -56.206-102.616 -37.485  0.00  0.00     0.130 A 
ATOM     25  N   UNL d   1     -56.698-102.872 -36.885  0.00  0.00    -0.236 NA
ATOM     26  C   UNL d   1     -55.496-102.214 -37.297  0.00  0.00     0.106 A 
ATOM     27  C   UNL d   1     -56.500-102.738 -36.102  0.00  0.00     0.100 A 
ATOM     28  C   UNL d   1     -55.803-102.343 -35.910  0.00  0.00     0.022 A 
ATOM     29  C   UNL d   1     -55.301-102.081 -36.505  0.00  0.00     0.023 A 
ATOM     30  N   UNL d   1     -55.106-102.018 -38.003  0.00  0.00    -0.237 NA
ENDBRANCH   1  22
TORSDOF 4
ENDMDL
