MODEL 1
REMARK VINA RESULT:       3.9      0.000      0.000
REMARK  1 active torsions:
REMARK  status: ('A' for Active; 'I' for Inactive)
REMARK    1  A    between atoms: C_6  and  C_1 
ROOT
ATOM      1  C   UNL d   1     -54.793-102.192 -37.110  0.00  0.00     0.168 A 
ATOM      2  N   UNL d   1     -54.847-102.880 -36.624  0.00  0.00    -0.142 NA
ATOM      3  C   UNL d   1     -54.763-101.534 -36.626  0.00  0.00     0.045 A 
ATOM      4  N   UNL d   1     -54.849-102.622 -35.826  0.00  0.00    -0.148 NA
ATOM      5  C   UNL d   1     -54.797-101.790 -35.823  0.00  0.00     0.105 A 
ATOM      6  C   UNL d   1     -54.712-100.714 -36.618  0.00  0.00     0.003 A 
ATOM      7  C   UNL d   1     -54.766-101.120 -35.329  0.00  0.00     0.021 A 
ATOM      8  C   UNL d   1     -54.712-100.437 -35.846  0.00  0.00     0.002 A 
ENDROOT
BRANCH   1   9
ATOM      9  C   UNL d   1     -54.774-102.187 -37.922  0.00  0.00     0.231 C 
ATOM     10  O   UNL d   1     -54.729-101.479 -38.342  0.00  0.00    -0.643 OA
ATOM     11  O   UNL d   1     -54.799-102.875 -38.387  0.00  0.00    -0.643 OA
ENDBRANCH   1   9
TORSDOF 1
ENDMDL
MODEL 2
REMARK VINA RESULT:       6.5      8.466      8.984
REMARK  1 active torsions:
REMARK  status: ('A' for Active; 'I' for Inactive)
REMARK    1  A    between atoms: C_6  and  C_1 
ROOT
ATOM      1  C   UNL d   1     -58.056 -98.801 -44.540  0.00  0.00     0.168 A 
ATOM      2  N   UNL d   1     -58.450 -98.795 -45.286  0.00  0.00    -0.142 NA
ATOM      3  C   UNL d   1     -58.621 -98.786 -43.949  0.00  0.00     0.045 A 
ATOM      4  N   UNL d   1     -59.275 -98.776 -45.133  0.00  0.00    -0.148 NA
ATOM      5  C   UNL d   1     -59.385 -98.771 -44.307  0.00  0.00     0.105 A 
ATOM      6  C   UNL d   1     -58.734 -98.781 -43.135  0.00  0.00     0.003 A 
ATOM      7  C   UNL d   1     -59.960 -98.756 -43.705  0.00  0.00     0.021 A 
ATOM      8  C   UNL d   1     -59.536 -98.762 -42.959  0.00  0.00     0.002 A 
ENDROOT
BRANCH   1   9
ATOM      9  C   UNL d   1     -57.252 -98.818 -44.430  0.00  0.00     0.231 C 
ATOM     10  O   UNL d   1     -56.733 -98.772 -45.069  0.00  0.00    -0.643 OA
ATOM     11  O   UNL d   1     -56.892 -98.882 -43.684  0.00  0.00    -0.643 OA
ENDBRANCH   1   9
TORSDOF 1
ENDMDL
