MODEL 1
REMARK VINA RESULT:      45.0      0.000      0.000
REMARK  5 active torsions:
REMARK  status: ('A' for Active; 'I' for Inactive)
REMARK    1  A    between atoms: N_2  and  C_1 
REMARK    2  A    between atoms: C_8  and  C_5 
REMARK    3  A    between atoms: C_6  and  C_9 
REMARK       I    between atoms: N_12  and  C_6 
REMARK    4  A    between atoms: C_9  and  C_8 
REMARK    5  A    between atoms: C_13  and  N_12 
ROOT
ATOM      1  C   UNL d   1      58.970  49.304  50.043  0.00  0.00     0.279 C 
ATOM      2  N   UNL d   1      58.486  49.515  50.670  0.00  0.00    -0.208 NA
ATOM      3  O   UNL d   1      58.638  49.108  49.294  0.00  0.00    -0.265 OA
ENDROOT
BRANCH   1   4
ATOM      4  C   UNL d   1      59.788  49.281  50.140  0.00  0.00     0.063 C 
BRANCH   4   5
ATOM      5  C   UNL d   1      60.117  48.689  50.631  0.00  0.00     0.011 C 
BRANCH   5   6
ATOM      6  C   UNL d   1      60.667  48.915  51.219  0.00  0.00     0.031 A 
ATOM      7  S   UNL d   1      60.905  48.558  51.920  0.00  0.00    -0.064 SA
ATOM      8  C   UNL d   1      61.454  49.044  52.253  0.00  0.00     0.156 A 
ATOM      9  C   UNL d   1      61.566  49.705  51.771  0.00  0.00     0.031 A 
ATOM     10  C   UNL d   1      61.086  49.637  51.129  0.00  0.00     0.009 A 
BRANCH   8  11
ATOM     11  N   UNL d   1      61.853  48.906  52.977  0.00  0.00    -0.107 N 
ATOM     12  O   UNL d   1      62.027  49.529  53.472  0.00  0.00    -0.531 OA
ATOM     13  O   UNL d   1      62.069  48.131  53.186  0.00  0.00    -0.531 OA
ENDBRANCH   8  11
ENDBRANCH   5   6
ENDBRANCH   4   5
ENDBRANCH   1   4
BRANCH   2  14
ATOM     14  C   UNL d   1      57.674  49.538  50.573  0.00  0.00     0.085 A 
ATOM     15  C   UNL d   1      57.337  49.417  49.832  0.00  0.00     0.019 A 
ATOM     16  C   UNL d   1      56.529  49.439  49.736  0.00  0.00     0.002 A 
ATOM     17  C   UNL d   1      56.197  49.313  48.970  0.00  0.00     0.000 C 
ATOM     18  C   UNL d   1      56.037  49.584  50.379  0.00  0.00     0.000 A 
ATOM     19  C   UNL d   1      56.371  49.706  51.123  0.00  0.00     0.002 A 
ATOM     20  C   UNL d   1      57.179  49.683  51.219  0.00  0.00     0.019 A 
ENDBRANCH   2  14
TORSDOF 5
ENDMDL
