MODEL 1
REMARK VINA RESULT:      73.2      0.000      0.000
REMARK  5 active torsions:
REMARK  status: ('A' for Active; 'I' for Inactive)
REMARK    1  A    between atoms: C_13  and  C_4 
REMARK    2  A    between atoms: S_11  and  C_5 
REMARK    3  A    between atoms: C_10  and  C_12 
REMARK    4  A    between atoms: C_15  and  S_11 
REMARK    5  A    between atoms: C_12  and  C_15 
ROOT
ATOM      1  N   UNL d   1     -55.008-101.731 -42.629  0.00  0.00    -0.206 N 
ATOM      2  C   UNL d   1     -55.108-101.111 -43.170  0.00  0.00     0.166 A 
ATOM      3  N   UNL d   1     -55.264-102.657 -43.645  0.00  0.00    -0.163 NA
ATOM      4  C   UNL d   1     -55.285-101.267 -43.945  0.00  0.00     0.055 A 
ATOM      5  C   UNL d   1     -54.828-101.551 -41.847  0.00  0.00     0.116 A 
ATOM      6  C   UNL d   1     -55.363-102.040 -44.182  0.00  0.00     0.104 A 
ATOM      7  N   UNL d   1     -55.026-100.326 -42.913  0.00  0.00    -0.227 NA
ATOM      8  C   UNL d   1     -54.748-100.788 -41.594  0.00  0.00     0.045 A 
ATOM      9  C   UNL d   1     -54.848-100.167 -42.134  0.00  0.00     0.085 A 
ATOM     10  C   UNL d   1     -55.541-102.205 -44.962  0.00  0.00     0.023 C 
ATOM     11  C   UNL d   1     -54.764 -99.359 -41.877  0.00  0.00     0.021 C 
ENDROOT
BRANCH   5  12
ATOM     12  S   UNL d   1     -54.725-102.189 -41.286  0.00  0.00    -0.064 SA
BRANCH  12  13
ATOM     13  C   UNL d   1     -54.892-102.790 -40.720  0.00  0.00     0.079 C 
BRANCH  13  14
ATOM     14  C   UNL d   1     -55.530-102.707 -40.182  0.00  0.00     0.208 C 
ATOM     15  O   UNL d   1     -56.316-102.876 -40.434  0.00  0.00    -0.285 OA
BRANCH  14  16
ATOM     16  C   UNL d   1     -55.381-102.457 -39.394  0.00  0.00     0.069 A 
ATOM     17  S   UNL d   1     -55.825-102.666 -38.702  0.00  0.00    -0.083 SA
ATOM     18  C   UNL d   1     -55.468-102.281 -38.034  0.00  0.00     0.035 A 
ATOM     19  C   UNL d   1     -54.809-101.839 -38.310  0.00  0.00     0.008 A 
ATOM     20  C   UNL d   1     -54.752-101.945 -39.149  0.00  0.00     0.010 A 
ENDBRANCH  14  16
ENDBRANCH  13  14
ENDBRANCH  12  13
ENDBRANCH   5  12
BRANCH   4  21
ATOM     21  C   UNL d   1     -55.384-100.653 -44.480  0.00  0.00     0.004 A 
ATOM     22  C   UNL d   1     -54.730-100.199 -44.694  0.00  0.00     0.001 A 
ATOM     23  C   UNL d   1     -54.828 -99.588 -45.226  0.00  0.00     0.011 A 
ATOM     24  C   UNL d   1     -55.579 -99.442 -45.535  0.00  0.00     0.058 A 
ATOM     25  C   UNL d   1     -56.214 -99.882 -45.327  0.00  0.00     0.011 A 
ATOM     26 CL   UNL d   1     -55.682 -98.802 -46.092  0.00  0.00    -0.082 Cl
ATOM     27  C   UNL d   1     -56.114-100.502 -44.787  0.00  0.00     0.001 A 
ENDBRANCH   4  21
TORSDOF 5
ENDMDL
MODEL 2
REMARK VINA RESULT:      75.4      2.688      5.606
REMARK  5 active torsions:
REMARK  status: ('A' for Active; 'I' for Inactive)
REMARK    1  A    between atoms: C_13  and  C_4 
REMARK    2  A    between atoms: S_11  and  C_5 
REMARK    3  A    between atoms: C_10  and  C_12 
REMARK    4  A    between atoms: C_15  and  S_11 
REMARK    5  A    between atoms: C_12  and  C_15 
ROOT
ATOM      1  N   UNL d   1     -54.718-100.402 -41.105  0.00  0.00    -0.206 N 
ATOM      2  C   UNL d   1     -54.723-100.950 -40.483  0.00  0.00     0.166 A 
ATOM      3  N   UNL d   1     -54.716 -99.354 -40.180  0.00  0.00    -0.163 NA
ATOM      4  C   UNL d   1     -54.725-100.697 -39.713  0.00  0.00     0.055 A 
ATOM      5  C   UNL d   1     -54.717-100.680 -41.879  0.00  0.00     0.116 A 
ATOM      6  C   UNL d   1     -54.721 -99.899 -39.562  0.00  0.00     0.104 A 
ATOM      7  N   UNL d   1     -54.727-101.762 -40.652  0.00  0.00    -0.227 NA
ATOM      8  C   UNL d   1     -54.720-101.471 -42.047  0.00  0.00     0.045 A 
ATOM      9  C   UNL d   1     -54.725-102.019 -41.426  0.00  0.00     0.085 A 
ATOM     10  C   UNL d   1     -54.723 -99.636 -38.789  0.00  0.00     0.023 C 
ATOM     11  C   UNL d   1     -54.729-102.855 -41.594  0.00  0.00     0.021 C 
ENDROOT
BRANCH   5  12
ATOM     12  S   UNL d   1     -54.711-100.117 -42.523  0.00  0.00    -0.064 SA
BRANCH  12  13
ATOM     13  C   UNL d   1     -54.723 -99.390 -42.949  0.00  0.00     0.079 C 
BRANCH  13  14
ATOM     14  C   UNL d   1     -55.303 -99.246 -43.537  0.00  0.00     0.208 C 
ATOM     15  O   UNL d   1     -56.065 -98.965 -43.314  0.00  0.00    -0.285 OA
BRANCH  14  16
ATOM     16  C   UNL d   1     -55.120 -99.384 -44.346  0.00  0.00     0.069 A 
ATOM     17  S   UNL d   1     -54.867-100.117 -44.690  0.00  0.00    -0.083 SA
ATOM     18  C   UNL d   1     -54.749 -99.988 -45.522  0.00  0.00     0.035 A 
ATOM     19  C   UNL d   1     -54.928 -99.184 -45.690  0.00  0.00     0.008 A 
ATOM     20  C   UNL d   1     -55.157 -98.808 -44.966  0.00  0.00     0.010 A 
ENDBRANCH  14  16
ENDBRANCH  13  14
ENDBRANCH  12  13
ENDBRANCH   5  12
BRANCH   4  21
ATOM     21  C   UNL d   1     -54.730-101.240 -39.098  0.00  0.00     0.004 A 
ATOM     22  C   UNL d   1     -54.754-102.046 -39.274  0.00  0.00     0.001 A 
ATOM     23  C   UNL d   1     -54.759-102.585 -38.662  0.00  0.00     0.011 A 
ATOM     24  C   UNL d   1     -54.740-102.310 -37.885  0.00  0.00     0.058 A 
ATOM     25  C   UNL d   1     -54.717-101.530 -37.713  0.00  0.00     0.011 A 
ATOM     26 CL   UNL d   1     -54.746-102.876 -37.244  0.00  0.00    -0.082 Cl
ATOM     27  C   UNL d   1     -54.712-100.981 -38.335  0.00  0.00     0.001 A 
ENDBRANCH   4  21
TORSDOF 5
ENDMDL
