MODEL 1
REMARK VINA RESULT:      55.1      0.000      0.000
REMARK  6 active torsions:
REMARK  status: ('A' for Active; 'I' for Inactive)
REMARK    1  A    between atoms: C_10  and  C_3 
REMARK    2  A    between atoms: N_12  and  C_4 
REMARK    3  A    between atoms: N_11  and  C_20 
REMARK    4  A    between atoms: C_25  and  N_12 
REMARK    5  A    between atoms: C_20  and  C_21 
REMARK    6  A    between atoms: C_21  and  C_25 
ROOT
ATOM      1  C   UNL d   1     -51.073  25.800  33.552  0.00  0.00     0.168 A 
ATOM      2  N   UNL d   1     -50.572  26.484  33.610  0.00  0.00    -0.184 N 
ATOM      3  C   UNL d   1     -51.878  25.888  33.534  0.00  0.00     0.057 A 
ATOM      4  C   UNL d   1     -49.773  26.380  33.627  0.00  0.00     0.218 A 
ATOM      5  N   UNL d   1     -51.728  27.313  33.628  0.00  0.00    -0.160 NA
ATOM      6  N   UNL d   1     -50.741  25.058  33.515  0.00  0.00    -0.227 NA
ATOM      7  C   UNL d   1     -49.429  25.634  33.590  0.00  0.00     0.071 A 
ATOM      8  C   UNL d   1     -52.213  26.649  33.572  0.00  0.00     0.124 A 
ATOM      9  C   UNL d   1     -49.922  24.960  33.533  0.00  0.00     0.087 A 
ATOM     10  C   UNL d   1     -49.571  24.176  33.494  0.00  0.00     0.021 C 
ENDROOT
BRANCH   4  11
ATOM     11  N   UNL d   1     -49.264  27.070  33.686  0.00  0.00    -0.380 NA
BRANCH  11  12
ATOM     12  C   UNL d   1     -48.763  27.765  33.624  0.00  0.00     0.164 C 
BRANCH  12  13
ATOM     13  C   UNL d   1     -48.553  28.213  34.317  0.00  0.00     0.054 C 
BRANCH  13  14
ATOM     14  C   UNL d   1     -47.761  28.527  34.414  0.00  0.00     0.083 C 
BRANCH  14  15
ATOM     15  N   UNL d   1     -47.635  29.212  34.929  0.00  0.00    -0.299 N 
ATOM     16  C   UNL d   1     -47.225  29.110  35.686  0.00  0.00     0.107 A 
ATOM     17  C   UNL d   1     -47.103  29.791  36.194  0.00  0.00     0.142 A 
ATOM     18  O   UNL d   1     -47.383  30.565  35.957  0.00  0.00    -0.300 OA
ATOM     19  C   UNL d   1     -47.790  30.665  35.205  0.00  0.00     0.142 A 
ATOM     20  C   UNL d   1     -47.918  29.984  34.685  0.00  0.00     0.107 A 
ENDBRANCH  14  15
ENDBRANCH  13  14
ENDBRANCH  12  13
ENDBRANCH  11  12
ENDBRANCH   4  11
BRANCH   3  21
ATOM     21  C   UNL d   1     -52.364  25.224  33.477  0.00  0.00     0.005 A 
ATOM     22  C   UNL d   1     -53.172  25.308  33.530  0.00  0.00     0.001 A 
ATOM     23  C   UNL d   1     -53.650  24.655  33.475  0.00  0.00     0.011 A 
ATOM     24  C   UNL d   1     -53.328  23.908  33.366  0.00  0.00     0.058 A 
ATOM     25  C   UNL d   1     -52.518  23.824  33.313  0.00  0.00     0.011 A 
ATOM     26 CL   UNL d   1     -53.836  23.213  33.307  0.00  0.00    -0.082 Cl
ATOM     27  C   UNL d   1     -52.033  24.488  33.369  0.00  0.00     0.001 A 
ENDBRANCH   3  21
TORSDOF 6
ENDMDL
MODEL 2
REMARK VINA RESULT:      55.3      0.848      1.785
REMARK  6 active torsions:
REMARK  status: ('A' for Active; 'I' for Inactive)
REMARK    1  A    between atoms: C_10  and  C_3 
REMARK    2  A    between atoms: N_12  and  C_4 
REMARK    3  A    between atoms: N_11  and  C_20 
REMARK    4  A    between atoms: C_25  and  N_12 
REMARK    5  A    between atoms: C_20  and  C_21 
REMARK    6  A    between atoms: C_21  and  C_25 
ROOT
ATOM      1  C   UNL d   1     -50.574  26.148  33.513  0.00  0.00     0.168 A 
ATOM      2  N   UNL d   1     -49.880  26.638  33.537  0.00  0.00    -0.184 N 
ATOM      3  C   UNL d   1     -50.502  25.349  33.400  0.00  0.00     0.057 A 
ATOM      4  C   UNL d   1     -49.968  27.431  33.650  0.00  0.00     0.218 A 
ATOM      5  N   UNL d   1     -49.075  25.484  33.331  0.00  0.00    -0.160 NA
ATOM      6  N   UNL d   1     -51.310  26.484  33.604  0.00  0.00    -0.227 NA
ATOM      7  C   UNL d   1     -50.709  27.779  33.743  0.00  0.00     0.071 A 
ATOM      8  C   UNL d   1     -49.748  25.009  33.308  0.00  0.00     0.124 A 
ATOM      9  C   UNL d   1     -51.392  27.297  33.719  0.00  0.00     0.087 A 
ATOM     10  C   UNL d   1     -52.169  27.652  33.815  0.00  0.00     0.021 C 
ENDROOT
BRANCH   4  11
ATOM     11  N   UNL d   1     -49.269  27.929  33.675  0.00  0.00    -0.380 NA
BRANCH  11  12
ATOM     12  C   UNL d   1     -48.643  28.517  33.664  0.00  0.00     0.164 C 
BRANCH  12  13
ATOM     13  C   UNL d   1     -48.474  28.985  34.356  0.00  0.00     0.054 C 
BRANCH  13  14
ATOM     14  C   UNL d   1     -47.664  29.141  34.592  0.00  0.00     0.083 C 
BRANCH  14  15
ATOM     15  N   UNL d   1     -47.498  29.800  35.129  0.00  0.00    -0.299 N 
ATOM     16  C   UNL d   1     -47.284  30.575  34.804  0.00  0.00     0.107 A 
ATOM     17  C   UNL d   1     -47.120  31.225  35.340  0.00  0.00     0.142 A 
ATOM     18  O   UNL d   1     -47.168  31.113  36.188  0.00  0.00    -0.300 OA
ATOM     19  C   UNL d   1     -47.382  30.342  36.509  0.00  0.00     0.142 A 
ATOM     20  C   UNL d   1     -47.548  29.680  35.977  0.00  0.00     0.107 A 
ENDBRANCH  14  15
ENDBRANCH  13  14
ENDBRANCH  12  13
ENDBRANCH  11  12
ENDBRANCH   4  11
BRANCH   3  21
ATOM     21  C   UNL d   1     -51.176  24.873  33.377  0.00  0.00     0.005 A 
ATOM     22  C   UNL d   1     -51.101  24.063  33.399  0.00  0.00     0.001 A 
ATOM     23  C   UNL d   1     -51.763  23.596  33.376  0.00  0.00     0.011 A 
ATOM     24  C   UNL d   1     -52.511  23.931  33.330  0.00  0.00     0.058 A 
ATOM     25  C   UNL d   1     -52.586  24.743  33.308  0.00  0.00     0.011 A 
ATOM     26 CL   UNL d   1     -53.216  23.434  33.306  0.00  0.00    -0.082 Cl
ATOM     27  C   UNL d   1     -51.913  25.217  33.332  0.00  0.00     0.001 A 
ENDBRANCH   3  21
TORSDOF 6
ENDMDL
