MODEL 1
REMARK VINA RESULT:      -5.1      0.000      0.000
REMARK  9 active torsions:
REMARK  status: ('A' for Active; 'I' for Inactive)
REMARK    1  A    between atoms: N_4  and  C_1 
REMARK    2  A    between atoms: C_12  and  C_3 
REMARK       I    between atoms: C_11  and  N_4 
REMARK       I    between atoms: C_6  and  N_5 
REMARK    3  A    between atoms: O_27  and  C_6 
REMARK       I    between atoms: N_7  and  C_10 
REMARK    4  A    between atoms: C_10  and  C_28 
REMARK    5  A    between atoms: C_29  and  C_11 
REMARK    6  A    between atoms: C_25  and  C_18 
REMARK    7  A    between atoms: S_26  and  C_29 
REMARK    8  A    between atoms: C_28  and  S_26 
REMARK    9  A    between atoms: C_32  and  O_27 
ROOT
ATOM      1  N   UNL d   1      51.530  34.451  53.051  0.00  0.00    -0.182 NA
ATOM      2  C   UNL d   1      50.771  34.225  52.876  0.00  0.00     0.288 C 
ATOM      3  O   UNL d   1      50.592  33.441  52.764  0.00  0.00    -0.265 OA
ENDROOT
BRANCH   1   4
ATOM      4  C   UNL d   1      52.115  33.885  53.114  0.00  0.00     0.197 A 
ATOM      5  N   UNL d   1      52.017  33.119  53.385  0.00  0.00    -0.221 NA
ATOM      6  C   UNL d   1      52.737  32.747  53.357  0.00  0.00     0.090 A 
ATOM      7  C   UNL d   1      53.276  33.285  53.069  0.00  0.00     0.058 A 
ATOM      8  S   UNL d   1      52.896  33.982  52.920  0.00  0.00    -0.046 SA
BRANCH   6   9
ATOM      9  C   UNL d   1      52.888  31.985  53.575  0.00  0.00     0.018 A 
ATOM     10  C   UNL d   1      52.533  31.377  53.181  0.00  0.00     0.002 A 
ATOM     11  C   UNL d   1      52.682  30.610  53.397  0.00  0.00     0.000 A 
ATOM     12  C   UNL d   1      53.188  30.459  54.011  0.00  0.00     0.000 A 
ATOM     13  C   UNL d   1      53.546  31.074  54.409  0.00  0.00     0.000 A 
ATOM     14  C   UNL d   1      53.390  31.833  54.184  0.00  0.00     0.002 A 
BRANCH  12  15
ATOM     15  C   UNL d   1      53.344  29.674  54.237  0.00  0.00     0.000 A 
ATOM     16  C   UNL d   1      53.242  29.450  55.032  0.00  0.00     0.000 A 
ATOM     17  C   UNL d   1      53.395  28.672  55.261  0.00  0.00     0.000 A 
ATOM     18  C   UNL d   1      53.652  28.119  54.695  0.00  0.00     0.000 A 
ATOM     19  C   UNL d   1      53.752  28.351  53.902  0.00  0.00     0.000 A 
ATOM     20  C   UNL d   1      53.596  29.134  53.679  0.00  0.00     0.000 A 
ENDBRANCH  12  15
ENDBRANCH   6   9
ENDBRANCH   1   4
BRANCH   2  21
ATOM     21  C   UNL d   1      50.193  34.787  52.813  0.00  0.00     0.098 C 
BRANCH  21  22
ATOM     22  S   UNL d   1      49.652  34.662  52.155  0.00  0.00    -0.076 SA
BRANCH  22  23
ATOM     23  C   UNL d   1      48.996  35.201  52.026  0.00  0.00     0.097 C 
BRANCH  23  24
ATOM     24  C   UNL d   1      48.414  35.035  51.428  0.00  0.00     0.271 C 
ATOM     25  N   UNL d   1      47.617  35.339  51.510  0.00  0.00    -0.269 N 
ATOM     26  C   UNL d   1      47.026  35.176  50.913  0.00  0.00     0.102 A 
ATOM     27  C   UNL d   1      47.411  35.814  52.204  0.00  0.00     0.102 A 
ATOM     28  C   UNL d   1      46.230  35.482  50.999  0.00  0.00     0.104 A 
ATOM     29  N   UNL d   1      46.024  35.958  51.693  0.00  0.00    -0.249 N 
ATOM     30  C   UNL d   1      46.614  36.119  52.287  0.00  0.00     0.104 A 
ATOM     31  C   UNL d   1      45.256  36.251  51.774  0.00  0.00     0.378 C 
ATOM     32  O   UNL d   1      44.685  36.093  51.195  0.00  0.00    -0.237 OA
ATOM     33  O   UNL d   1      48.619  34.568  50.747  0.00  0.00    -0.266 OA
BRANCH  31  34
ATOM     34  O   UNL d   1      45.059  36.706  52.437  0.00  0.00    -0.257 OA
BRANCH  34  35
ATOM     35  C   UNL d   1      44.398  36.515  52.892  0.00  0.00     0.128 C 
ATOM     36  C   UNL d   1      44.380  36.682  53.706  0.00  0.00     0.029 C 
ENDBRANCH  34  35
ENDBRANCH  31  34
ENDBRANCH  23  24
ENDBRANCH  22  23
ENDBRANCH  21  22
ENDBRANCH   2  21
TORSDOF 9
ENDMDL
MODEL 2
REMARK VINA RESULT:      -4.2      0.887      1.334
REMARK  9 active torsions:
REMARK  status: ('A' for Active; 'I' for Inactive)
REMARK    1  A    between atoms: N_4  and  C_1 
REMARK    2  A    between atoms: C_12  and  C_3 
REMARK       I    between atoms: C_11  and  N_4 
REMARK       I    between atoms: C_6  and  N_5 
REMARK    3  A    between atoms: O_27  and  C_6 
REMARK       I    between atoms: N_7  and  C_10 
REMARK    4  A    between atoms: C_10  and  C_28 
REMARK    5  A    between atoms: C_29  and  C_11 
REMARK    6  A    between atoms: C_25  and  C_18 
REMARK    7  A    between atoms: S_26  and  C_29 
REMARK    8  A    between atoms: C_28  and  S_26 
REMARK    9  A    between atoms: C_32  and  O_27 
ROOT
ATOM      1  N   UNL d   1      51.463  34.465  52.702  0.00  0.00    -0.182 NA
ATOM      2  C   UNL d   1      50.758  34.173  52.429  0.00  0.00     0.288 C 
ATOM      3  O   UNL d   1      50.648  33.371  52.358  0.00  0.00    -0.265 OA
ENDROOT
BRANCH   1   4
ATOM      4  C   UNL d   1      52.063  33.950  52.906  0.00  0.00     0.197 A 
ATOM      5  N   UNL d   1      51.971  33.167  53.126  0.00  0.00    -0.221 NA
ATOM      6  C   UNL d   1      52.706  32.860  53.281  0.00  0.00     0.090 A 
ATOM      7  C   UNL d   1      53.247  33.454  53.156  0.00  0.00     0.058 A 
ATOM      8  S   UNL d   1      52.855  34.122  52.926  0.00  0.00    -0.046 SA
BRANCH   6   9
ATOM      9  C   UNL d   1      52.866  32.105  53.516  0.00  0.00     0.018 A 
ATOM     10  C   UNL d   1      52.599  31.483  53.077  0.00  0.00     0.002 A 
ATOM     11  C   UNL d   1      52.758  30.723  53.310  0.00  0.00     0.000 A 
ATOM     12  C   UNL d   1      53.186  30.593  53.985  0.00  0.00     0.000 A 
ATOM     13  C   UNL d   1      53.455  31.223  54.428  0.00  0.00     0.000 A 
ATOM     14  C   UNL d   1      53.291  31.975  54.186  0.00  0.00     0.002 A 
BRANCH  12  15
ATOM     15  C   UNL d   1      53.352  29.815  54.229  0.00  0.00     0.000 A 
ATOM     16  C   UNL d   1      53.892  29.356  53.791  0.00  0.00     0.000 A 
ATOM     17  C   UNL d   1      54.060  28.585  54.028  0.00  0.00     0.000 A 
ATOM     18  C   UNL d   1      53.688  28.271  54.704  0.00  0.00     0.000 A 
ATOM     19  C   UNL d   1      53.150  28.737  55.137  0.00  0.00     0.000 A 
ATOM     20  C   UNL d   1      52.986  29.512  54.892  0.00  0.00     0.000 A 
ENDBRANCH  12  15
ENDBRANCH   6   9
ENDBRANCH   1   4
BRANCH   2  21
ATOM     21  C   UNL d   1      50.166  34.684  52.228  0.00  0.00     0.098 C 
BRANCH  21  22
ATOM     22  S   UNL d   1      49.621  34.861  52.871  0.00  0.00    -0.076 SA
BRANCH  22  23
ATOM     23  C   UNL d   1      49.011  35.457  52.769  0.00  0.00     0.097 C 
BRANCH  23  24
ATOM     24  C   UNL d   1      48.427  35.582  53.376  0.00  0.00     0.271 C 
ATOM     25  N   UNL d   1      47.633  35.826  53.162  0.00  0.00    -0.269 N 
ATOM     26  C   UNL d   1      47.041  35.954  53.765  0.00  0.00     0.102 A 
ATOM     27  C   UNL d   1      47.433  35.942  52.327  0.00  0.00     0.102 A 
ATOM     28  C   UNL d   1      46.248  36.197  53.547  0.00  0.00     0.104 A 
ATOM     29  N   UNL d   1      46.048  36.314  52.712  0.00  0.00    -0.249 N 
ATOM     30  C   UNL d   1      46.641  36.186  52.112  0.00  0.00     0.104 A 
ATOM     31  C   UNL d   1      45.284  36.549  52.504  0.00  0.00     0.378 C 
ATOM     32  O   UNL d   1      44.711  36.672  53.089  0.00  0.00    -0.237 OA
ATOM     33  O   UNL d   1      48.626  35.467  54.194  0.00  0.00    -0.266 OA
BRANCH  31  34
ATOM     34  O   UNL d   1      45.093  36.660  51.707  0.00  0.00    -0.257 OA
BRANCH  34  35
ATOM     35  C   UNL d   1      44.371  36.391  51.409  0.00  0.00     0.128 C 
ATOM     36  C   UNL d   1      44.333  36.009  50.672  0.00  0.00     0.029 C 
ENDBRANCH  34  35
ENDBRANCH  31  34
ENDBRANCH  23  24
ENDBRANCH  22  23
ENDBRANCH  21  22
ENDBRANCH   2  21
TORSDOF 9
ENDMDL
MODEL 3
REMARK VINA RESULT:      -3.5      2.097      8.138
REMARK  9 active torsions:
REMARK  status: ('A' for Active; 'I' for Inactive)
REMARK    1  A    between atoms: N_4  and  C_1 
REMARK    2  A    between atoms: C_12  and  C_3 
REMARK       I    between atoms: C_11  and  N_4 
REMARK       I    between atoms: C_6  and  N_5 
REMARK    3  A    between atoms: O_27  and  C_6 
REMARK       I    between atoms: N_7  and  C_10 
REMARK    4  A    between atoms: C_10  and  C_28 
REMARK    5  A    between atoms: C_29  and  C_11 
REMARK    6  A    between atoms: C_25  and  C_18 
REMARK    7  A    between atoms: S_26  and  C_29 
REMARK    8  A    between atoms: C_28  and  S_26 
REMARK    9  A    between atoms: C_32  and  O_27 
ROOT
ATOM      1  N   UNL d   1      50.854  34.351  53.375  0.00  0.00    -0.182 NA
ATOM      2  C   UNL d   1      51.591  34.662  53.245  0.00  0.00     0.288 C 
ATOM      3  O   UNL d   1      51.742  35.092  52.572  0.00  0.00    -0.265 OA
ENDROOT
BRANCH   1   4
ATOM      4  C   UNL d   1      50.262  34.471  52.826  0.00  0.00     0.197 A 
ATOM      5  N   UNL d   1      49.544  34.836  52.965  0.00  0.00    -0.221 NA
ATOM      6  C   UNL d   1      49.124  34.839  52.271  0.00  0.00     0.090 A 
ATOM      7  C   UNL d   1      49.585  34.476  51.707  0.00  0.00     0.058 A 
ATOM      8  S   UNL d   1      50.282  34.250  52.046  0.00  0.00    -0.046 SA
BRANCH   6   9
ATOM      9  C   UNL d   1      48.385  35.146  52.163  0.00  0.00     0.018 A 
ATOM     10  C   UNL d   1      47.939  34.911  51.533  0.00  0.00     0.002 A 
ATOM     11  C   UNL d   1      47.198  35.217  51.422  0.00  0.00     0.000 A 
ATOM     12  C   UNL d   1      46.907  35.761  51.947  0.00  0.00     0.000 A 
ATOM     13  C   UNL d   1      47.358  35.998  52.584  0.00  0.00     0.000 A 
ATOM     14  C   UNL d   1      48.095  35.686  52.684  0.00  0.00     0.002 A 
BRANCH  12  15
ATOM     15  C   UNL d   1      46.146  36.078  51.838  0.00  0.00     0.000 A 
ATOM     16  C   UNL d   1      45.701  36.312  52.502  0.00  0.00     0.000 A 
ATOM     17  C   UNL d   1      44.946  36.628  52.399  0.00  0.00     0.000 A 
ATOM     18  C   UNL d   1      44.635  36.709  51.631  0.00  0.00     0.000 A 
ATOM     19  C   UNL d   1      45.086  36.473  50.972  0.00  0.00     0.000 A 
ATOM     20  C   UNL d   1      45.844  36.156  51.084  0.00  0.00     0.000 A 
ENDBRANCH  12  15
ENDBRANCH   6   9
ENDBRANCH   1   4
BRANCH   2  21
ATOM     21  C   UNL d   1      52.177  34.542  53.790  0.00  0.00     0.098 C 
BRANCH  21  22
ATOM     22  S   UNL d   1      52.896  34.200  53.463  0.00  0.00    -0.076 SA
BRANCH  22  23
ATOM     23  C   UNL d   1      53.295  33.560  53.872  0.00  0.00     0.097 C 
BRANCH  23  24
ATOM     24  C   UNL d   1      53.829  33.047  53.452  0.00  0.00     0.271 C 
ATOM     25  N   UNL d   1      53.800  32.200  53.581  0.00  0.00    -0.269 N 
ATOM     26  C   UNL d   1      54.333  31.679  53.163  0.00  0.00     0.102 A 
ATOM     27  C   UNL d   1      53.225  31.873  54.140  0.00  0.00     0.102 A 
ATOM     28  C   UNL d   1      54.301  30.832  53.295  0.00  0.00     0.104 A 
ATOM     29  N   UNL d   1      53.726  30.505  53.854  0.00  0.00    -0.249 N 
ATOM     30  C   UNL d   1      53.195  31.027  54.270  0.00  0.00     0.104 A 
ATOM     31  C   UNL d   1      53.697  29.689  53.979  0.00  0.00     0.378 C 
ATOM     32  O   UNL d   1      54.214  29.185  53.574  0.00  0.00    -0.237 OA
ATOM     33  O   UNL d   1      54.393  33.371  52.904  0.00  0.00    -0.266 OA
BRANCH  31  34
ATOM     34  O   UNL d   1      53.147  29.376  54.514  0.00  0.00    -0.257 OA
BRANCH  34  35
ATOM     35  C   UNL d   1      53.224  28.601  54.786  0.00  0.00     0.128 C 
ATOM     36  C   UNL d   1      53.153  28.426  55.595  0.00  0.00     0.029 C 
ENDBRANCH  34  35
ENDBRANCH  31  34
ENDBRANCH  23  24
ENDBRANCH  22  23
ENDBRANCH  21  22
ENDBRANCH   2  21
TORSDOF 9
ENDMDL
