MODEL 1
REMARK VINA RESULT:      -5.0      0.000      0.000
REMARK  8 active torsions:
REMARK  status: ('A' for Active; 'I' for Inactive)
REMARK    1  A    between atoms: C_4  and  C_1 
REMARK    2  A    between atoms: C_11  and  N_3 
REMARK    3  A    between atoms: N_7  and  C_4 
REMARK    4  A    between atoms: C_9  and  C_4 
REMARK       I    between atoms: C_8  and  N_7 
REMARK    5  A    between atoms: C_12  and  C_9 
REMARK    6  A    between atoms: C_18  and  C_11 
REMARK    7  A    between atoms: C_20  and  C_18 
REMARK    8  A    between atoms: C_19  and  C_20 
ROOT
ATOM      1  C   UNL d   1     -39.378  15.035  19.406  0.00  0.00     0.166 A 
ATOM      2  N   UNL d   1     -38.709  15.417  19.709  0.00  0.00    -0.225 NA
ATOM      3  N   UNL d   1     -39.908  14.918  20.024  0.00  0.00    -0.288 N 
ATOM      4  C   UNL d   1     -39.572  15.226  20.714  0.00  0.00     0.083 A 
ATOM      5  C   UNL d   1     -38.828  15.534  20.511  0.00  0.00     0.099 A 
ATOM      6  C   UNL d   1     -39.845  15.264  21.486  0.00  0.00     0.019 A 
ATOM      7  C   UNL d   1     -38.360  15.881  21.092  0.00  0.00     0.021 A 
ATOM      8  C   UNL d   1     -39.377  15.611  22.070  0.00  0.00     0.002 A 
ATOM      9  C   UNL d   1     -38.631  15.922  21.876  0.00  0.00     0.002 A 
ENDROOT
BRANCH   1  10
ATOM     10  C   UNL d   1     -39.495  14.809  18.616  0.00  0.00     0.119 C 
BRANCH  10  11
ATOM     11  N   UNL d   1     -40.254  14.803  18.299  0.00  0.00    -0.205 NA
ATOM     12  C   UNL d   1     -40.471  15.355  17.726  0.00  0.00     0.280 C 
ATOM     13  O   UNL d   1     -41.230  15.349  17.409  0.00  0.00    -0.265 OA
ATOM     14  C   UNL d   1     -39.922  15.922  17.466  0.00  0.00     0.068 C 
ENDBRANCH  10  11
BRANCH  10  15
ATOM     15  C   UNL d   1     -38.854  14.592  18.150  0.00  0.00     0.022 C 
BRANCH  15  16
ATOM     16  C   UNL d   1     -38.666  13.800  18.046  0.00  0.00     0.002 A 
ATOM     17  C   UNL d   1     -39.005  13.366  17.435  0.00  0.00     0.000 A 
ATOM     18  C   UNL d   1     -38.816  12.570  17.332  0.00  0.00     0.000 A 
ATOM     19  C   UNL d   1     -38.284  12.206  17.844  0.00  0.00     0.000 A 
ATOM     20  C   UNL d   1     -37.941  12.643  18.461  0.00  0.00     0.000 A 
ATOM     21  C   UNL d   1     -38.134  13.436  18.558  0.00  0.00     0.000 A 
ENDBRANCH  15  16
ENDBRANCH  10  15
ENDBRANCH   1  10
BRANCH   3  22
ATOM     22  C   UNL d   1     -40.651  14.555  19.967  0.00  0.00     0.082 C 
BRANCH  22  23
ATOM     23  C   UNL d   1     -40.942  14.110  20.600  0.00  0.00     0.019 C 
BRANCH  23  24
ATOM     24  C   UNL d   1     -41.730  13.869  20.615  0.00  0.00     0.002 C 
BRANCH  24  25
ATOM     25  C   UNL d   1     -41.923  13.137  20.958  0.00  0.00     0.000 C 
ATOM     26  C   UNL d   1     -42.643  13.050  21.369  0.00  0.00     0.000 C 
ENDBRANCH  24  25
ENDBRANCH  23  24
ENDBRANCH  22  23
ENDBRANCH   3  22
TORSDOF 8
ENDMDL
MODEL 2
REMARK VINA RESULT:      -4.7      1.192      3.951
REMARK  8 active torsions:
REMARK  status: ('A' for Active; 'I' for Inactive)
REMARK    1  A    between atoms: C_4  and  C_1 
REMARK    2  A    between atoms: C_11  and  N_3 
REMARK    3  A    between atoms: N_7  and  C_4 
REMARK    4  A    between atoms: C_9  and  C_4 
REMARK       I    between atoms: C_8  and  N_7 
REMARK    5  A    between atoms: C_12  and  C_9 
REMARK    6  A    between atoms: C_18  and  C_11 
REMARK    7  A    between atoms: C_20  and  C_18 
REMARK    8  A    between atoms: C_19  and  C_20 
ROOT
ATOM      1  C   UNL d   1     -40.279  15.063  19.216  0.00  0.00     0.166 A 
ATOM      2  N   UNL d   1     -40.807  15.548  18.802  0.00  0.00    -0.225 NA
ATOM      3  N   UNL d   1     -39.838  14.638  18.666  0.00  0.00    -0.288 N 
ATOM      4  C   UNL d   1     -40.088  14.855  17.909  0.00  0.00     0.083 A 
ATOM      5  C   UNL d   1     -40.690  15.420  18.000  0.00  0.00     0.099 A 
ATOM      6  C   UNL d   1     -39.849  14.615  17.163  0.00  0.00     0.019 A 
ATOM      7  C   UNL d   1     -41.049  15.743  17.334  0.00  0.00     0.021 A 
ATOM      8  C   UNL d   1     -40.208  14.936  16.493  0.00  0.00     0.002 A 
ATOM      9  C   UNL d   1     -40.811  15.502  16.575  0.00  0.00     0.002 A 
ENDROOT
BRANCH   1  10
ATOM     10  C   UNL d   1     -40.207  15.013  20.040  0.00  0.00     0.119 C 
BRANCH  10  11
ATOM     11  N   UNL d   1     -40.316  14.291  20.419  0.00  0.00    -0.205 NA
ATOM     12  C   UNL d   1     -41.040  14.110  20.770  0.00  0.00     0.280 C 
ATOM     13  O   UNL d   1     -41.150  13.388  21.149  0.00  0.00    -0.265 OA
ATOM     14  C   UNL d   1     -41.665  14.658  20.743  0.00  0.00     0.068 C 
ENDBRANCH  10  11
BRANCH  10  15
ATOM     15  C   UNL d   1     -40.027  15.684  20.480  0.00  0.00     0.022 C 
BRANCH  15  16
ATOM     16  C   UNL d   1     -39.352  15.705  20.946  0.00  0.00     0.002 A 
ATOM     17  C   UNL d   1     -39.399  15.579  21.757  0.00  0.00     0.000 A 
ATOM     18  C   UNL d   1     -38.720  15.600  22.225  0.00  0.00     0.000 A 
ATOM     19  C   UNL d   1     -37.989  15.749  21.878  0.00  0.00     0.000 A 
ATOM     20  C   UNL d   1     -37.940  15.877  21.058  0.00  0.00     0.000 A 
ATOM     21  C   UNL d   1     -38.621  15.854  20.599  0.00  0.00     0.000 A 
ENDBRANCH  15  16
ENDBRANCH  10  15
ENDBRANCH   1  10
BRANCH   3  22
ATOM     22  C   UNL d   1     -39.245  14.086  18.841  0.00  0.00     0.082 C 
BRANCH  22  23
ATOM     23  C   UNL d   1     -39.073  13.482  18.304  0.00  0.00     0.019 C 
BRANCH  23  24
ATOM     24  C   UNL d   1     -38.647  12.817  18.543  0.00  0.00     0.002 C 
BRANCH  24  25
ATOM     25  C   UNL d   1     -37.954  12.612  18.134  0.00  0.00     0.000 C 
ATOM     26  C   UNL d   1     -37.942  11.927  17.658  0.00  0.00     0.000 C 
ENDBRANCH  24  25
ENDBRANCH  23  24
ENDBRANCH  22  23
ENDBRANCH   3  22
TORSDOF 8
ENDMDL
MODEL 3
REMARK VINA RESULT:      -3.9      0.955      2.091
REMARK  8 active torsions:
REMARK  status: ('A' for Active; 'I' for Inactive)
REMARK    1  A    between atoms: C_4  and  C_1 
REMARK    2  A    between atoms: C_11  and  N_3 
REMARK    3  A    between atoms: N_7  and  C_4 
REMARK    4  A    between atoms: C_9  and  C_4 
REMARK       I    between atoms: C_8  and  N_7 
REMARK    5  A    between atoms: C_12  and  C_9 
REMARK    6  A    between atoms: C_18  and  C_11 
REMARK    7  A    between atoms: C_20  and  C_18 
REMARK    8  A    between atoms: C_19  and  C_20 
ROOT
ATOM      1  C   UNL d   1     -39.236  14.953  19.530  0.00  0.00     0.166 A 
ATOM      2  N   UNL d   1     -38.662  15.480  19.810  0.00  0.00    -0.225 NA
ATOM      3  N   UNL d   1     -39.644  14.653  20.178  0.00  0.00    -0.288 N 
ATOM      4  C   UNL d   1     -39.327  14.990  20.864  0.00  0.00     0.083 A 
ATOM      5  C   UNL d   1     -38.718  15.503  20.627  0.00  0.00     0.099 A 
ATOM      6  C   UNL d   1     -39.512  14.897  21.656  0.00  0.00     0.019 A 
ATOM      7  C   UNL d   1     -38.296  15.922  21.196  0.00  0.00     0.021 A 
ATOM      8  C   UNL d   1     -39.091  15.316  22.228  0.00  0.00     0.002 A 
ATOM      9  C   UNL d   1     -38.480  15.832  22.001  0.00  0.00     0.002 A 
ENDROOT
BRANCH   1  10
ATOM     10  C   UNL d   1     -39.376  14.762  18.736  0.00  0.00     0.119 C 
BRANCH  10  11
ATOM     11  N   UNL d   1     -39.455  13.974  18.512  0.00  0.00    -0.205 NA
ATOM     12  C   UNL d   1     -38.807  13.556  18.221  0.00  0.00     0.280 C 
ATOM     13  O   UNL d   1     -38.886  12.768  17.997  0.00  0.00    -0.265 OA
ATOM     14  C   UNL d   1     -38.067  13.929  18.153  0.00  0.00     0.068 C 
ENDBRANCH  10  11
BRANCH  10  15
ATOM     15  C   UNL d   1     -39.435  15.357  18.172  0.00  0.00     0.022 C 
BRANCH  15  16
ATOM     16  C   UNL d   1     -40.113  15.430  17.716  0.00  0.00     0.002 A 
ATOM     17  C   UNL d   1     -40.768  15.839  18.002  0.00  0.00     0.000 A 
ATOM     18  C   UNL d   1     -41.449  15.912  17.543  0.00  0.00     0.000 A 
ATOM     19  C   UNL d   1     -41.475  15.573  16.794  0.00  0.00     0.000 A 
ATOM     20  C   UNL d   1     -40.816  15.159  16.504  0.00  0.00     0.000 A 
ATOM     21  C   UNL d   1     -40.140  15.091  16.967  0.00  0.00     0.000 A 
ENDBRANCH  15  16
ENDBRANCH  10  15
ENDBRANCH   1  10
BRANCH   3  22
ATOM     22  C   UNL d   1     -40.266  14.106  20.151  0.00  0.00     0.082 C 
BRANCH  22  23
ATOM     23  C   UNL d   1     -40.934  14.218  20.623  0.00  0.00     0.019 C 
BRANCH  23  24
ATOM     24  C   UNL d   1     -41.600  13.740  20.528  0.00  0.00     0.002 C 
BRANCH  24  25
ATOM     25  C   UNL d   1     -42.162  13.703  21.139  0.00  0.00     0.000 C 
ATOM     26  C   UNL d   1     -42.767  13.130  21.110  0.00  0.00     0.000 C 
ENDBRANCH  24  25
ENDBRANCH  23  24
ENDBRANCH  22  23
ENDBRANCH   3  22
TORSDOF 8
ENDMDL
MODEL 4
REMARK VINA RESULT:      -3.8      1.239      3.970
REMARK  8 active torsions:
REMARK  status: ('A' for Active; 'I' for Inactive)
REMARK    1  A    between atoms: C_4  and  C_1 
REMARK    2  A    between atoms: C_11  and  N_3 
REMARK    3  A    between atoms: N_7  and  C_4 
REMARK    4  A    between atoms: C_9  and  C_4 
REMARK       I    between atoms: C_8  and  N_7 
REMARK    5  A    between atoms: C_12  and  C_9 
REMARK    6  A    between atoms: C_18  and  C_11 
REMARK    7  A    between atoms: C_20  and  C_18 
REMARK    8  A    between atoms: C_19  and  C_20 
ROOT
ATOM      1  C   UNL d   1     -40.290  14.982  19.467  0.00  0.00     0.166 A 
ATOM      2  N   UNL d   1     -40.767  15.564  19.122  0.00  0.00    -0.225 NA
ATOM      3  N   UNL d   1     -39.925  14.559  18.863  0.00  0.00    -0.288 N 
ATOM      4  C   UNL d   1     -40.173  14.874  18.140  0.00  0.00     0.083 A 
ATOM      5  C   UNL d   1     -40.695  15.498  18.307  0.00  0.00     0.099 A 
ATOM      6  C   UNL d   1     -39.992  14.676  17.366  0.00  0.00     0.019 A 
ATOM      7  C   UNL d   1     -41.035  15.921  17.689  0.00  0.00     0.021 A 
ATOM      8  C   UNL d   1     -40.331  15.099  16.744  0.00  0.00     0.002 A 
ATOM      9  C   UNL d   1     -40.855  15.724  16.902  0.00  0.00     0.002 A 
ENDROOT
BRANCH   1  10
ATOM     10  C   UNL d   1     -40.195  14.849  20.280  0.00  0.00     0.119 C 
BRANCH  10  11
ATOM     11  N   UNL d   1     -39.461  14.625  20.577  0.00  0.00    -0.205 NA
ATOM     12  C   UNL d   1     -39.011  15.156  21.019  0.00  0.00     0.280 C 
ATOM     13  O   UNL d   1     -38.277  14.932  21.315  0.00  0.00    -0.265 OA
ATOM     14  C   UNL d   1     -39.297  15.922  21.166  0.00  0.00     0.068 C 
ENDBRANCH  10  11
BRANCH  10  15
ATOM     15  C   UNL d   1     -40.834  14.940  20.790  0.00  0.00     0.022 C 
BRANCH  15  16
ATOM     16  C   UNL d   1     -41.295  14.294  20.996  0.00  0.00     0.002 A 
ATOM     17  C   UNL d   1     -42.106  14.297  20.859  0.00  0.00     0.000 A 
ATOM     18  C   UNL d   1     -42.569  13.647  21.067  0.00  0.00     0.000 A 
ATOM     19  C   UNL d   1     -42.217  12.989  21.414  0.00  0.00     0.000 A 
ATOM     20  C   UNL d   1     -41.398  12.984  21.553  0.00  0.00     0.000 A 
ATOM     21  C   UNL d   1     -40.943  13.636  21.343  0.00  0.00     0.000 A 
ENDBRANCH  15  16
ENDBRANCH  10  15
ENDBRANCH   1  10
BRANCH   3  22
ATOM     22  C   UNL d   1     -39.400  13.926  18.961  0.00  0.00     0.082 C 
BRANCH  22  23
ATOM     23  C   UNL d   1     -39.072  13.556  18.299  0.00  0.00     0.019 C 
BRANCH  23  24
ATOM     24  C   UNL d   1     -38.485  12.983  18.387  0.00  0.00     0.002 C 
BRANCH  24  25
ATOM     25  C   UNL d   1     -38.299  12.493  17.742  0.00  0.00     0.000 C 
ATOM     26  C   UNL d   1     -38.053  11.708  17.876  0.00  0.00     0.000 C 
ENDBRANCH  24  25
ENDBRANCH  23  24
ENDBRANCH  22  23
ENDBRANCH   3  22
TORSDOF 8
ENDMDL
MODEL 5
REMARK VINA RESULT:      -3.7      7.495     10.484
REMARK  8 active torsions:
REMARK  status: ('A' for Active; 'I' for Inactive)
REMARK    1  A    between atoms: C_4  and  C_1 
REMARK    2  A    between atoms: C_11  and  N_3 
REMARK    3  A    between atoms: N_7  and  C_4 
REMARK    4  A    between atoms: C_9  and  C_4 
REMARK       I    between atoms: C_8  and  N_7 
REMARK    5  A    between atoms: C_12  and  C_9 
REMARK    6  A    between atoms: C_18  and  C_11 
REMARK    7  A    between atoms: C_20  and  C_18 
REMARK    8  A    between atoms: C_19  and  C_20 
ROOT
ATOM      1  C   UNL d   1     -48.878  12.558  23.042  0.00  0.00     0.166 A 
ATOM      2  N   UNL d   1     -48.926  11.806  23.385  0.00  0.00    -0.225 NA
ATOM      3  N   UNL d   1     -48.089  12.706  22.861  0.00  0.00    -0.288 N 
ATOM      4  C   UNL d   1     -47.643  12.048  23.089  0.00  0.00     0.083 A 
ATOM      5  C   UNL d   1     -48.169  11.493  23.414  0.00  0.00     0.099 A 
ATOM      6  C   UNL d   1     -46.841  11.888  23.044  0.00  0.00     0.019 A 
ATOM      7  C   UNL d   1     -47.881  10.774  23.692  0.00  0.00     0.021 A 
ATOM      8  C   UNL d   1     -46.549  11.167  23.323  0.00  0.00     0.002 A 
ATOM      9  C   UNL d   1     -47.068  10.607  23.649  0.00  0.00     0.002 A 
ENDROOT
BRANCH   1  10
ATOM     10  C   UNL d   1     -49.513  13.073  22.905  0.00  0.00     0.119 C 
BRANCH  10  11
ATOM     11  N   UNL d   1     -49.739  13.250  22.134  0.00  0.00    -0.205 NA
ATOM     12  C   UNL d   1     -50.290  12.778  21.742  0.00  0.00     0.280 C 
ATOM     13  O   UNL d   1     -50.516  12.955  20.971  0.00  0.00    -0.265 OA
ATOM     14  C   UNL d   1     -50.620  12.119  22.126  0.00  0.00     0.068 C 
ENDBRANCH  10  11
BRANCH  10  15
ATOM     15  C   UNL d   1     -49.917  13.407  23.538  0.00  0.00     0.022 C 
BRANCH  15  16
ATOM     16  C   UNL d   1     -50.107  14.205  23.534  0.00  0.00     0.002 A 
ATOM     17  C   UNL d   1     -50.874  14.453  23.370  0.00  0.00     0.000 A 
ATOM     18  C   UNL d   1     -51.063  15.256  23.366  0.00  0.00     0.000 A 
ATOM     19  C   UNL d   1     -50.481  15.814  23.528  0.00  0.00     0.000 A 
ATOM     20  C   UNL d   1     -49.706  15.565  23.694  0.00  0.00     0.000 A 
ATOM     21  C   UNL d   1     -49.524  14.764  23.696  0.00  0.00     0.000 A 
ENDBRANCH  15  16
ENDBRANCH  10  15
ENDBRANCH   1  10
BRANCH   3  22
ATOM     22  C   UNL d   1     -47.791  13.395  22.510  0.00  0.00     0.082 C 
BRANCH  22  23
ATOM     23  C   UNL d   1     -47.071  13.710  22.766  0.00  0.00     0.019 C 
BRANCH  23  24
ATOM     24  C   UNL d   1     -46.790  14.421  22.456  0.00  0.00     0.002 C 
BRANCH  24  25
ATOM     25  C   UNL d   1     -46.151  14.800  22.827  0.00  0.00     0.000 C 
ATOM     26  C   UNL d   1     -45.554  15.153  22.364  0.00  0.00     0.000 C 
ENDBRANCH  24  25
ENDBRANCH  23  24
ENDBRANCH  22  23
ENDBRANCH   3  22
TORSDOF 8
ENDMDL
MODEL 6
REMARK VINA RESULT:      -3.6      6.945      9.513
REMARK  8 active torsions:
REMARK  status: ('A' for Active; 'I' for Inactive)
REMARK    1  A    between atoms: C_4  and  C_1 
REMARK    2  A    between atoms: C_11  and  N_3 
REMARK    3  A    between atoms: N_7  and  C_4 
REMARK    4  A    between atoms: C_9  and  C_4 
REMARK       I    between atoms: C_8  and  N_7 
REMARK    5  A    between atoms: C_12  and  C_9 
REMARK    6  A    between atoms: C_18  and  C_11 
REMARK    7  A    between atoms: C_20  and  C_18 
REMARK    8  A    between atoms: C_19  and  C_20 
ROOT
ATOM      1  C   UNL d   1     -47.593  13.692  22.260  0.00  0.00     0.166 A 
ATOM      2  N   UNL d   1     -46.912  13.900  21.836  0.00  0.00    -0.225 NA
ATOM      3  N   UNL d   1     -47.403  13.065  22.757  0.00  0.00    -0.288 N 
ATOM      4  C   UNL d   1     -46.605  12.879  22.647  0.00  0.00     0.083 A 
ATOM      5  C   UNL d   1     -46.306  13.401  22.073  0.00  0.00     0.099 A 
ATOM      6  C   UNL d   1     -46.122  12.312  22.988  0.00  0.00     0.019 A 
ATOM      7  C   UNL d   1     -45.517  13.347  21.847  0.00  0.00     0.021 A 
ATOM      8  C   UNL d   1     -45.330  12.256  22.762  0.00  0.00     0.002 A 
ATOM      9  C   UNL d   1     -45.023  12.774  22.190  0.00  0.00     0.002 A 
ENDROOT
BRANCH   1  10
ATOM     10  C   UNL d   1     -48.336  14.053  22.194  0.00  0.00     0.119 C 
BRANCH  10  11
ATOM     11  N   UNL d   1     -48.689  14.390  22.857  0.00  0.00    -0.205 NA
ATOM     12  C   UNL d   1     -48.603  15.196  23.010  0.00  0.00     0.280 C 
ATOM     13  O   UNL d   1     -48.956  15.533  23.673  0.00  0.00    -0.265 OA
ATOM     14  C   UNL d   1     -48.160  15.673  22.494  0.00  0.00     0.068 C 
ENDBRANCH  10  11
BRANCH  10  15
ATOM     15  C   UNL d   1     -48.722  14.075  21.469  0.00  0.00     0.022 C 
BRANCH  15  16
ATOM     16  C   UNL d   1     -49.493  13.802  21.401  0.00  0.00     0.002 A 
ATOM     17  C   UNL d   1     -50.119  14.229  21.722  0.00  0.00     0.000 A 
ATOM     18  C   UNL d   1     -50.893  13.954  21.654  0.00  0.00     0.000 A 
ATOM     19  C   UNL d   1     -51.042  13.246  21.261  0.00  0.00     0.000 A 
ATOM     20  C   UNL d   1     -50.412  12.814  20.937  0.00  0.00     0.000 A 
ATOM     21  C   UNL d   1     -49.643  13.094  21.009  0.00  0.00     0.000 A 
ENDBRANCH  15  16
ENDBRANCH  10  15
ENDBRANCH   1  10
BRANCH   3  22
ATOM     22  C   UNL d   1     -47.921  12.684  23.280  0.00  0.00     0.082 C 
BRANCH  22  23
ATOM     23  C   UNL d   1     -47.988  11.861  23.267  0.00  0.00     0.019 C 
BRANCH  23  24
ATOM     24  C   UNL d   1     -48.580  11.481  23.698  0.00  0.00     0.002 C 
BRANCH  24  25
ATOM     25  C   UNL d   1     -49.048  10.907  23.323  0.00  0.00     0.000 C 
ATOM     26  C   UNL d   1     -49.802  10.723  23.628  0.00  0.00     0.000 C 
ENDBRANCH  24  25
ENDBRANCH  23  24
ENDBRANCH  22  23
ENDBRANCH   3  22
TORSDOF 8
ENDMDL
MODEL 7
REMARK VINA RESULT:      -3.2      1.328      3.989
REMARK  8 active torsions:
REMARK  status: ('A' for Active; 'I' for Inactive)
REMARK    1  A    between atoms: C_4  and  C_1 
REMARK    2  A    between atoms: C_11  and  N_3 
REMARK    3  A    between atoms: N_7  and  C_4 
REMARK    4  A    between atoms: C_9  and  C_4 
REMARK       I    between atoms: C_8  and  N_7 
REMARK    5  A    between atoms: C_12  and  C_9 
REMARK    6  A    between atoms: C_18  and  C_11 
REMARK    7  A    between atoms: C_20  and  C_18 
REMARK    8  A    between atoms: C_19  and  C_20 
ROOT
ATOM      1  C   UNL d   1     -39.007  14.027  19.147  0.00  0.00     0.166 A 
ATOM      2  N   UNL d   1     -38.612  13.300  19.150  0.00  0.00    -0.225 NA
ATOM      3  N   UNL d   1     -39.075  14.277  18.366  0.00  0.00    -0.288 N 
ATOM      4  C   UNL d   1     -38.722  13.709  17.880  0.00  0.00     0.083 A 
ATOM      5  C   UNL d   1     -38.437  13.105  18.374  0.00  0.00     0.099 A 
ATOM      6  C   UNL d   1     -38.627  13.666  17.068  0.00  0.00     0.019 A 
ATOM      7  C   UNL d   1     -38.054  12.456  18.042  0.00  0.00     0.021 A 
ATOM      8  C   UNL d   1     -38.244  13.016  16.733  0.00  0.00     0.002 A 
ATOM      9  C   UNL d   1     -37.955  12.407  17.219  0.00  0.00     0.002 A 
ENDROOT
BRANCH   1  10
ATOM     10  C   UNL d   1     -39.287  14.433  19.813  0.00  0.00     0.119 C 
BRANCH  10  11
ATOM     11  N   UNL d   1     -38.788  14.563  20.455  0.00  0.00    -0.205 NA
ATOM     12  C   UNL d   1     -38.439  15.301  20.568  0.00  0.00     0.280 C 
ATOM     13  O   UNL d   1     -37.940  15.431  21.209  0.00  0.00    -0.265 OA
ATOM     14  C   UNL d   1     -38.590  15.920  20.034  0.00  0.00     0.068 C 
ENDBRANCH  10  11
BRANCH  10  15
ATOM     15  C   UNL d   1     -40.062  14.707  19.835  0.00  0.00     0.022 C 
BRANCH  15  16
ATOM     16  C   UNL d   1     -40.607  14.367  20.346  0.00  0.00     0.002 A 
ATOM     17  C   UNL d   1     -40.370  14.074  21.077  0.00  0.00     0.000 A 
ATOM     18  C   UNL d   1     -40.919  13.733  21.589  0.00  0.00     0.000 A 
ATOM     19  C   UNL d   1     -41.710  13.685  21.369  0.00  0.00     0.000 A 
ATOM     20  C   UNL d   1     -41.951  13.980  20.630  0.00  0.00     0.000 A 
ATOM     21  C   UNL d   1     -41.398  14.318  20.125  0.00  0.00     0.000 A 
ENDBRANCH  15  16
ENDBRANCH  10  15
ENDBRANCH   1  10
BRANCH   3  22
ATOM     22  C   UNL d   1     -39.434  14.979  18.109  0.00  0.00     0.082 C 
BRANCH  22  23
ATOM     23  C   UNL d   1     -39.793  15.009  17.365  0.00  0.00     0.019 C 
BRANCH  23  24
ATOM     24  C   UNL d   1     -40.058  15.727  17.057  0.00  0.00     0.002 C 
BRANCH  24  25
ATOM     25  C   UNL d   1     -40.648  15.723  16.473  0.00  0.00     0.000 C 
ATOM     26  C   UNL d   1     -41.447  15.822  16.691  0.00  0.00     0.000 C 
ENDBRANCH  24  25
ENDBRANCH  23  24
ENDBRANCH  22  23
ENDBRANCH   3  22
TORSDOF 8
ENDMDL
MODEL 8
REMARK VINA RESULT:      -2.7      7.639     10.094
REMARK  8 active torsions:
REMARK  status: ('A' for Active; 'I' for Inactive)
REMARK    1  A    between atoms: C_4  and  C_1 
REMARK    2  A    between atoms: C_11  and  N_3 
REMARK    3  A    between atoms: N_7  and  C_4 
REMARK    4  A    between atoms: C_9  and  C_4 
REMARK       I    between atoms: C_8  and  N_7 
REMARK    5  A    between atoms: C_12  and  C_9 
REMARK    6  A    between atoms: C_18  and  C_11 
REMARK    7  A    between atoms: C_20  and  C_18 
REMARK    8  A    between atoms: C_19  and  C_20 
ROOT
ATOM      1  C   UNL d   1     -49.271  13.433  23.083  0.00  0.00     0.166 A 
ATOM      2  N   UNL d   1     -50.090  13.465  23.197  0.00  0.00    -0.225 NA
ATOM      3  N   UNL d   1     -48.972  14.195  23.166  0.00  0.00    -0.288 N 
ATOM      4  C   UNL d   1     -49.601  14.705  23.332  0.00  0.00     0.083 A 
ATOM      5  C   UNL d   1     -50.293  14.245  23.351  0.00  0.00     0.099 A 
ATOM      6  C   UNL d   1     -49.631  15.512  23.467  0.00  0.00     0.019 A 
ATOM      7  C   UNL d   1     -51.016  14.605  23.506  0.00  0.00     0.021 A 
ATOM      8  C   UNL d   1     -50.356  15.876  23.623  0.00  0.00     0.002 A 
ATOM      9  C   UNL d   1     -51.053  15.424  23.643  0.00  0.00     0.002 A 
ENDROOT
BRANCH   1  10
ATOM     10  C   UNL d   1     -48.829  12.753  22.913  0.00  0.00     0.119 C 
BRANCH  10  11
ATOM     11  N   UNL d   1     -48.573  12.610  22.145  0.00  0.00    -0.205 NA
ATOM     12  C   UNL d   1     -49.073  12.246  21.599  0.00  0.00     0.280 C 
ATOM     13  O   UNL d   1     -48.817  12.104  20.830  0.00  0.00    -0.265 OA
ATOM     14  C   UNL d   1     -49.840  12.021  21.824  0.00  0.00     0.068 C 
ENDBRANCH  10  11
BRANCH  10  15
ATOM     15  C   UNL d   1     -48.646  12.220  23.512  0.00  0.00     0.022 C 
BRANCH  15  16
ATOM     16  C   UNL d   1     -47.915  11.847  23.526  0.00  0.00     0.002 A 
ATOM     17  C   UNL d   1     -47.855  11.037  23.397  0.00  0.00     0.000 A 
ATOM     18  C   UNL d   1     -47.120  10.664  23.411  0.00  0.00     0.000 A 
ATOM     19  C   UNL d   1     -46.441  11.104  23.557  0.00  0.00     0.000 A 
ATOM     20  C   UNL d   1     -46.499  11.922  23.688  0.00  0.00     0.000 A 
ATOM     21  C   UNL d   1     -47.235  12.288  23.672  0.00  0.00     0.000 A 
ENDBRANCH  15  16
ENDBRANCH  10  15
ENDBRANCH   1  10
BRANCH   3  22
ATOM     22  C   UNL d   1     -48.176  14.415  23.095  0.00  0.00     0.082 C 
BRANCH  22  23
ATOM     23  C   UNL d   1     -47.959  15.011  22.566  0.00  0.00     0.019 C 
BRANCH  23  24
ATOM     24  C   UNL d   1     -47.235  15.399  22.644  0.00  0.00     0.002 C 
BRANCH  24  25
ATOM     25  C   UNL d   1     -46.532  14.960  22.581  0.00  0.00     0.000 C 
ATOM     26  C   UNL d   1     -45.901  15.254  22.122  0.00  0.00     0.000 C 
ENDBRANCH  24  25
ENDBRANCH  23  24
ENDBRANCH  22  23
ENDBRANCH   3  22
TORSDOF 8
ENDMDL
MODEL 9
REMARK VINA RESULT:      -2.5      1.151      3.810
REMARK  8 active torsions:
REMARK  status: ('A' for Active; 'I' for Inactive)
REMARK    1  A    between atoms: C_4  and  C_1 
REMARK    2  A    between atoms: C_11  and  N_3 
REMARK    3  A    between atoms: N_7  and  C_4 
REMARK    4  A    between atoms: C_9  and  C_4 
REMARK       I    between atoms: C_8  and  N_7 
REMARK    5  A    between atoms: C_12  and  C_9 
REMARK    6  A    between atoms: C_18  and  C_11 
REMARK    7  A    between atoms: C_20  and  C_18 
REMARK    8  A    between atoms: C_19  and  C_20 
ROOT
ATOM      1  C   UNL d   1     -39.367  13.963  19.040  0.00  0.00     0.166 A 
ATOM      2  N   UNL d   1     -38.872  13.309  18.929  0.00  0.00    -0.225 NA
ATOM      3  N   UNL d   1     -39.457  14.341  18.315  0.00  0.00    -0.288 N 
ATOM      4  C   UNL d   1     -39.020  13.926  17.749  0.00  0.00     0.083 A 
ATOM      5  C   UNL d   1     -38.659  13.286  18.137  0.00  0.00     0.099 A 
ATOM      6  C   UNL d   1     -38.908  14.046  16.947  0.00  0.00     0.019 A 
ATOM      7  C   UNL d   1     -38.183  12.768  17.710  0.00  0.00     0.021 A 
ATOM      8  C   UNL d   1     -38.431  13.528  16.517  0.00  0.00     0.002 A 
ATOM      9  C   UNL d   1     -38.066  12.885  16.896  0.00  0.00     0.002 A 
ENDROOT
BRANCH   1  10
ATOM     10  C   UNL d   1     -39.711  14.197  19.757  0.00  0.00     0.119 C 
BRANCH  10  11
ATOM     11  N   UNL d   1     -40.421  14.614  19.754  0.00  0.00    -0.205 NA
ATOM     12  C   UNL d   1     -41.074  14.327  20.169  0.00  0.00     0.280 C 
ATOM     13  O   UNL d   1     -41.784  14.743  20.167  0.00  0.00    -0.265 OA
ATOM     14  C   UNL d   1     -41.017  13.614  20.593  0.00  0.00     0.068 C 
ENDBRANCH  10  11
BRANCH  10  15
ATOM     15  C   UNL d   1     -39.346  14.015  20.470  0.00  0.00     0.022 C 
BRANCH  15  16
ATOM     16  C   UNL d   1     -38.883  14.574  20.854  0.00  0.00     0.002 A 
ATOM     17  C   UNL d   1     -38.892  15.361  20.614  0.00  0.00     0.000 A 
ATOM     18  C   UNL d   1     -38.427  15.921  21.000  0.00  0.00     0.000 A 
ATOM     19  C   UNL d   1     -37.950  15.693  21.630  0.00  0.00     0.000 A 
ATOM     20  C   UNL d   1     -37.940  14.899  21.874  0.00  0.00     0.000 A 
ATOM     21  C   UNL d   1     -38.406  14.345  21.484  0.00  0.00     0.000 A 
ENDBRANCH  15  16
ENDBRANCH  10  15
ENDBRANCH   1  10
BRANCH   3  22
ATOM     22  C   UNL d   1     -39.909  15.022  18.174  0.00  0.00     0.082 C 
BRANCH  22  23
ATOM     23  C   UNL d   1     -40.183  15.184  17.411  0.00  0.00     0.019 C 
BRANCH  23  24
ATOM     24  C   UNL d   1     -40.866  15.632  17.298  0.00  0.00     0.002 C 
BRANCH  24  25
ATOM     25  C   UNL d   1     -41.230  15.632  16.551  0.00  0.00     0.000 C 
ATOM     26  C   UNL d   1     -42.007  15.922  16.470  0.00  0.00     0.000 C 
ENDBRANCH  24  25
ENDBRANCH  23  24
ENDBRANCH  22  23
ENDBRANCH   3  22
TORSDOF 8
ENDMDL
