MODEL 1
REMARK VINA RESULT:      -7.1      0.000      0.000
REMARK  4 active torsions:
REMARK  status: ('A' for Active; 'I' for Inactive)
REMARK    1  A    between atoms: C_2  and  S_1 
REMARK    2  A    between atoms: N_3  and  S_1 
REMARK    3  A    between atoms: C_16  and  C_7 
REMARK    4  A    between atoms: O_17  and  C_8 
ROOT
ATOM      1  C   UNL d   1     -49.302  13.582  22.835  0.00  0.00     0.126 A 
ATOM      2  C   UNL d   1     -49.444  14.279  23.249  0.00  0.00     0.015 A 
ATOM      3  C   UNL d   1     -50.109  14.723  23.075  0.00  0.00     0.001 A 
ATOM      4  C   UNL d   1     -49.816  13.326  22.252  0.00  0.00     0.106 A 
ATOM      5  C   UNL d   1     -50.634  14.474  22.489  0.00  0.00     0.002 A 
ATOM      6  C   UNL d   1     -50.485  13.773  22.077  0.00  0.00     0.025 A 
ENDROOT
BRANCH   1   7
ATOM      7  S   UNL d   1     -48.631  13.131  23.009  0.00  0.00     0.273 S 
ATOM      8  O   UNL d   1     -48.236  13.472  22.367  0.00  0.00    -0.200 OA
ATOM      9  O   UNL d   1     -49.026  12.790  23.650  0.00  0.00    -0.200 OA
BRANCH   7  10
ATOM     10  N   UNL d   1     -47.960  12.680  23.182  0.00  0.00    -0.226 N 
ATOM     11  C   UNL d   1     -47.208  12.978  23.019  0.00  0.00     0.111 A 
ATOM     12  C   UNL d   1     -46.541  12.534  23.189  0.00  0.00     0.100 A 
ATOM     13  N   UNL d   1     -46.616  11.781  23.528  0.00  0.00    -0.299 N 
ATOM     14  C   UNL d   1     -47.370  11.480  23.692  0.00  0.00     0.100 A 
ATOM     15  C   UNL d   1     -45.940  11.336  23.698  0.00  0.00     0.100 C 
ATOM     16  C   UNL d   1     -48.041  11.931  23.519  0.00  0.00     0.111 A 
ENDBRANCH   7  10
ENDBRANCH   1   7
BRANCH   4  17
ATOM     17  O   UNL d   1     -49.660  12.620  21.842  0.00  0.00    -0.327 OA
ATOM     18  C   UNL d   1     -50.209  12.342  21.296  0.00  0.00     0.181 C 
ENDBRANCH   4  17
BRANCH   3  19
ATOM     19  C   UNL d   1     -50.254  15.422  23.487  0.00  0.00     0.000 C 
ATOM     20  C   UNL d   1     -49.635  15.922  23.689  0.00  0.00     0.000 C 
ATOM     21  C   UNL d   1     -51.030  15.616  23.696  0.00  0.00     0.000 C 
ENDBRANCH   3  19
TORSDOF 4
ENDMDL
MODEL 2
REMARK VINA RESULT:      -6.8      1.256      1.511
REMARK  4 active torsions:
REMARK  status: ('A' for Active; 'I' for Inactive)
REMARK    1  A    between atoms: C_2  and  S_1 
REMARK    2  A    between atoms: N_3  and  S_1 
REMARK    3  A    between atoms: C_16  and  C_7 
REMARK    4  A    between atoms: O_17  and  C_8 
ROOT
ATOM      1  C   UNL d   1     -49.118  13.469  23.055  0.00  0.00     0.126 A 
ATOM      2  C   UNL d   1     -49.520  14.180  22.957  0.00  0.00     0.015 A 
ATOM      3  C   UNL d   1     -50.316  14.222  23.144  0.00  0.00     0.001 A 
ATOM      4  C   UNL d   1     -49.502  12.804  23.337  0.00  0.00     0.106 A 
ATOM      5  C   UNL d   1     -50.712  13.557  23.428  0.00  0.00     0.002 A 
ATOM      6  C   UNL d   1     -50.302  12.846  23.525  0.00  0.00     0.025 A 
ENDROOT
BRANCH   1   7
ATOM      7  S   UNL d   1     -48.314  13.423  22.867  0.00  0.00     0.273 S 
ATOM      8  O   UNL d   1     -48.507  13.245  22.083  0.00  0.00    -0.200 OA
ATOM      9  O   UNL d   1     -48.120  13.600  23.651  0.00  0.00    -0.200 OA
BRANCH   7  10
ATOM     10  N   UNL d   1     -47.510  13.376  22.679  0.00  0.00    -0.226 N 
ATOM     11  C   UNL d   1     -46.949  13.726  23.173  0.00  0.00     0.111 A 
ATOM     12  C   UNL d   1     -46.152  13.682  22.990  0.00  0.00     0.100 A 
ATOM     13  N   UNL d   1     -45.902  13.285  22.307  0.00  0.00    -0.299 N 
ATOM     14  C   UNL d   1     -46.463  12.933  21.809  0.00  0.00     0.100 A 
ATOM     15  C   UNL d   1     -45.096  13.243  22.126  0.00  0.00     0.100 C 
ATOM     16  C   UNL d   1     -47.267  12.980  21.997  0.00  0.00     0.111 A 
ENDBRANCH   7  10
ENDBRANCH   1   7
BRANCH   4  17
ATOM     17  O   UNL d   1     -49.083  12.092  23.431  0.00  0.00    -0.327 OA
ATOM     18  C   UNL d   1     -49.481  11.422  23.698  0.00  0.00     0.181 C 
ENDBRANCH   4  17
BRANCH   3  19
ATOM     19  C   UNL d   1     -50.722  14.933  23.046  0.00  0.00     0.000 C 
ATOM     20  C   UNL d   1     -50.787  15.463  23.670  0.00  0.00     0.000 C 
ATOM     21  C   UNL d   1     -51.064  15.109  22.314  0.00  0.00     0.000 C 
ENDBRANCH   3  19
TORSDOF 4
ENDMDL
MODEL 3
REMARK VINA RESULT:      -6.8      1.275      3.926
REMARK  4 active torsions:
REMARK  status: ('A' for Active; 'I' for Inactive)
REMARK    1  A    between atoms: C_2  and  S_1 
REMARK    2  A    between atoms: N_3  and  S_1 
REMARK    3  A    between atoms: C_16  and  C_7 
REMARK    4  A    between atoms: O_17  and  C_8 
ROOT
ATOM      1  C   UNL d   1     -47.438  13.074  22.761  0.00  0.00     0.126 A 
ATOM      2  C   UNL d   1     -46.749  13.412  22.463  0.00  0.00     0.015 A 
ATOM      3  C   UNL d   1     -46.033  13.033  22.576  0.00  0.00     0.001 A 
ATOM      4  C   UNL d   1     -47.417  12.365  23.168  0.00  0.00     0.106 A 
ATOM      5  C   UNL d   1     -46.001  12.317  22.985  0.00  0.00     0.002 A 
ATOM      6  C   UNL d   1     -46.697  11.983  23.282  0.00  0.00     0.025 A 
ENDROOT
BRANCH   1   7
ATOM      7  S   UNL d   1     -48.164  13.455  22.649  0.00  0.00     0.273 S 
ATOM      8  O   UNL d   1     -48.306  12.987  21.982  0.00  0.00    -0.200 OA
ATOM      9  O   UNL d   1     -48.021  13.923  23.316  0.00  0.00    -0.200 OA
BRANCH   7  10
ATOM     10  N   UNL d   1     -48.889  13.835  22.537  0.00  0.00    -0.226 N 
ATOM     11  C   UNL d   1     -49.184  14.342  23.118  0.00  0.00     0.111 A 
ATOM     12  C   UNL d   1     -49.902  14.720  23.011  0.00  0.00     0.100 A 
ATOM     13  N   UNL d   1     -50.340  14.598  22.317  0.00  0.00    -0.299 N 
ATOM     14  C   UNL d   1     -50.045  14.089  21.733  0.00  0.00     0.100 A 
ATOM     15  C   UNL d   1     -51.064  14.982  22.214  0.00  0.00     0.100 C 
ATOM     16  C   UNL d   1     -49.320  13.709  21.845  0.00  0.00     0.111 A 
ENDBRANCH   7  10
ENDBRANCH   1   7
BRANCH   4  17
ATOM     17  O   UNL d   1     -48.121  12.035  23.464  0.00  0.00    -0.327 OA
ATOM     18  C   UNL d   1     -48.129  11.246  23.698  0.00  0.00     0.181 C 
ENDBRANCH   4  17
BRANCH   3  19
ATOM     19  C   UNL d   1     -45.341  13.368  22.279  0.00  0.00     0.000 C 
ATOM     20  C   UNL d   1     -45.163  14.155  22.429  0.00  0.00     0.000 C 
ATOM     21  C   UNL d   1     -44.826  12.905  21.827  0.00  0.00     0.000 C 
ENDBRANCH   3  19
TORSDOF 4
ENDMDL
MODEL 4
REMARK VINA RESULT:      -5.8      9.614     10.815
REMARK  4 active torsions:
REMARK  status: ('A' for Active; 'I' for Inactive)
REMARK    1  A    between atoms: C_2  and  S_1 
REMARK    2  A    between atoms: N_3  and  S_1 
REMARK    3  A    between atoms: C_16  and  C_7 
REMARK    4  A    between atoms: O_17  and  C_8 
ROOT
ATOM      1  C   UNL d   1     -39.455  14.573  18.521  0.00  0.00     0.126 A 
ATOM      2  C   UNL d   1     -38.948  13.981  18.260  0.00  0.00     0.015 A 
ATOM      3  C   UNL d   1     -38.977  13.740  17.478  0.00  0.00     0.001 A 
ATOM      4  C   UNL d   1     -39.989  14.925  18.011  0.00  0.00     0.106 A 
ATOM      5  C   UNL d   1     -39.512  14.089  16.956  0.00  0.00     0.002 A 
ATOM      6  C   UNL d   1     -40.019  14.684  17.225  0.00  0.00     0.025 A 
ENDROOT
BRANCH   1   7
ATOM      7  S   UNL d   1     -39.428  14.819  19.311  0.00  0.00     0.273 S 
ATOM      8  O   UNL d   1     -38.818  15.346  19.126  0.00  0.00    -0.200 OA
ATOM      9  O   UNL d   1     -40.038  14.291  19.496  0.00  0.00    -0.200 OA
BRANCH   7  10
ATOM     10  N   UNL d   1     -39.401  15.064  20.100  0.00  0.00    -0.226 N 
ATOM     11  C   UNL d   1     -38.895  15.676  20.325  0.00  0.00     0.111 A 
ATOM     12  C   UNL d   1     -38.866  15.921  21.106  0.00  0.00     0.100 A 
ATOM     13  N   UNL d   1     -39.344  15.558  21.676  0.00  0.00    -0.299 N 
ATOM     14  C   UNL d   1     -39.853  14.944  21.452  0.00  0.00     0.100 A 
ATOM     15  C   UNL d   1     -39.311  15.809  22.464  0.00  0.00     0.100 C 
ATOM     16  C   UNL d   1     -39.880  14.698  20.663  0.00  0.00     0.111 A 
ENDBRANCH   7  10
ENDBRANCH   1   7
BRANCH   4  17
ATOM     17  O   UNL d   1     -40.496  15.523  18.289  0.00  0.00    -0.327 OA
ATOM     18  C   UNL d   1     -40.997  15.905  17.759  0.00  0.00     0.181 C 
ENDBRANCH   4  17
BRANCH   3  19
ATOM     19  C   UNL d   1     -38.470  13.147  17.213  0.00  0.00     0.000 C 
ATOM     20  C   UNL d   1     -38.486  12.402  17.558  0.00  0.00     0.000 C 
ATOM     21  C   UNL d   1     -37.944  13.308  16.595  0.00  0.00     0.000 C 
ENDBRANCH   3  19
TORSDOF 4
ENDMDL
MODEL 5
REMARK VINA RESULT:      -5.4      9.655     10.622
REMARK  4 active torsions:
REMARK  status: ('A' for Active; 'I' for Inactive)
REMARK    1  A    between atoms: C_2  and  S_1 
REMARK    2  A    between atoms: N_3  and  S_1 
REMARK    3  A    between atoms: C_16  and  C_7 
REMARK    4  A    between atoms: O_17  and  C_8 
ROOT
ATOM      1  C   UNL d   1     -39.466  14.739  18.732  0.00  0.00     0.126 A 
ATOM      2  C   UNL d   1     -39.927  15.196  18.226  0.00  0.00     0.015 A 
ATOM      3  C   UNL d   1     -39.999  14.979  17.440  0.00  0.00     0.001 A 
ATOM      4  C   UNL d   1     -39.078  14.072  18.460  0.00  0.00     0.106 A 
ATOM      5  C   UNL d   1     -39.612  14.308  17.156  0.00  0.00     0.002 A 
ATOM      6  C   UNL d   1     -39.150  13.854  17.670  0.00  0.00     0.025 A 
ENDROOT
BRANCH   1   7
ATOM      7  S   UNL d   1     -39.390  14.955  19.526  0.00  0.00     0.273 S 
ATOM      8  O   UNL d   1     -40.050  14.494  19.714  0.00  0.00    -0.200 OA
ATOM      9  O   UNL d   1     -38.730  15.417  19.338  0.00  0.00    -0.200 OA
BRANCH   7  10
ATOM     10  N   UNL d   1     -39.315  15.171  20.321  0.00  0.00    -0.226 N 
ATOM     11  C   UNL d   1     -39.826  14.853  20.886  0.00  0.00     0.111 A 
ATOM     12  C   UNL d   1     -39.754  15.065  21.674  0.00  0.00     0.100 A 
ATOM     13  N   UNL d   1     -39.168  15.600  21.911  0.00  0.00    -0.299 N 
ATOM     14  C   UNL d   1     -38.654  15.921  21.345  0.00  0.00     0.100 A 
ATOM     15  C   UNL d   1     -39.099  15.811  22.707  0.00  0.00     0.100 C 
ATOM     16  C   UNL d   1     -38.729  15.705  20.550  0.00  0.00     0.111 A 
ENDBRANCH   7  10
ENDBRANCH   1   7
BRANCH   4  17
ATOM     17  O   UNL d   1     -38.615  13.620  18.982  0.00  0.00    -0.327 OA
ATOM     18  C   UNL d   1     -38.187  12.980  18.691  0.00  0.00     0.181 C 
ENDBRANCH   4  17
BRANCH   3  19
ATOM     19  C   UNL d   1     -40.461  15.434  16.930  0.00  0.00     0.000 C 
ATOM     20  C   UNL d   1     -41.280  15.406  16.975  0.00  0.00     0.000 C 
ATOM     21  C   UNL d   1     -40.092  15.921  16.373  0.00  0.00     0.000 C 
ENDBRANCH   3  19
TORSDOF 4
ENDMDL
MODEL 6
REMARK VINA RESULT:      -5.0      8.691     10.118
REMARK  4 active torsions:
REMARK  status: ('A' for Active; 'I' for Inactive)
REMARK    1  A    between atoms: C_2  and  S_1 
REMARK    2  A    between atoms: N_3  and  S_1 
REMARK    3  A    between atoms: C_16  and  C_7 
REMARK    4  A    between atoms: O_17  and  C_8 
ROOT
ATOM      1  C   UNL d   1     -39.723  14.781  20.126  0.00  0.00     0.126 A 
ATOM      2  C   UNL d   1     -39.397  14.533  19.413  0.00  0.00     0.015 A 
ATOM      3  C   UNL d   1     -39.754  14.749  18.709  0.00  0.00     0.001 A 
ATOM      4  C   UNL d   1     -40.400  15.241  20.142  0.00  0.00     0.106 A 
ATOM      5  C   UNL d   1     -40.436  15.213  18.714  0.00  0.00     0.002 A 
ATOM      6  C   UNL d   1     -40.759  15.459  19.434  0.00  0.00     0.025 A 
ENDROOT
BRANCH   1   7
ATOM      7  S   UNL d   1     -39.365  14.564  20.839  0.00  0.00     0.273 S 
ATOM      8  O   UNL d   1     -38.857  15.214  20.782  0.00  0.00    -0.200 OA
ATOM      9  O   UNL d   1     -39.873  13.913  20.896  0.00  0.00    -0.200 OA
BRANCH   7  10
ATOM     10  N   UNL d   1     -39.007  14.347  21.552  0.00  0.00    -0.226 N 
ATOM     11  C   UNL d   1     -39.187  13.621  21.901  0.00  0.00     0.111 A 
ATOM     12  C   UNL d   1     -38.834  13.403  22.607  0.00  0.00     0.100 A 
ATOM     13  N   UNL d   1     -38.293  13.910  22.978  0.00  0.00    -0.299 N 
ATOM     14  C   UNL d   1     -38.111  14.639  22.629  0.00  0.00     0.100 A 
ATOM     15  C   UNL d   1     -37.940  13.685  23.691  0.00  0.00     0.100 C 
ATOM     16  C   UNL d   1     -38.469  14.856  21.916  0.00  0.00     0.111 A 
ENDBRANCH   7  10
ENDBRANCH   1   7
BRANCH   4  17
ATOM     17  O   UNL d   1     -40.719  15.484  20.870  0.00  0.00    -0.327 OA
ATOM     18  C   UNL d   1     -41.417  15.921  20.879  0.00  0.00     0.181 C 
ENDBRANCH   4  17
BRANCH   3  19
ATOM     19  C   UNL d   1     -39.429  14.503  17.992  0.00  0.00     0.000 C 
ATOM     20  C   UNL d   1     -39.575  13.746  17.709  0.00  0.00     0.000 C 
ATOM     21  C   UNL d   1     -38.955  15.024  17.560  0.00  0.00     0.000 C 
ENDBRANCH   3  19
TORSDOF 4
ENDMDL
