MODEL 1
REMARK VINA RESULT:      36.4      0.000      0.000
REMARK  5 active torsions:
REMARK  status: ('A' for Active; 'I' for Inactive)
REMARK    1  A    between atoms: C_3  and  S_1 
REMARK    2  A    between atoms: N_5  and  S_1 
REMARK    3  A    between atoms: C_2  and  C_8 
REMARK       I    between atoms: N_4  and  C_2 
REMARK    4  A    between atoms: C_9  and  N_4 
REMARK    5  A    between atoms: O_17  and  C_16 
ROOT
ATOM      1  C   UNL d   1     -55.334-102.281 -39.177  0.00  0.00     0.104 A 
ATOM      2  C   UNL d   1     -55.130-102.157 -40.838  0.00  0.00     0.058 A 
ATOM      3  C   UNL d   1     -55.723-102.760 -39.678  0.00  0.00     0.013 A 
ATOM      4  C   UNL d   1     -54.834-101.729 -39.496  0.00  0.00     0.013 A 
ATOM      5  C   UNL d   1     -54.711-101.643 -40.307  0.00  0.00     0.005 A 
ATOM      6  C   UNL d   1     -55.624-102.701 -40.499  0.00  0.00     0.005 A 
ENDROOT
BRANCH   2   7
ATOM      7  C   UNL d   1     -55.028-102.097 -41.679  0.00  0.00     0.279 C 
ATOM      8  N   UNL d   1     -55.031-101.411 -42.055  0.00  0.00    -0.208 NA
ATOM      9  O   UNL d   1     -54.921-102.829 -42.101  0.00  0.00    -0.265 OA
BRANCH   8  10
ATOM     10  C   UNL d   1     -54.930-101.383 -42.874  0.00  0.00     0.087 A 
ATOM     11  C   UNL d   1     -54.947-100.667 -43.250  0.00  0.00     0.043 A 
ATOM     12  C   UNL d   1     -54.846-100.639 -44.068  0.00  0.00     0.096 A 
ATOM     13  C   UNL d   1     -54.729-101.326 -44.510  0.00  0.00     0.024 A 
ATOM     14  C   UNL d   1     -54.713-102.061 -44.110  0.00  0.00     0.004 A 
ATOM     15  C   UNL d   1     -54.815-102.084 -43.292  0.00  0.00     0.019 A 
BRANCH  12  16
ATOM     16  O   UNL d   1     -54.859-100.076 -44.362  0.00  0.00    -0.328 OA
ATOM     17  C   UNL d   1     -55.490 -99.649 -44.659  0.00  0.00     0.181 C 
ENDBRANCH  12  16
ENDBRANCH   8  10
ENDBRANCH   2   7
BRANCH   1  18
ATOM     18  S   UNL d   1     -55.392-102.289 -38.290  0.00  0.00     0.271 S 
ATOM     19  O   UNL d   1     -54.752-101.753 -38.173  0.00  0.00    -0.200 OA
ATOM     20  O   UNL d   1     -56.004-102.801 -38.407  0.00  0.00    -0.200 OA
BRANCH  18  21
ATOM     21  N   UNL d   1     -55.506-102.344 -37.420  0.00  0.00    -0.226 N 
ATOM     22  C   UNL d   1     -56.070-102.876 -37.107  0.00  0.00     0.111 C 
ATOM     23  C   UNL d   1     -55.057-101.871 -36.913  0.00  0.00     0.111 C 
ENDBRANCH  18  21
ENDBRANCH   1  18
TORSDOF 5
ENDMDL
