MODEL 1
REMARK VINA RESULT:      33.7      0.000      0.000
REMARK  6 active torsions:
REMARK  status: ('A' for Active; 'I' for Inactive)
REMARK    1  A    between atoms: S_2  and  C_1 
REMARK    2  A    between atoms: N_3  and  C_1 
REMARK    3  A    between atoms: C_4  and  C_1 
REMARK    4  A    between atoms: C_6  and  S_2 
REMARK       I    between atoms: C_5  and  N_3 
REMARK    5  A    between atoms: C_9  and  C_5 
REMARK    6  A    between atoms: O_23  and  C_17 
ROOT
ATOM      1  C   UNL d   1      44.523 -15.639  44.267  0.00  0.00     0.193 C 
ENDROOT
BRANCH   1   2
ATOM      2  S   UNL d   1      44.929 -14.935  44.178  0.00  0.00     0.228 S 
ATOM      3  O   UNL d   1      45.224 -15.004  44.950  0.00  0.00    -0.216 OA
ATOM      4  O   UNL d   1      44.639 -14.858  43.405  0.00  0.00    -0.216 OA
BRANCH   2   5
ATOM      5  C   UNL d   1      45.347 -14.217  44.092  0.00  0.00     0.089 A 
ATOM      6  C   UNL d   1      45.873 -13.981  44.672  0.00  0.00     0.011 A 
ATOM      7  C   UNL d   1      46.285 -13.270  44.586  0.00  0.00     0.001 A 
ATOM      8  C   UNL d   1      46.165 -12.802  43.917  0.00  0.00     0.000 A 
ATOM      9  C   UNL d   1      45.633 -13.045  43.335  0.00  0.00     0.001 A 
ATOM     10  C   UNL d   1      46.582 -12.081  43.828  0.00  0.00     0.000 C 
ATOM     11  C   UNL d   1      45.227 -13.748  43.423  0.00  0.00     0.011 A 
ENDBRANCH   2   5
ENDBRANCH   1   2
BRANCH   1  12
ATOM     12  N   UNL d   1      44.802 -16.323  43.898  0.00  0.00    -0.195 NA
ATOM     13  C   UNL d   1      45.529 -16.639  44.118  0.00  0.00     0.280 C 
ATOM     14  O   UNL d   1      45.978 -16.275  44.707  0.00  0.00    -0.265 OA
BRANCH  13  15
ATOM     15  C   UNL d   1      45.809 -17.327  43.745  0.00  0.00     0.058 A 
ATOM     16  C   UNL d   1      45.852 -18.036  44.163  0.00  0.00     0.007 A 
ATOM     17  C   UNL d   1      46.130 -18.719  43.792  0.00  0.00     0.024 A 
ATOM     18  C   UNL d   1      46.365 -18.689  43.004  0.00  0.00     0.094 A 
ATOM     19  C   UNL d   1      46.323 -17.979  42.586  0.00  0.00     0.024 A 
ATOM     20  C   UNL d   1      46.046 -17.299  42.955  0.00  0.00     0.007 A 
BRANCH  18  21
ATOM     21  O   UNL d   1      46.646 -19.381  42.634  0.00  0.00    -0.328 OA
ATOM     22  C   UNL d   1      46.133 -20.021  42.500  0.00  0.00     0.181 C 
ENDBRANCH  18  21
ENDBRANCH  13  15
ENDBRANCH   1  12
BRANCH   1  23
ATOM     23  C   UNL d   1      43.836 -15.669  44.724  0.00  0.00     0.144 C 
ATOM     24 CL   UNL d   1      43.465 -14.969  44.955  0.00  0.00    -0.068 Cl
ATOM     25 CL   UNL d   1      43.522 -16.394  44.950  0.00  0.00    -0.068 Cl
ENDBRANCH   1  23
TORSDOF 6
ENDMDL
