MODEL 1
REMARK VINA RESULT:      10.7      0.000      0.000
REMARK  4 active torsions:
REMARK  status: ('A' for Active; 'I' for Inactive)
REMARK    1  A    between atoms: C_3  and  C_1 
REMARK    2  A    between atoms: C_4  and  C_3 
REMARK    3  A    between atoms: C_7  and  C_4 
REMARK    4  A    between atoms: C_14  and  C_7 
ROOT
ATOM      1  C   UNL d   1      45.905 -16.872  43.992  0.00  0.00     0.042 C 
ENDROOT
BRANCH   1   2
ATOM      2  C   UNL d   1      45.969 -17.686  44.152  0.00  0.00     0.199 C 
ATOM      3  O   UNL d   1      45.863 -17.973  44.954  0.00  0.00    -0.286 OA
BRANCH   2   4
ATOM      4  C   UNL d   1      46.130 -18.190  43.550  0.00  0.00     0.078 A 
ATOM      5  C   UNL d   1      46.462 -18.932  43.695  0.00  0.00     0.199 A 
ATOM      6  C   UNL d   1      46.623 -19.440  43.071  0.00  0.00     0.042 A 
ATOM      7  O   UNL d   1      46.643 -19.182  44.479  0.00  0.00    -0.286 OA
ATOM      8  C   UNL d   1      46.452 -19.209  42.296  0.00  0.00     0.003 A 
ATOM      9  C   UNL d   1      46.120 -18.468  42.151  0.00  0.00     0.000 A 
ATOM     10  C   UNL d   1      46.612 -19.718  41.671  0.00  0.00     0.000 C 
ATOM     11  C   UNL d   1      45.959 -17.957  42.781  0.00  0.00     0.006 A 
ENDBRANCH   2   4
ENDBRANCH   1   2
BRANCH   1  12
ATOM     12  C   UNL d   1      45.456 -16.384  44.488  0.00  0.00     0.003 C 
BRANCH  12  13
ATOM     13  C   UNL d   1      45.593 -15.574  44.497  0.00  0.00     0.002 A 
ATOM     14  C   UNL d   1      45.111 -15.071  44.052  0.00  0.00     0.027 A 
ATOM     15  C   UNL d   1      45.247 -14.261  44.061  0.00  0.00     0.123 A 
ATOM     16  O   UNL d   1      44.763 -13.752  43.615  0.00  0.00    -0.301 OA
ATOM     17  C   UNL d   1      45.863 -13.949  44.513  0.00  0.00     0.123 A 
ATOM     18  C   UNL d   1      44.898 -12.937  43.622  0.00  0.00     0.149 A 
ATOM     19  C   UNL d   1      45.514 -12.625  44.073  0.00  0.00     0.149 A 
ATOM     20  O   UNL d   1      45.996 -13.128  44.517  0.00  0.00    -0.301 OA
ATOM     21  C   UNL d   1      46.343 -14.447  44.955  0.00  0.00     0.027 A 
ATOM     22  C   UNL d   1      46.209 -15.262  44.948  0.00  0.00     0.002 A 
ENDBRANCH  12  13
ENDBRANCH   1  12
TORSDOF 4
ENDMDL
MODEL 2
REMARK VINA RESULT:      12.1      0.944      5.041
REMARK  4 active torsions:
REMARK  status: ('A' for Active; 'I' for Inactive)
REMARK    1  A    between atoms: C_3  and  C_1 
REMARK    2  A    between atoms: C_4  and  C_3 
REMARK    3  A    between atoms: C_7  and  C_4 
REMARK    4  A    between atoms: C_14  and  C_7 
ROOT
ATOM      1  C   UNL d   1      45.811 -16.119  44.190  0.00  0.00     0.042 C 
ENDROOT
BRANCH   1   2
ATOM      2  C   UNL d   1      45.309 -15.590  44.591  0.00  0.00     0.199 C 
ATOM      3  O   UNL d   1      44.587 -15.881  44.955  0.00  0.00    -0.286 OA
BRANCH   2   4
ATOM      4  C   UNL d   1      45.509 -14.815  44.631  0.00  0.00     0.078 A 
ATOM      5  C   UNL d   1      44.977 -14.227  44.403  0.00  0.00     0.199 A 
ATOM      6  C   UNL d   1      45.193 -13.436  44.449  0.00  0.00     0.042 A 
ATOM      7  O   UNL d   1      44.208 -14.422  44.120  0.00  0.00    -0.286 OA
ATOM      8  C   UNL d   1      45.944 -13.229  44.724  0.00  0.00     0.003 A 
ATOM      9  C   UNL d   1      46.475 -13.817  44.952  0.00  0.00     0.000 A 
ATOM     10  C   UNL d   1      46.161 -12.437  44.770  0.00  0.00     0.000 C 
ATOM     11  C   UNL d   1      46.256 -14.613  44.905  0.00  0.00     0.006 A 
ENDBRANCH   2   4
ENDBRANCH   1   2
BRANCH   1  12
ATOM     12  C   UNL d   1      46.055 -16.820  44.554  0.00  0.00     0.003 C 
BRANCH  12  13
ATOM     13  C   UNL d   1      46.189 -17.492  44.101  0.00  0.00     0.002 A 
ATOM     14  C   UNL d   1      46.227 -18.233  44.464  0.00  0.00     0.027 A 
ATOM     15  C   UNL d   1      46.361 -18.904  44.011  0.00  0.00     0.123 A 
ATOM     16  O   UNL d   1      46.400 -19.652  44.374  0.00  0.00    -0.301 OA
ATOM     17  C   UNL d   1      46.457 -18.840  43.194  0.00  0.00     0.123 A 
ATOM     18  C   UNL d   1      46.534 -20.329  43.920  0.00  0.00     0.149 A 
ATOM     19  C   UNL d   1      46.631 -20.265  43.103  0.00  0.00     0.149 A 
ATOM     20  O   UNL d   1      46.593 -19.524  42.740  0.00  0.00    -0.301 OA
ATOM     21  C   UNL d   1      46.420 -18.105  42.831  0.00  0.00     0.027 A 
ATOM     22  C   UNL d   1      46.285 -17.428  43.284  0.00  0.00     0.002 A 
ENDBRANCH  12  13
ENDBRANCH   1  12
TORSDOF 4
ENDMDL
