MODEL 1
REMARK VINA RESULT:      43.5      0.000      0.000
REMARK  4 active torsions:
REMARK  status: ('A' for Active; 'I' for Inactive)
REMARK    1  A    between atoms: N_2  and  C_1 
REMARK       I    between atoms: C_5  and  N_2 
REMARK    2  A    between atoms: C_8  and  C_5 
REMARK    3  A    between atoms: O_16  and  C_10 
REMARK    4  A    between atoms: O_17  and  C_12 
ROOT
ATOM      1  N   UNL d   1     -54.713-101.246 -40.574  0.00  0.00    -0.184 NA
ATOM      2  C   UNL d   1     -54.786-101.975 -40.192  0.00  0.00     0.281 C 
ATOM      3  O   UNL d   1     -54.860-102.653 -40.654  0.00  0.00    -0.265 OA
ENDROOT
BRANCH   2   4
ATOM      4  C   UNL d   1     -54.786-102.050 -39.388  0.00  0.00     0.060 A 
ATOM      5  C   UNL d   1     -54.757-101.385 -38.923  0.00  0.00     0.031 A 
ATOM      6  C   UNL d   1     -54.758-101.466 -38.104  0.00  0.00     0.116 A 
ATOM      7  C   UNL d   1     -54.788-102.205 -37.764  0.00  0.00     0.116 A 
ATOM      8  C   UNL d   1     -54.816-102.871 -38.229  0.00  0.00     0.026 A 
ATOM      9  C   UNL d   1     -54.817-102.815 -39.068  0.00  0.00     0.007 A 
BRANCH   6  10
ATOM     10  O   UNL d   1     -54.728-100.776 -37.619  0.00  0.00    -0.326 OA
ATOM     11  C   UNL d   1     -54.863-100.005 -38.147  0.00  0.00     0.181 C 
ENDBRANCH   6  10
BRANCH   7  12
ATOM     12  O   UNL d   1     -54.788-102.278 -36.937  0.00  0.00    -0.326 OA
ATOM     13  C   UNL d   1     -55.451-102.564 -36.437  0.00  0.00     0.181 C 
ENDBRANCH   7  12
ENDBRANCH   2   4
BRANCH   1  14
ATOM     14  C   UNL d   1     -54.718-101.224 -41.402  0.00  0.00     0.182 A 
ATOM     15  N   UNL d   1     -54.718-100.553 -41.908  0.00  0.00    -0.283 N 
ATOM     16  C   UNL d   1     -54.724-100.871 -42.699  0.00  0.00     0.072 A 
ATOM     17  C   UNL d   1     -54.712 -99.793 -41.683  0.00  0.00     0.101 C 
ATOM     18  C   UNL d   1     -54.727-100.503 -43.455  0.00  0.00     0.018 A 
ATOM     19  C   UNL d   1     -54.728-101.664 -42.634  0.00  0.00     0.048 A 
ATOM     20  C   UNL d   1     -54.734-100.986 -44.149  0.00  0.00     0.002 A 
ATOM     21  C   UNL d   1     -54.738-101.790 -44.072  0.00  0.00     0.001 A 
ATOM     22  C   UNL d   1     -54.735-102.157 -43.322  0.00  0.00     0.008 A 
ATOM     23  S   UNL d   1     -54.725-101.890 -41.866  0.00  0.00    -0.048 SA
ENDBRANCH   1  14
TORSDOF 4
ENDMDL
