MODEL 1
REMARK VINA RESULT:      -0.8      0.000      0.000
REMARK  4 active torsions:
REMARK  status: ('A' for Active; 'I' for Inactive)
REMARK    1  A    between atoms: C_2  and  N_1 
REMARK    2  A    between atoms: C_14  and  C_7 
REMARK    3  A    between atoms: O_20  and  C_14 
REMARK    4  A    between atoms: C_23  and  O_20 
ROOT
ATOM      1  C   UNL d   1      58.894   0.191  30.280  0.00  0.00     0.105 A 
ATOM      2  C   UNL d   1      58.969  -0.434  29.737  0.00  0.00     0.086 A 
ATOM      3  S   UNL d   1      59.546   0.682  30.210  0.00  0.00    -0.069 SA
ATOM      4  C   UNL d   1      59.688  -0.292  29.347  0.00  0.00     0.013 A 
ATOM      5  C   UNL d   1      60.034   0.385  29.636  0.00  0.00     0.031 A 
ATOM      6  C   UNL d   1      60.079  -0.700  28.753  0.00  0.00     0.001 A 
ATOM      7  C   UNL d   1      60.735   0.653  29.357  0.00  0.00     0.006 A 
ATOM      8  C   UNL d   1      60.804  -0.434  28.455  0.00  0.00     0.000 A 
ATOM      9  C   UNL d   1      61.133   0.244  28.758  0.00  0.00     0.001 A 
ENDROOT
BRANCH   1  10
ATOM     10  N   UNL d   1      58.216   0.216  30.773  0.00  0.00    -0.236 N 
ATOM     11  C   UNL d   1      58.263  -0.017  31.559  0.00  0.00     0.266 A 
ATOM     12  C   UNL d   1      57.520   0.077  31.866  0.00  0.00     0.069 A 
ATOM     13  O   UNL d   1      58.962  -0.293  31.936  0.00  0.00    -0.267 OA
ATOM     14  C   UNL d   1      57.224  -0.064  32.620  0.00  0.00     0.165 A 
ATOM     15  C   UNL d   1      57.011   0.368  31.269  0.00  0.00     0.069 A 
ATOM     16  C   UNL d   1      56.430   0.079  32.796  0.00  0.00     0.006 A 
ATOM     17  O   UNL d   1      56.893   0.236  31.842  0.00  0.00    -0.341 OA
ATOM     18  C   UNL d   1      55.921   0.371  32.199  0.00  0.00     0.006 A 
ATOM     19  C   UNL d   1      56.222   0.510  31.444  0.00  0.00     0.165 A 
ATOM     20  C   UNL d   1      57.445   0.452  30.599  0.00  0.00     0.266 A 
ATOM     21  O   UNL d   1      57.214   0.681  29.987  0.00  0.00    -0.267 OA
ENDBRANCH   1  10
BRANCH   2  22
ATOM     22  C   UNL d   1      58.445  -1.064  29.608  0.00  0.00     0.302 C 
ATOM     23  O   UNL d   1      57.919  -1.022  29.492  0.00  0.00    -0.259 OA
BRANCH  22  24
ATOM     24  O   UNL d   1      58.742  -1.854  29.660  0.00  0.00    -0.271 OA
BRANCH  24  25
ATOM     25  C   UNL d   1      58.357  -2.441  29.263  0.00  0.00     0.126 C 
ATOM     26  C   UNL d   1      58.688  -3.211  29.288  0.00  0.00     0.029 C 
ENDBRANCH  24  25
ENDBRANCH  22  24
ENDBRANCH   2  22
TORSDOF 4
ENDMDL
MODEL 2
REMARK VINA RESULT:       0.6      1.066      3.540
REMARK  4 active torsions:
REMARK  status: ('A' for Active; 'I' for Inactive)
REMARK    1  A    between atoms: C_2  and  N_1 
REMARK    2  A    between atoms: C_14  and  C_7 
REMARK    3  A    between atoms: O_20  and  C_14 
REMARK    4  A    between atoms: C_23  and  O_20 
ROOT
ATOM      1  C   UNL d   1      58.043   0.154  30.834  0.00  0.00     0.105 A 
ATOM      2  C   UNL d   1      57.768  -0.618  30.973  0.00  0.00     0.086 A 
ATOM      3  S   UNL d   1      57.588   0.680  31.267  0.00  0.00    -0.069 SA
ATOM      4  C   UNL d   1      57.135  -0.526  31.503  0.00  0.00     0.013 A 
ATOM      5  C   UNL d   1      57.030   0.262  31.678  0.00  0.00     0.031 A 
ATOM      6  C   UNL d   1      56.632  -1.069  31.855  0.00  0.00     0.001 A 
ATOM      7  C   UNL d   1      56.456   0.510  32.178  0.00  0.00     0.006 A 
ATOM      8  C   UNL d   1      56.034  -0.827  32.373  0.00  0.00     0.000 A 
ATOM      9  C   UNL d   1      55.946  -0.035  32.536  0.00  0.00     0.001 A 
ENDROOT
BRANCH   1  10
ATOM     10  N   UNL d   1      58.692   0.262  30.313  0.00  0.00    -0.236 N 
ATOM     11  C   UNL d   1      59.449   0.378  30.608  0.00  0.00     0.266 A 
ATOM     12  C   UNL d   1      59.932   0.462  29.964  0.00  0.00     0.069 A 
ATOM     13  O   UNL d   1      59.647   0.401  31.425  0.00  0.00    -0.267 OA
ATOM     14  C   UNL d   1      60.741   0.590  29.907  0.00  0.00     0.165 A 
ATOM     15  C   UNL d   1      59.472   0.397  29.267  0.00  0.00     0.069 A 
ATOM     16  C   UNL d   1      61.108   0.656  29.170  0.00  0.00     0.006 A 
ATOM     17  O   UNL d   1      60.061   0.489  29.331  0.00  0.00    -0.341 OA
ATOM     18  C   UNL d   1      60.649   0.591  28.473  0.00  0.00     0.006 A 
ATOM     19  C   UNL d   1      59.837   0.462  28.535  0.00  0.00     0.165 A 
ATOM     20  C   UNL d   1      58.711   0.274  29.489  0.00  0.00     0.266 A 
ATOM     21  O   UNL d   1      58.168   0.193  29.064  0.00  0.00    -0.267 OA
ENDBRANCH   1  10
BRANCH   2  22
ATOM     22  C   UNL d   1      58.056  -1.327  30.655  0.00  0.00     0.302 C 
ATOM     23  O   UNL d   1      58.439  -1.640  30.872  0.00  0.00    -0.259 OA
BRANCH  22  24
ATOM     24  O   UNL d   1      57.733  -1.604  29.925  0.00  0.00    -0.271 OA
BRANCH  24  25
ATOM     25  C   UNL d   1      57.653  -2.399  29.811  0.00  0.00     0.126 C 
ATOM     26  C   UNL d   1      57.940  -2.721  29.093  0.00  0.00     0.029 C 
ENDBRANCH  24  25
ENDBRANCH  22  24
ENDBRANCH   2  22
TORSDOF 4
ENDMDL
MODEL 3
REMARK VINA RESULT:       1.1      1.424      4.121
REMARK  4 active torsions:
REMARK  status: ('A' for Active; 'I' for Inactive)
REMARK    1  A    between atoms: C_2  and  N_1 
REMARK    2  A    between atoms: C_14  and  C_7 
REMARK    3  A    between atoms: O_20  and  C_14 
REMARK    4  A    between atoms: C_23  and  O_20 
ROOT
ATOM      1  C   UNL d   1      57.047  -0.347  31.537  0.00  0.00     0.105 A 
ATOM      2  C   UNL d   1      57.424   0.078  32.144  0.00  0.00     0.086 A 
ATOM      3  S   UNL d   1      56.284  -0.528  31.773  0.00  0.00    -0.069 SA
ATOM      4  C   UNL d   1      56.854   0.139  32.744  0.00  0.00     0.013 A 
ATOM      5  C   UNL d   1      56.166  -0.229  32.516  0.00  0.00     0.031 A 
ATOM      6  C   UNL d   1      56.874   0.491  33.485  0.00  0.00     0.001 A 
ATOM      7  C   UNL d   1      55.522  -0.253  32.991  0.00  0.00     0.006 A 
ATOM      8  C   UNL d   1      56.217   0.473  33.987  0.00  0.00     0.000 A 
ATOM      9  C   UNL d   1      55.538   0.100  33.739  0.00  0.00     0.001 A 
ENDROOT
BRANCH   1  10
ATOM     10  N   UNL d   1      57.476  -0.510  30.834  0.00  0.00    -0.236 N 
ATOM     11  C   UNL d   1      57.735  -1.271  30.670  0.00  0.00     0.266 A 
ATOM     12  C   UNL d   1      58.123  -1.229  29.961  0.00  0.00     0.069 A 
ATOM     13  O   UNL d   1      57.606  -1.938  31.165  0.00  0.00    -0.267 OA
ATOM     14  C   UNL d   1      58.500  -1.808  29.515  0.00  0.00     0.165 A 
ATOM     15  C   UNL d   1      58.104  -0.440  29.684  0.00  0.00     0.069 A 
ATOM     16  C   UNL d   1      58.860  -1.620  28.796  0.00  0.00     0.006 A 
ATOM     17  O   UNL d   1      58.350  -0.927  29.436  0.00  0.00    -0.341 OA
ATOM     18  C   UNL d   1      58.841  -0.830  28.519  0.00  0.00     0.006 A 
ATOM     19  C   UNL d   1      58.462  -0.253  28.970  0.00  0.00     0.165 A 
ATOM     20  C   UNL d   1      57.704  -0.002  30.226  0.00  0.00     0.266 A 
ATOM     21  O   UNL d   1      57.576   0.678  30.188  0.00  0.00    -0.267 OA
ENDBRANCH   1  10
BRANCH   2  22
ATOM     22  C   UNL d   1      58.197   0.377  32.154  0.00  0.00     0.302 C 
ATOM     23  O   UNL d   1      58.425   0.682  31.771  0.00  0.00    -0.259 OA
BRANCH  22  24
ATOM     24  O   UNL d   1      58.690   0.199  32.816  0.00  0.00    -0.271 OA
BRANCH  24  25
ATOM     25  C   UNL d   1      59.318   0.681  32.975  0.00  0.00     0.126 C 
ATOM     26  C   UNL d   1      60.086   0.388  32.809  0.00  0.00     0.029 C 
ENDBRANCH  24  25
ENDBRANCH  22  24
ENDBRANCH   2  22
TORSDOF 4
ENDMDL
