MODEL 1
REMARK VINA RESULT:      13.9      0.000      0.000
REMARK  2 active torsions:
REMARK  status: ('A' for Active; 'I' for Inactive)
REMARK    1  A    between atoms: C_4  and  S_1 
REMARK    2  A    between atoms: C_6  and  C_4 
ROOT
ATOM      1  C   UNL d   1      59.672  49.706  50.513  0.00  0.00     0.013 A 
ATOM      2  C   UNL d   1      59.330  49.708  49.760  0.00  0.00     0.001 A 
ATOM      3  C   UNL d   1      59.203  49.705  51.182  0.00  0.00     0.001 A 
ATOM      4  C   UNL d   1      58.386  49.704  51.110  0.00  0.00     0.000 A 
ATOM      5  C   UNL d   1      58.511  49.708  49.685  0.00  0.00     0.000 A 
ATOM      6  C   UNL d   1      58.033  49.706  50.358  0.00  0.00     0.000 A 
ENDROOT
BRANCH   1   7
ATOM      7  C   UNL d   1      60.494  49.707  50.585  0.00  0.00     0.119 C 
BRANCH   7   8
ATOM      8  S   UNL d   1      60.866  49.177  51.098  0.00  0.00     0.303 S 
ATOM      9  O   UNL d   1      61.026  48.640  50.410  0.00  0.00    -0.197 OA
ATOM     10  O   UNL d   1      60.733  49.682  51.842  0.00  0.00    -0.197 OA
ATOM     11  N   UNL d   1      61.224  48.661  51.573  0.00  0.00    -0.043 N 
ENDBRANCH   7   8
ENDBRANCH   1   7
TORSDOF 2
ENDMDL
