MODEL 1
REMARK VINA RESULT:      26.3      0.000      0.000
REMARK  3 active torsions:
REMARK  status: ('A' for Active; 'I' for Inactive)
REMARK    1  A    between atoms: N_4  and  C_1 
REMARK    2  A    between atoms: C_3  and  N_4 
REMARK    3  A    between atoms: C_8  and  C_5 
ROOT
ATOM      1  C   UNL d   1      13.390  12.371  -2.617  0.00  0.00     0.750 A 
ATOM      2  N   UNL d   1      13.423  12.090  -3.392  0.00  0.00    -0.059 NA
ATOM      3  C   UNL d   1      13.421  12.619  -4.022  0.00  0.00     0.103 A 
ATOM      4  N   UNL d   1      13.355  13.169  -2.468  0.00  0.00    -0.058 NA
ATOM      5  C   UNL d   1      13.385  13.430  -3.875  0.00  0.00     0.041 A 
ATOM      6  C   UNL d   1      13.352  13.711  -3.090  0.00  0.00     0.120 A 
ENDROOT
BRANCH   1   7
ATOM      7  N   UNL d   1      13.392  11.835  -1.991  0.00  0.00    -0.059 NA
BRANCH   7   8
ATOM      8  C   UNL d   1      13.989  11.865  -1.421  0.00  0.00     0.101 A 
ATOM      9  C   UNL d   1      14.780  11.923  -1.648  0.00  0.00     0.041 A 
ATOM     10  C   UNL d   1      15.374  11.952  -1.069  0.00  0.00     0.104 A 
ATOM     11  N   UNL d   1      16.165  12.010  -1.297  0.00  0.00    -0.148 N 
ATOM     12  C   UNL d   1      15.175  11.924  -0.270  0.00  0.00     0.021 A 
ATOM     13  C   UNL d   1      14.384  11.866  -0.043  0.00  0.00     0.003 A 
ATOM     14  C   UNL d   1      13.792  11.837  -0.615  0.00  0.00     0.018 A 
ATOM     15  C   UNL d   1      13.001  11.779  -0.388  0.00  0.00     0.002 C 
ENDBRANCH   7   8
ENDBRANCH   1   7
BRANCH   3  16
ATOM     16  C   UNL d   1      13.453  12.339  -4.793  0.00  0.00     0.037 A 
ATOM     17  C   UNL d   1      14.172  12.325  -5.187  0.00  0.00     0.100 A 
ATOM     18  N   UNL d   1      14.216  12.047  -5.963  0.00  0.00    -0.242 NA
ATOM     19  C   UNL d   1      13.528  11.779  -6.343  0.00  0.00     0.099 A 
ATOM     20  C   UNL d   1      12.802  11.795  -5.941  0.00  0.00     0.021 A 
ATOM     21  C   UNL d   1      12.769  12.074  -5.170  0.00  0.00     0.005 A 
ENDBRANCH   3  16
TORSDOF 3
ENDMDL
