MODEL 1
REMARK VINA RESULT:      52.0      0.000      0.000
REMARK  2 active torsions:
REMARK  status: ('A' for Active; 'I' for Inactive)
REMARK    1  A    between atoms: C_9  and  C_4 
REMARK    2  A    between atoms: C_13  and  C_6 
ROOT
ATOM      1  N   UNL d   1     -51.786  26.206  33.490  0.00  0.00    -0.185 N 
ATOM      2  C   UNL d   1     -52.515  26.575  33.364  0.00  0.00     0.219 A 
ATOM      3  N   UNL d   1     -51.917  25.402  33.545  0.00  0.00    -0.153 NA
ATOM      4  C   UNL d   1     -52.720  25.263  33.454  0.00  0.00     0.156 A 
ATOM      5  S   UNL d   1     -53.092  25.987  33.342  0.00  0.00    -0.024 SA
ATOM      6  C   UNL d   1     -51.207  26.792  33.513  0.00  0.00     0.187 A 
ATOM      7  N   UNL d   1     -51.576  27.525  33.400  0.00  0.00    -0.127 NA
ATOM      8  N   UNL d   1     -52.385  27.386  33.308  0.00  0.00    -0.120 NA
ENDROOT
BRANCH   6   9
ATOM      9  C   UNL d   1     -50.402  26.676  33.627  0.00  0.00     0.038 A 
ATOM     10  C   UNL d   1     -49.961  27.221  34.061  0.00  0.00     0.004 A 
ATOM     11  C   UNL d   1     -49.155  27.105  34.175  0.00  0.00     0.011 A 
ATOM     12  C   UNL d   1     -48.790  26.440  33.851  0.00  0.00     0.058 A 
ATOM     13  C   UNL d   1     -49.234  25.891  33.414  0.00  0.00     0.011 A 
ATOM     14 CL   UNL d   1     -47.979  26.318  33.963  0.00  0.00    -0.082 Cl
ATOM     15  C   UNL d   1     -50.035  26.018  33.308  0.00  0.00     0.004 A 
ENDBRANCH   6   9
BRANCH   4  16
ATOM     16  C   UNL d   1     -53.096  24.527  33.471  0.00  0.00     0.126 A 
ATOM     17  O   UNL d   1     -53.891  24.401  33.656  0.00  0.00    -0.298 OA
ATOM     18  C   UNL d   1     -54.032  23.590  33.607  0.00  0.00     0.134 A 
ATOM     19 BR   UNL d   1     -54.748  23.211  33.746  0.00  0.00    -0.022 Br
ATOM     20  C   UNL d   1     -53.325  23.213  33.392  0.00  0.00     0.034 A 
ATOM     21  C   UNL d   1     -52.747  23.795  33.308  0.00  0.00     0.029 A 
ENDBRANCH   4  16
TORSDOF 2
ENDMDL
