MODEL 1
REMARK VINA RESULT:     108.8      0.000      0.000
REMARK  4 active torsions:
REMARK  status: ('A' for Active; 'I' for Inactive)
REMARK    1  A    between atoms: S_6  and  C_1 
REMARK    2  A    between atoms: N_9  and  N_2 
REMARK    3  A    between atoms: C_12  and  S_6 
REMARK       I    between atoms: C_10  and  N_9 
REMARK    4  A    between atoms: C_11  and  C_10 
ROOT
ATOM      1  C   UNL d   1     -51.112  26.036  34.576  0.00  0.00     0.146 A 
ATOM      2  N   UNL d   1     -50.091  26.907  34.601  0.00  0.00    -0.188 N 
ATOM      3  C   UNL d   1     -50.538  26.410  34.116  0.00  0.00     0.199 A 
ATOM      4  C   UNL d   1     -50.388  26.843  35.372  0.00  0.00     0.184 A 
ATOM      5  C   UNL d   1     -51.018  26.307  35.358  0.00  0.00     0.131 A 
ATOM      6  N   UNL d   1     -50.172  27.199  36.081  0.00  0.00    -0.224 NA
ATOM      7  N   UNL d   1     -51.425  26.131  36.049  0.00  0.00    -0.240 NA
ATOM      8  C   UNL d   1     -50.582  27.022  36.776  0.00  0.00     0.101 A 
ATOM      9  C   UNL d   1     -51.211  26.484  36.750  0.00  0.00     0.099 A 
ATOM     10  N   UNL d   1     -50.426  26.307  33.307  0.00  0.00    -0.126 N 
ATOM     11  C   UNL d   1     -50.366  27.379  37.485  0.00  0.00     0.021 A 
ATOM     12  C   UNL d   1     -51.624  26.304  37.445  0.00  0.00     0.021 A 
ATOM     13  C   UNL d   1     -51.405  26.663  38.155  0.00  0.00     0.002 A 
ATOM     14  C   UNL d   1     -50.776  27.202  38.181  0.00  0.00     0.002 A 
ENDROOT
BRANCH   1  15
ATOM     15  S   UNL d   1     -51.669  25.502  34.319  0.00  0.00     0.214 S 
ATOM     16  O   UNL d   1     -51.282  24.768  34.325  0.00  0.00    -0.217 OA
ATOM     17  O   UNL d   1     -52.054  26.228  34.312  0.00  0.00    -0.217 OA
BRANCH  15  18
ATOM     18  C   UNL d   1     -52.243  24.968  34.057  0.00  0.00     0.088 A 
ATOM     19  C   UNL d   1     -52.846  25.125  33.517  0.00  0.00     0.011 A 
ATOM     20  C   UNL d   1     -53.378  24.532  33.310  0.00  0.00     0.001 A 
ATOM     21  C   UNL d   1     -53.308  23.782  33.642  0.00  0.00     0.000 A 
ATOM     22  C   UNL d   1     -52.707  23.624  34.181  0.00  0.00     0.001 A 
ATOM     23  C   UNL d   1     -53.839  23.190  33.436  0.00  0.00     0.000 C 
ATOM     24  C   UNL d   1     -52.166  24.221  34.394  0.00  0.00     0.011 A 
ENDBRANCH  15  18
ENDBRANCH   1  15
BRANCH   2  25
ATOM     25  N   UNL d   1     -49.462  27.383  34.373  0.00  0.00    -0.120 NA
ATOM     26  C   UNL d   1     -49.593  28.038  33.885  0.00  0.00     0.295 C 
ATOM     27  O   UNL d   1     -48.962  28.510  33.660  0.00  0.00    -0.264 OA
BRANCH  26  28
ATOM     28  C   UNL d   1     -50.357  28.215  33.626  0.00  0.00     0.059 A 
ATOM     29  C   UNL d   1     -50.897  28.755  33.308  0.00  0.00     0.005 A 
ATOM     30  C   UNL d   1     -51.138  27.988  33.494  0.00  0.00     0.005 A 
ENDBRANCH  26  28
ENDBRANCH   2  25
TORSDOF 4
ENDMDL
