MODEL 1
REMARK VINA RESULT:      34.9      0.000      0.000
REMARK  5 active torsions:
REMARK  status: ('A' for Active; 'I' for Inactive)
REMARK    1  A    between atoms: C_6  and  C_1 
REMARK    2  A    between atoms: C_7  and  C_6 
REMARK    3  A    between atoms: C_11  and  C_19 
REMARK    4  A    between atoms: O_18  and  C_17 
REMARK    5  A    between atoms: C_19  and  O_18 
ROOT
ATOM      1  C   UNL d   1     -51.616  24.120  33.405  0.00  0.00     0.139 A 
ATOM      2  C   UNL d   1     -50.529  24.905  33.348  0.00  0.00     0.064 A 
ATOM      3  C   UNL d   1     -50.788  24.124  33.351  0.00  0.00     0.220 A 
ATOM      4  C   UNL d   1     -51.193  25.392  33.400  0.00  0.00     0.105 A 
ATOM      5  O   UNL d   1     -51.867  24.904  33.435  0.00  0.00    -0.304 OA
ATOM      6  C   UNL d   1     -51.109  26.211  33.409  0.00  0.00     0.049 A 
ATOM      7  C   UNL d   1     -49.779  25.235  33.306  0.00  0.00     0.007 A 
ATOM      8  O   UNL d   1     -50.309  23.455  33.309  0.00  0.00    -0.284 OA
ATOM      9  C   UNL d   1     -50.351  26.537  33.365  0.00  0.00     0.097 A 
ATOM     10  C   UNL d   1     -49.690  26.051  33.314  0.00  0.00     0.025 A 
ENDROOT
BRANCH   1  11
ATOM     11  C   UNL d   1     -52.104  23.453  33.425  0.00  0.00     0.034 C 
BRANCH  11  12
ATOM     12  C   UNL d   1     -52.834  23.484  33.804  0.00  0.00     0.032 A 
ATOM     13  S   UNL d   1     -53.553  23.682  33.460  0.00  0.00    -0.086 SA
ATOM     14  C   UNL d   1     -54.140  23.641  34.046  0.00  0.00     0.035 A 
ATOM     15  C   UNL d   1     -53.777  23.417  34.751  0.00  0.00     0.007 A 
ATOM     16  C   UNL d   1     -52.967  23.318  34.609  0.00  0.00     0.007 A 
ENDBRANCH  11  12
ENDBRANCH   1  11
BRANCH   9  17
ATOM     17  O   UNL d   1     -50.270  27.358  33.375  0.00  0.00    -0.319 OA
BRANCH  17  18
ATOM     18  C   UNL d   1     -49.819  27.713  33.971  0.00  0.00     0.246 C 
BRANCH  18  19
ATOM     19  C   UNL d   1     -49.788  28.534  34.020  0.00  0.00     0.217 C 
ATOM     20  O   UNL d   1     -49.338  28.900  34.609  0.00  0.00    -0.645 OA
ATOM     21  O   UNL d   1     -50.235  29.026  33.445  0.00  0.00    -0.645 OA
ENDBRANCH  18  19
ENDBRANCH  17  18
ENDBRANCH   9  17
TORSDOF 5
ENDMDL
