MODEL 1
REMARK VINA RESULT:     100.8      0.000      0.000
REMARK  9 active torsions:
REMARK  status: ('A' for Active; 'I' for Inactive)
REMARK    1  A    between atoms: C_7  and  C_1 
REMARK    2  A    between atoms: C_9  and  N_2 
REMARK    3  A    between atoms: C_14  and  C_7 
REMARK    4  A    between atoms: C_8  and  C_9 
REMARK       I    between atoms: N_11  and  C_8 
REMARK    5  A    between atoms: C_10  and  N_11 
REMARK    6  A    between atoms: O_30  and  C_19 
REMARK    7  A    between atoms: O_31  and  C_20 
REMARK    8  A    between atoms: C_32  and  C_25 
REMARK    9  A    between atoms: C_33  and  C_29 
ROOT
ATOM      1  C   UNL d   1     -50.147  27.456  34.290  0.00  0.00     0.095 A 
ATOM      2  N   UNL d   1     -49.530  27.383  35.574  0.00  0.00    -0.300 N 
ATOM      3  C   UNL d   1     -49.610  28.082  34.086  0.00  0.00     0.202 A 
ATOM      4  C   UNL d   1     -50.107  27.107  35.034  0.00  0.00     0.087 A 
ATOM      5  C   UNL d   1     -49.042  28.340  34.646  0.00  0.00     0.055 A 
ATOM      6  C   UNL d   1     -48.992  27.998  35.393  0.00  0.00     0.067 A 
ATOM      7  C   UNL d   1     -48.425  28.266  35.930  0.00  0.00     0.018 A 
ATOM      8  C   UNL d   1     -48.504  28.960  34.453  0.00  0.00     0.005 A 
ATOM      9  O   UNL d   1     -49.649  28.427  33.353  0.00  0.00    -0.286 OA
ATOM     10  C   UNL d   1     -47.942  29.218  35.000  0.00  0.00     0.000 A 
ATOM     11  C   UNL d   1     -47.903  28.874  35.732  0.00  0.00     0.002 A 
ENDROOT
BRANCH   2  12
ATOM     12  C   UNL d   1     -49.490  27.033  36.318  0.00  0.00     0.144 C 
BRANCH  12  13
ATOM     13  C   UNL d   1     -50.115  27.114  36.845  0.00  0.00     0.297 C 
ATOM     14  N   UNL d   1     -50.274  26.519  37.390  0.00  0.00    -0.207 NA
ATOM     15  O   UNL d   1     -50.582  27.789  36.826  0.00  0.00    -0.264 OA
BRANCH  14  16
ATOM     16  C   UNL d   1     -50.905  26.603  37.920  0.00  0.00     0.089 A 
ATOM     17  C   UNL d   1     -50.976  27.285  38.359  0.00  0.00     0.043 A 
ATOM     18  C   UNL d   1     -51.596  27.374  38.882  0.00  0.00     0.098 A 
ATOM     19  C   UNL d   1     -52.160  26.764  38.969  0.00  0.00     0.049 A 
ATOM     20  C   UNL d   1     -52.085  26.078  38.524  0.00  0.00     0.098 A 
ATOM     21  C   UNL d   1     -51.453  25.993  37.994  0.00  0.00     0.043 A 
BRANCH  18  22
ATOM     22  O   UNL d   1     -51.669  28.058  39.325  0.00  0.00    -0.328 OA
ATOM     23  C   UNL d   1     -50.994  28.463  39.564  0.00  0.00     0.181 C 
ENDBRANCH  18  22
BRANCH  20  24
ATOM     24  O   UNL d   1     -52.628  25.482  38.601  0.00  0.00    -0.328 OA
ATOM     25  C   UNL d   1     -52.404  24.702  38.472  0.00  0.00     0.181 C 
ENDBRANCH  20  24
ENDBRANCH  14  16
ENDBRANCH  12  13
ENDBRANCH   2  12
BRANCH   1  26
ATOM     26  C   UNL d   1     -50.712  27.196  33.742  0.00  0.00     0.200 C 
ATOM     27  O   UNL d   1     -51.142  27.745  33.306  0.00  0.00    -0.286 OA
BRANCH  26  28
ATOM     28  C   UNL d   1     -50.844  26.389  33.633  0.00  0.00     0.039 A 
ATOM     29  C   UNL d   1     -51.608  26.072  33.723  0.00  0.00     0.003 A 
ATOM     30  C   UNL d   1     -51.746  25.257  33.615  0.00  0.00     0.000 A 
ATOM     31  C   UNL d   1     -51.119  24.762  33.416  0.00  0.00     0.000 A 
ATOM     32  C   UNL d   1     -50.357  25.097  33.329  0.00  0.00     0.000 A 
ATOM     33  C   UNL d   1     -50.219  25.911  33.438  0.00  0.00     0.003 A 
BRANCH  31  34
ATOM     34  C   UNL d   1     -51.266  23.956  33.310  0.00  0.00     0.000 C 
ATOM     35  C   UNL d   1     -50.628  23.438  33.353  0.00  0.00     0.000 C 
ENDBRANCH  31  34
ENDBRANCH  26  28
ENDBRANCH   1  26
BRANCH  10  36
ATOM     36  C   UNL d   1     -47.424  29.826  34.798  0.00  0.00     0.000 C 
ATOM     37  C   UNL d   1     -47.720  30.575  34.595  0.00  0.00     0.000 C 
ENDBRANCH  10  36
TORSDOF 9
ENDMDL
