MODEL 1
REMARK VINA RESULT:      -7.3      0.000      0.000
REMARK  5 active torsions:
REMARK  status: ('A' for Active; 'I' for Inactive)
REMARK    1  A    between atoms: C_2  and  C_1 
REMARK       I    between atoms: N_3  and  C_1 
REMARK       I    between atoms: N_4  and  C_2 
REMARK    2  A    between atoms: C_5  and  N_3 
REMARK    3  A    between atoms: C_10  and  N_4 
REMARK    4  A    between atoms: C_12  and  C_10 
REMARK    5  A    between atoms: O_13  and  C_11 
ROOT
ATOM      1  C   UNL d   1     -46.719  13.624  23.087  0.00  0.00     0.337 C 
ATOM      2  N   UNL d   1     -46.880  12.894  22.757  0.00  0.00    -0.204 NA
ATOM      3  O   UNL d   1     -46.168  13.686  23.698  0.00  0.00    -0.260 OA
ENDROOT
BRANCH   1   4
ATOM      4  C   UNL d   1     -47.106  14.299  22.812  0.00  0.00     0.337 C 
ATOM      5  N   UNL d   1     -47.925  14.314  22.764  0.00  0.00    -0.202 NA
ATOM      6  O   UNL d   1     -46.669  14.961  22.584  0.00  0.00    -0.260 OA
BRANCH   5   7
ATOM      7  C   UNL d   1     -48.310  14.984  22.491  0.00  0.00     0.102 C 
BRANCH   7   8
ATOM      8  C   UNL d   1     -49.129  15.051  22.568  0.00  0.00     0.022 A 
ATOM      9  C   UNL d   1     -49.617  14.591  22.101  0.00  0.00     0.022 A 
ATOM     10  C   UNL d   1     -50.437  14.657  22.178  0.00  0.00     0.099 A 
ATOM     11  N   UNL d   1     -50.758  15.185  22.723  0.00  0.00    -0.242 NA
ATOM     12  C   UNL d   1     -50.261  15.648  23.192  0.00  0.00     0.099 A 
ATOM     13  C   UNL d   1     -49.451  15.579  23.113  0.00  0.00     0.022 A 
ENDBRANCH   7   8
ENDBRANCH   5   7
ENDBRANCH   1   4
BRANCH   2  14
ATOM     14  C   UNL d   1     -46.493  12.219  23.032  0.00  0.00     0.087 A 
ATOM     15  C   UNL d   1     -45.680  12.134  22.918  0.00  0.00     0.043 A 
ATOM     16  C   UNL d   1     -45.293  11.460  23.193  0.00  0.00     0.096 A 
ATOM     17  C   UNL d   1     -45.719  10.869  23.582  0.00  0.00     0.024 A 
ATOM     18  C   UNL d   1     -46.533  10.955  23.696  0.00  0.00     0.004 A 
ATOM     19  C   UNL d   1     -46.919  11.629  23.422  0.00  0.00     0.019 A 
BRANCH  16  20
ATOM     20  O   UNL d   1     -44.475  11.364  23.084  0.00  0.00    -0.328 OA
ATOM     21  C   UNL d   1     -44.102  10.672  23.361  0.00  0.00     0.181 C 
ENDBRANCH  16  20
ENDBRANCH   2  14
TORSDOF 5
ENDMDL
MODEL 2
REMARK VINA RESULT:      -7.2      1.649      2.122
REMARK  5 active torsions:
REMARK  status: ('A' for Active; 'I' for Inactive)
REMARK    1  A    between atoms: C_2  and  C_1 
REMARK       I    between atoms: N_3  and  C_1 
REMARK       I    between atoms: N_4  and  C_2 
REMARK    2  A    between atoms: C_5  and  N_3 
REMARK    3  A    between atoms: C_10  and  N_4 
REMARK    4  A    between atoms: C_12  and  C_10 
REMARK    5  A    between atoms: O_13  and  C_11 
ROOT
ATOM      1  C   UNL d   1     -48.462  11.935  23.176  0.00  0.00     0.337 C 
ATOM      2  N   UNL d   1     -47.871  12.328  23.581  0.00  0.00    -0.204 NA
ATOM      3  O   UNL d   1     -48.267  11.324  22.658  0.00  0.00    -0.260 OA
ENDROOT
BRANCH   1   4
ATOM      4  C   UNL d   1     -49.252  12.148  23.283  0.00  0.00     0.337 C 
ATOM      5  N   UNL d   1     -49.496  12.916  23.127  0.00  0.00    -0.202 NA
ATOM      6  O   UNL d   1     -49.797  11.588  23.547  0.00  0.00    -0.260 OA
BRANCH   5   7
ATOM      7  C   UNL d   1     -50.281  13.128  23.234  0.00  0.00     0.102 C 
BRANCH   7   8
ATOM      8  C   UNL d   1     -50.538  13.884  23.022  0.00  0.00     0.022 A 
ATOM      9  C   UNL d   1     -50.690  14.437  23.604  0.00  0.00     0.022 A 
ATOM     10  C   UNL d   1     -50.947  15.192  23.392  0.00  0.00     0.099 A 
ATOM     11  N   UNL d   1     -51.047  15.385  22.597  0.00  0.00    -0.242 NA
ATOM     12  C   UNL d   1     -50.892  14.823  22.012  0.00  0.00     0.099 A 
ATOM     13  C   UNL d   1     -50.638  14.077  22.227  0.00  0.00     0.022 A 
ENDBRANCH   7   8
ENDBRANCH   5   7
ENDBRANCH   1   4
BRANCH   2  14
ATOM     14  C   UNL d   1     -47.081  12.115  23.474  0.00  0.00     0.087 A 
ATOM     15  C   UNL d   1     -46.549  12.654  23.143  0.00  0.00     0.043 A 
ATOM     16  C   UNL d   1     -45.760  12.441  23.036  0.00  0.00     0.096 A 
ATOM     17  C   UNL d   1     -45.501  11.690  23.260  0.00  0.00     0.024 A 
ATOM     18  C   UNL d   1     -46.033  11.152  23.591  0.00  0.00     0.004 A 
ATOM     19  C   UNL d   1     -46.821  11.364  23.698  0.00  0.00     0.019 A 
BRANCH  16  20
ATOM     20  O   UNL d   1     -45.217  12.975  22.703  0.00  0.00    -0.328 OA
ATOM     21  C   UNL d   1     -45.042  12.931  21.890  0.00  0.00     0.181 C 
ENDBRANCH  16  20
ENDBRANCH   2  14
TORSDOF 5
ENDMDL
MODEL 3
REMARK VINA RESULT:      -6.4      1.258      1.682
REMARK  5 active torsions:
REMARK  status: ('A' for Active; 'I' for Inactive)
REMARK    1  A    between atoms: C_2  and  C_1 
REMARK       I    between atoms: N_3  and  C_1 
REMARK       I    between atoms: N_4  and  C_2 
REMARK    2  A    between atoms: C_5  and  N_3 
REMARK    3  A    between atoms: C_10  and  N_4 
REMARK    4  A    between atoms: C_12  and  C_10 
REMARK    5  A    between atoms: O_13  and  C_11 
ROOT
ATOM      1  C   UNL d   1     -46.857  13.804  22.871  0.00  0.00     0.337 C 
ATOM      2  N   UNL d   1     -46.650  13.210  22.348  0.00  0.00    -0.204 NA
ATOM      3  O   UNL d   1     -46.323  14.044  23.452  0.00  0.00    -0.260 OA
ENDROOT
BRANCH   1   4
ATOM      4  C   UNL d   1     -47.598  14.163  22.819  0.00  0.00     0.337 C 
ATOM      5  N   UNL d   1     -48.280  13.720  22.937  0.00  0.00    -0.202 NA
ATOM      6  O   UNL d   1     -47.655  14.968  22.647  0.00  0.00    -0.260 OA
BRANCH   5   7
ATOM      7  C   UNL d   1     -49.016  14.077  22.885  0.00  0.00     0.102 C 
BRANCH   7   8
ATOM      8  C   UNL d   1     -49.701  13.618  22.927  0.00  0.00     0.022 A 
ATOM      9  C   UNL d   1     -49.902  13.256  23.632  0.00  0.00     0.022 A 
ATOM     10  C   UNL d   1     -50.587  12.797  23.674  0.00  0.00     0.099 A 
ATOM     11  N   UNL d   1     -51.064  12.706  23.008  0.00  0.00    -0.242 NA
ATOM     12  C   UNL d   1     -50.857  13.075  22.299  0.00  0.00     0.099 A 
ATOM     13  C   UNL d   1     -50.178  13.528  22.262  0.00  0.00     0.022 A 
ENDBRANCH   7   8
ENDBRANCH   5   7
ENDBRANCH   1   4
BRANCH   2  14
ATOM     14  C   UNL d   1     -45.909  12.851  22.401  0.00  0.00     0.087 A 
ATOM     15  C   UNL d   1     -45.796  12.207  22.906  0.00  0.00     0.043 A 
ATOM     16  C   UNL d   1     -45.056  11.849  22.958  0.00  0.00     0.096 A 
ATOM     17  C   UNL d   1     -44.427  12.133  22.505  0.00  0.00     0.024 A 
ATOM     18  C   UNL d   1     -44.539  12.776  21.999  0.00  0.00     0.004 A 
ATOM     19  C   UNL d   1     -45.279  13.135  21.947  0.00  0.00     0.019 A 
BRANCH  16  20
ATOM     20  O   UNL d   1     -44.931  11.200  23.463  0.00  0.00    -0.328 OA
ATOM     21  C   UNL d   1     -44.289  10.689  23.324  0.00  0.00     0.181 C 
ENDBRANCH  16  20
ENDBRANCH   2  14
TORSDOF 5
ENDMDL
MODEL 4
REMARK VINA RESULT:      -6.3      1.679      4.701
REMARK  5 active torsions:
REMARK  status: ('A' for Active; 'I' for Inactive)
REMARK    1  A    between atoms: C_2  and  C_1 
REMARK       I    between atoms: N_3  and  C_1 
REMARK       I    between atoms: N_4  and  C_2 
REMARK    2  A    between atoms: C_5  and  N_3 
REMARK    3  A    between atoms: C_10  and  N_4 
REMARK    4  A    between atoms: C_12  and  C_10 
REMARK    5  A    between atoms: O_13  and  C_11 
ROOT
ATOM      1  C   UNL d   1     -48.195  14.613  22.610  0.00  0.00     0.337 C 
ATOM      2  N   UNL d   1     -48.593  14.484  23.312  0.00  0.00    -0.204 NA
ATOM      3  O   UNL d   1     -48.619  14.699  21.908  0.00  0.00    -0.260 OA
ENDROOT
BRANCH   1   4
ATOM      4  C   UNL d   1     -47.371  14.657  22.601  0.00  0.00     0.337 C 
ATOM      5  N   UNL d   1     -46.921  13.970  22.624  0.00  0.00    -0.202 NA
ATOM      6  O   UNL d   1     -46.998  15.392  22.569  0.00  0.00    -0.260 OA
BRANCH   5   7
ATOM      7  C   UNL d   1     -46.103  14.013  22.616  0.00  0.00     0.102 C 
BRANCH   7   8
ATOM      8  C   UNL d   1     -45.653  13.323  22.563  0.00  0.00     0.022 A 
ATOM      9  C   UNL d   1     -45.004  13.301  22.068  0.00  0.00     0.022 A 
ATOM     10  C   UNL d   1     -44.554  12.610  22.015  0.00  0.00     0.099 A 
ATOM     11  N   UNL d   1     -44.760  11.949  22.461  0.00  0.00    -0.242 NA
ATOM     12  C   UNL d   1     -45.417  11.976  22.960  0.00  0.00     0.099 A 
ATOM     13  C   UNL d   1     -45.860  12.662  23.009  0.00  0.00     0.022 A 
ENDBRANCH   7   8
ENDBRANCH   5   7
ENDBRANCH   1   4
BRANCH   2  14
ATOM     14  C   UNL d   1     -49.417  14.440  23.321  0.00  0.00     0.087 A 
ATOM     15  C   UNL d   1     -49.792  13.710  23.232  0.00  0.00     0.043 A 
ATOM     16  C   UNL d   1     -50.615  13.666  23.241  0.00  0.00     0.096 A 
ATOM     17  C   UNL d   1     -51.064  14.352  23.338  0.00  0.00     0.024 A 
ATOM     18  C   UNL d   1     -50.688  15.082  23.427  0.00  0.00     0.004 A 
ATOM     19  C   UNL d   1     -49.866  15.126  23.419  0.00  0.00     0.019 A 
BRANCH  16  20
ATOM     20  O   UNL d   1     -51.004  12.937  23.152  0.00  0.00    -0.328 OA
ATOM     21  C   UNL d   1     -50.828  12.311  23.673  0.00  0.00     0.181 C 
ENDBRANCH  16  20
ENDBRANCH   2  14
TORSDOF 5
ENDMDL
MODEL 5
REMARK VINA RESULT:      -6.2      1.606      5.209
REMARK  5 active torsions:
REMARK  status: ('A' for Active; 'I' for Inactive)
REMARK    1  A    between atoms: C_2  and  C_1 
REMARK       I    between atoms: N_3  and  C_1 
REMARK       I    between atoms: N_4  and  C_2 
REMARK    2  A    between atoms: C_5  and  N_3 
REMARK    3  A    between atoms: C_10  and  N_4 
REMARK    4  A    between atoms: C_12  and  C_10 
REMARK    5  A    between atoms: O_13  and  C_11 
ROOT
ATOM      1  C   UNL d   1     -48.032  12.793  22.749  0.00  0.00     0.337 C 
ATOM      2  N   UNL d   1     -48.298  13.350  23.284  0.00  0.00    -0.204 NA
ATOM      3  O   UNL d   1     -48.079  12.947  21.940  0.00  0.00    -0.260 OA
ENDROOT
BRANCH   1   4
ATOM      4  C   UNL d   1     -47.716  12.078  23.015  0.00  0.00     0.337 C 
ATOM      5  N   UNL d   1     -46.903  11.986  23.080  0.00  0.00    -0.202 NA
ATOM      6  O   UNL d   1     -48.219  11.456  23.216  0.00  0.00    -0.260 OA
BRANCH   5   7
ATOM      7  C   UNL d   1     -46.590  11.276  23.344  0.00  0.00     0.102 C 
BRANCH   7   8
ATOM      8  C   UNL d   1     -45.772  11.159  23.341  0.00  0.00     0.022 A 
ATOM      9  C   UNL d   1     -45.286  11.711  22.985  0.00  0.00     0.022 A 
ATOM     10  C   UNL d   1     -44.469  11.594  22.982  0.00  0.00     0.099 A 
ATOM     11  N   UNL d   1     -44.147  10.923  23.336  0.00  0.00    -0.242 NA
ATOM     12  C   UNL d   1     -44.642  10.368  23.695  0.00  0.00     0.099 A 
ATOM     13  C   UNL d   1     -45.451  10.488  23.695  0.00  0.00     0.022 A 
ENDBRANCH   7   8
ENDBRANCH   5   7
ENDBRANCH   1   4
BRANCH   2  14
ATOM     14  C   UNL d   1     -48.613  14.065  23.019  0.00  0.00     0.087 A 
ATOM     15  C   UNL d   1     -49.413  14.233  23.139  0.00  0.00     0.043 A 
ATOM     16  C   UNL d   1     -49.728  14.947  22.873  0.00  0.00     0.096 A 
ATOM     17  C   UNL d   1     -49.244  15.494  22.487  0.00  0.00     0.024 A 
ATOM     18  C   UNL d   1     -48.445  15.325  22.367  0.00  0.00     0.004 A 
ATOM     19  C   UNL d   1     -48.130  14.612  22.633  0.00  0.00     0.019 A 
BRANCH  16  20
ATOM     20  O   UNL d   1     -50.531  15.127  22.988  0.00  0.00    -0.328 OA
ATOM     21  C   UNL d   1     -50.756  15.610  23.629  0.00  0.00     0.181 C 
ENDBRANCH  16  20
ENDBRANCH   2  14
TORSDOF 5
ENDMDL
MODEL 6
REMARK VINA RESULT:      -6.2      2.122      4.753
REMARK  5 active torsions:
REMARK  status: ('A' for Active; 'I' for Inactive)
REMARK    1  A    between atoms: C_2  and  C_1 
REMARK       I    between atoms: N_3  and  C_1 
REMARK       I    between atoms: N_4  and  C_2 
REMARK    2  A    between atoms: C_5  and  N_3 
REMARK    3  A    between atoms: C_10  and  N_4 
REMARK    4  A    between atoms: C_12  and  C_10 
REMARK    5  A    between atoms: O_13  and  C_11 
ROOT
ATOM      1  C   UNL d   1     -47.606  13.228  22.513  0.00  0.00     0.337 C 
ATOM      2  N   UNL d   1     -48.075  13.215  23.182  0.00  0.00    -0.204 NA
ATOM      3  O   UNL d   1     -47.886  12.899  21.810  0.00  0.00    -0.260 OA
ENDROOT
BRANCH   1   4
ATOM      4  C   UNL d   1     -46.855  13.568  22.538  0.00  0.00     0.337 C 
ATOM      5  N   UNL d   1     -46.199  13.136  22.299  0.00  0.00    -0.202 NA
ATOM      6  O   UNL d   1     -46.763  14.343  22.804  0.00  0.00    -0.260 OA
BRANCH   5   7
ATOM      7  C   UNL d   1     -45.452  13.474  22.324  0.00  0.00     0.102 C 
BRANCH   7   8
ATOM      8  C   UNL d   1     -44.786  13.015  22.162  0.00  0.00     0.022 A 
ATOM      9  C   UNL d   1     -44.676  12.309  22.558  0.00  0.00     0.022 A 
ATOM     10  C   UNL d   1     -44.009  11.849  22.396  0.00  0.00     0.099 A 
ATOM     11  N   UNL d   1     -43.459  12.104  21.838  0.00  0.00    -0.242 NA
ATOM     12  C   UNL d   1     -43.574  12.818  21.440  0.00  0.00     0.099 A 
ATOM     13  C   UNL d   1     -44.235  13.269  21.604  0.00  0.00     0.022 A 
ENDBRANCH   7   8
ENDBRANCH   5   7
ENDBRANCH   1   4
BRANCH   2  14
ATOM     14  C   UNL d   1     -48.827  12.875  23.157  0.00  0.00     0.087 A 
ATOM     15  C   UNL d   1     -49.484  13.339  22.972  0.00  0.00     0.043 A 
ATOM     16  C   UNL d   1     -50.234  12.999  22.947  0.00  0.00     0.096 A 
ATOM     17  C   UNL d   1     -50.329  12.195  23.107  0.00  0.00     0.024 A 
ATOM     18  C   UNL d   1     -49.672  11.731  23.293  0.00  0.00     0.004 A 
ATOM     19  C   UNL d   1     -48.921  12.071  23.318  0.00  0.00     0.019 A 
BRANCH  16  20
ATOM     20  O   UNL d   1     -50.903  13.457  22.761  0.00  0.00    -0.328 OA
ATOM     21  C   UNL d   1     -51.064  13.645  21.966  0.00  0.00     0.181 C 
ENDBRANCH  16  20
ENDBRANCH   2  14
TORSDOF 5
ENDMDL
MODEL 7
REMARK VINA RESULT:      -5.9      7.887      9.413
REMARK  5 active torsions:
REMARK  status: ('A' for Active; 'I' for Inactive)
REMARK    1  A    between atoms: C_2  and  C_1 
REMARK       I    between atoms: N_3  and  C_1 
REMARK       I    between atoms: N_4  and  C_2 
REMARK    2  A    between atoms: C_5  and  N_3 
REMARK    3  A    between atoms: C_10  and  N_4 
REMARK    4  A    between atoms: C_12  and  C_10 
REMARK    5  A    between atoms: O_13  and  C_11 
ROOT
ATOM      1  C   UNL d   1     -40.334  14.899  19.553  0.00  0.00     0.337 C 
ATOM      2  N   UNL d   1     -40.487  14.383  18.938  0.00  0.00    -0.204 NA
ATOM      3  O   UNL d   1     -40.071  15.664  19.391  0.00  0.00    -0.260 OA
ENDROOT
BRANCH   1   4
ATOM      4  C   UNL d   1     -40.441  14.657  20.335  0.00  0.00     0.337 C 
ATOM      5  N   UNL d   1     -39.791  14.514  20.815  0.00  0.00    -0.202 NA
ATOM      6  O   UNL d   1     -41.204  14.559  20.635  0.00  0.00    -0.260 OA
BRANCH   5   7
ATOM      7  C   UNL d   1     -39.897  14.273  21.591  0.00  0.00     0.102 C 
BRANCH   7   8
ATOM      8  C   UNL d   1     -39.242  14.134  22.074  0.00  0.00     0.022 A 
ATOM      9  C   UNL d   1     -38.907  13.389  22.095  0.00  0.00     0.022 A 
ATOM     10  C   UNL d   1     -38.252  13.250  22.578  0.00  0.00     0.099 A 
ATOM     11  N   UNL d   1     -37.940  13.860  23.035  0.00  0.00    -0.242 NA
ATOM     12  C   UNL d   1     -38.282  14.611  23.011  0.00  0.00     0.099 A 
ATOM     13  C   UNL d   1     -38.930  14.744  22.532  0.00  0.00     0.022 A 
ENDBRANCH   7   8
ENDBRANCH   5   7
ENDBRANCH   1   4
BRANCH   2  14
ATOM     14  C   UNL d   1     -40.379  14.625  18.156  0.00  0.00     0.087 A 
ATOM     15  C   UNL d   1     -39.711  14.382  17.737  0.00  0.00     0.043 A 
ATOM     16  C   UNL d   1     -39.604  14.623  16.956  0.00  0.00     0.096 A 
ATOM     17  C   UNL d   1     -40.165  15.108  16.593  0.00  0.00     0.024 A 
ATOM     18  C   UNL d   1     -40.833  15.352  17.013  0.00  0.00     0.004 A 
ATOM     19  C   UNL d   1     -40.940  15.110  17.793  0.00  0.00     0.019 A 
BRANCH  16  20
ATOM     20  O   UNL d   1     -38.935  14.384  16.525  0.00  0.00    -0.328 OA
ATOM     21  C   UNL d   1     -38.393  14.958  16.256  0.00  0.00     0.181 C 
ENDBRANCH  16  20
ENDBRANCH   2  14
TORSDOF 5
ENDMDL
MODEL 8
REMARK VINA RESULT:      -5.6      8.115      9.628
REMARK  5 active torsions:
REMARK  status: ('A' for Active; 'I' for Inactive)
REMARK    1  A    between atoms: C_2  and  C_1 
REMARK       I    between atoms: N_3  and  C_1 
REMARK       I    between atoms: N_4  and  C_2 
REMARK    2  A    between atoms: C_5  and  N_3 
REMARK    3  A    between atoms: C_10  and  N_4 
REMARK    4  A    between atoms: C_12  and  C_10 
REMARK    5  A    between atoms: O_13  and  C_11 
ROOT
ATOM      1  C   UNL d   1     -40.290  14.381  18.163  0.00  0.00     0.337 C 
ATOM      2  N   UNL d   1     -39.492  14.544  18.090  0.00  0.00    -0.204 NA
ATOM      3  O   UNL d   1     -40.753  14.293  17.487  0.00  0.00    -0.260 OA
ENDROOT
BRANCH   1   4
ATOM      4  C   UNL d   1     -40.632  14.305  18.910  0.00  0.00     0.337 C 
ATOM      5  N   UNL d   1     -40.300  14.687  19.556  0.00  0.00    -0.202 NA
ATOM      6  O   UNL d   1     -41.309  13.843  19.008  0.00  0.00    -0.260 OA
BRANCH   5   7
ATOM      7  C   UNL d   1     -40.640  14.612  20.299  0.00  0.00     0.102 C 
BRANCH   7   8
ATOM      8  C   UNL d   1     -40.237  14.882  20.967  0.00  0.00     0.022 A 
ATOM      9  C   UNL d   1     -40.346  15.651  21.220  0.00  0.00     0.022 A 
ATOM     10  C   UNL d   1     -39.943  15.922  21.888  0.00  0.00     0.099 A 
ATOM     11  N   UNL d   1     -39.436  15.417  22.296  0.00  0.00    -0.242 NA
ATOM     12  C   UNL d   1     -39.329  14.641  22.037  0.00  0.00     0.099 A 
ATOM     13  C   UNL d   1     -39.730  14.377  21.375  0.00  0.00     0.022 A 
ENDBRANCH   7   8
ENDBRANCH   5   7
ENDBRANCH   1   4
BRANCH   2  14
ATOM     14  C   UNL d   1     -39.150  14.621  17.343  0.00  0.00     0.087 A 
ATOM     15  C   UNL d   1     -38.750  13.982  17.005  0.00  0.00     0.043 A 
ATOM     16  C   UNL d   1     -38.409  14.058  16.259  0.00  0.00     0.096 A 
ATOM     17  C   UNL d   1     -38.466  14.773  15.850  0.00  0.00     0.024 A 
ATOM     18  C   UNL d   1     -38.865  15.412  16.188  0.00  0.00     0.004 A 
ATOM     19  C   UNL d   1     -39.207  15.336  16.934  0.00  0.00     0.019 A 
BRANCH  16  20
ATOM     20  O   UNL d   1     -38.004  13.422  15.909  0.00  0.00    -0.328 OA
ATOM     21  C   UNL d   1     -37.940  13.383  15.079  0.00  0.00     0.181 C 
ENDBRANCH  16  20
ENDBRANCH   2  14
TORSDOF 5
ENDMDL
MODEL 9
REMARK VINA RESULT:      -5.5      8.289      9.666
REMARK  5 active torsions:
REMARK  status: ('A' for Active; 'I' for Inactive)
REMARK    1  A    between atoms: C_2  and  C_1 
REMARK       I    between atoms: N_3  and  C_1 
REMARK       I    between atoms: N_4  and  C_2 
REMARK    2  A    between atoms: C_5  and  N_3 
REMARK    3  A    between atoms: C_10  and  N_4 
REMARK    4  A    between atoms: C_12  and  C_10 
REMARK    5  A    between atoms: O_13  and  C_11 
ROOT
ATOM      1  C   UNL d   1     -40.319  14.575  19.273  0.00  0.00     0.337 C 
ATOM      2  N   UNL d   1     -39.679  14.985  19.573  0.00  0.00    -0.204 NA
ATOM      3  O   UNL d   1     -40.915  14.317  19.782  0.00  0.00    -0.260 OA
ENDROOT
BRANCH   1   4
ATOM      4  C   UNL d   1     -40.371  14.419  18.465  0.00  0.00     0.337 C 
ATOM      5  N   UNL d   1     -39.795  14.701  17.953  0.00  0.00    -0.202 NA
ATOM      6  O   UNL d   1     -41.004  13.979  18.171  0.00  0.00    -0.260 OA
BRANCH   5   7
ATOM      7  C   UNL d   1     -39.847  14.546  17.149  0.00  0.00     0.102 C 
BRANCH   7   8
ATOM      8  C   UNL d   1     -39.241  14.785  16.643  0.00  0.00     0.022 A 
ATOM      9  C   UNL d   1     -39.164  15.575  16.449  0.00  0.00     0.022 A 
ATOM     10  C   UNL d   1     -38.558  15.814  15.942  0.00  0.00     0.099 A 
ATOM     11  N   UNL d   1     -38.034  15.257  15.634  0.00  0.00    -0.242 NA
ATOM     12  C   UNL d   1     -38.115  14.460  15.833  0.00  0.00     0.099 A 
ATOM     13  C   UNL d   1     -38.717  14.228  16.335  0.00  0.00     0.022 A 
ENDBRANCH   7   8
ENDBRANCH   5   7
ENDBRANCH   1   4
BRANCH   2  14
ATOM     14  C   UNL d   1     -39.626  15.142  20.382  0.00  0.00     0.087 A 
ATOM     15  C   UNL d   1     -39.145  14.674  20.862  0.00  0.00     0.043 A 
ATOM     16  C   UNL d   1     -39.093  14.830  21.670  0.00  0.00     0.096 A 
ATOM     17  C   UNL d   1     -39.522  15.454  21.998  0.00  0.00     0.024 A 
ATOM     18  C   UNL d   1     -40.003  15.922  21.518  0.00  0.00     0.004 A 
ATOM     19  C   UNL d   1     -40.056  15.766  20.710  0.00  0.00     0.019 A 
BRANCH  16  20
ATOM     20  O   UNL d   1     -38.611  14.365  22.163  0.00  0.00    -0.328 OA
ATOM     21  C   UNL d   1     -38.924  13.678  22.514  0.00  0.00     0.181 C 
ENDBRANCH  16  20
ENDBRANCH   2  14
TORSDOF 5
ENDMDL
