MODEL 1
REMARK VINA RESULT:      55.2      0.000      0.000
REMARK  7 active torsions:
REMARK  status: ('A' for Active; 'I' for Inactive)
REMARK    1  A    between atoms: N_2  and  S_1 
REMARK    2  A    between atoms: C_6  and  S_1 
REMARK    3  A    between atoms: C_11  and  C_3 
REMARK    4  A    between atoms: C_4  and  C_5 
REMARK       I    between atoms: N_7  and  C_4 
REMARK       I    between atoms: C_5  and  N_10 
REMARK    5  A    between atoms: C_19  and  N_7 
REMARK    6  A    between atoms: N_10  and  C_11 
REMARK    7  A    between atoms: O_23  and  C_18 
ROOT
ATOM      1  N   UNL d   1      45.072 -14.946  36.956  0.00  0.00    -0.209 N 
ATOM      2  C   UNL d   1      45.276 -14.353  37.495  0.00  0.00     0.197 A 
ATOM      3  O   UNL d   1      46.056 -14.128  37.598  0.00  0.00    -0.287 OA
ATOM      4  C   UNL d   1      45.669 -15.318  36.515  0.00  0.00     0.096 A 
ATOM      5  C   UNL d   1      46.451 -15.094  36.618  0.00  0.00     0.047 A 
ATOM      6  C   UNL d   1      46.646 -14.503  37.155  0.00  0.00     0.126 A 
ENDROOT
BRANCH   2   7
ATOM      7  C   UNL d   1      44.678 -13.978  37.939  0.00  0.00     0.146 C 
BRANCH   7   8
ATOM      8  N   UNL d   1      44.875 -13.527  38.599  0.00  0.00    -0.199 NA
ATOM      9  C   UNL d   1      44.308 -13.354  39.162  0.00  0.00     0.337 C 
ATOM     10  O   UNL d   1      43.533 -13.631  39.073  0.00  0.00    -0.260 OA
BRANCH   9  11
ATOM     11  C   UNL d   1      44.506 -12.902  39.823  0.00  0.00     0.337 C 
ATOM     12  N   UNL d   1      44.787 -13.267  40.504  0.00  0.00    -0.204 NA
ATOM     13  O   UNL d   1      44.422 -12.080  39.801  0.00  0.00    -0.260 OA
BRANCH  12  14
ATOM     14  C   UNL d   1      44.986 -12.813  41.167  0.00  0.00     0.085 A 
ATOM     15  C   UNL d   1      44.338 -12.618  41.625  0.00  0.00     0.019 A 
ATOM     16  C   UNL d   1      44.622 -12.169  42.260  0.00  0.00     0.002 A 
ATOM     17  C   UNL d   1      45.435 -12.093  42.188  0.00  0.00     0.002 A 
ATOM     18  C   UNL d   1      45.665 -12.501  41.496  0.00  0.00     0.019 A 
ENDBRANCH  12  14
ENDBRANCH   9  11
ENDBRANCH   7   8
ENDBRANCH   2   7
BRANCH   1  19
ATOM     19  S   UNL d   1      44.283 -15.164  36.861  0.00  0.00     0.273 S 
ATOM     20  O   UNL d   1      44.397 -15.789  37.394  0.00  0.00    -0.200 OA
ATOM     21  O   UNL d   1      44.171 -14.540  36.330  0.00  0.00    -0.200 OA
BRANCH  19  22
ATOM     22  C   UNL d   1      43.495 -15.388  36.771  0.00  0.00     0.104 A 
ATOM     23  C   UNL d   1      43.268 -16.161  36.947  0.00  0.00     0.015 A 
ATOM     24  C   UNL d   1      42.478 -16.387  36.857  0.00  0.00     0.025 A 
ATOM     25  C   UNL d   1      41.921 -15.847  36.595  0.00  0.00     0.094 A 
ATOM     26  C   UNL d   1      42.138 -15.067  36.416  0.00  0.00     0.025 A 
ATOM     27  C   UNL d   1      42.930 -14.837  36.505  0.00  0.00     0.015 A 
BRANCH  25  28
ATOM     28  O   UNL d   1      41.128 -16.075  36.506  0.00  0.00    -0.328 OA
ATOM     29  C   UNL d   1      40.938 -16.867  36.375  0.00  0.00     0.181 C 
ENDBRANCH  25  28
ENDBRANCH  19  22
ENDBRANCH   1  19
TORSDOF 7
ENDMDL
