MODEL 1
REMARK VINA RESULT:      75.2      0.000      0.000
REMARK  5 active torsions:
REMARK  status: ('A' for Active; 'I' for Inactive)
REMARK    1  A    between atoms: C_23  and  N_10 
REMARK    2  A    between atoms: C_14  and  N_13 
REMARK    3  A    between atoms: N_15  and  C_28 
REMARK    4  A    between atoms: C_27  and  C_23 
REMARK    5  A    between atoms: C_28  and  C_27 
ROOT
ATOM      1  C   UNL d   1     -47.632  31.393  35.017  0.00  0.00     0.173 A 
ATOM      2  C   UNL d   1     -48.152  31.156  34.449  0.00  0.00     0.191 A 
ATOM      3  C   UNL d   1     -48.123  29.821  34.952  0.00  0.00     0.722 A 
ATOM      4  N   UNL d   1     -47.587  30.054  35.541  0.00  0.00    -0.131 N 
ATOM      5  N   UNL d   1     -48.405  30.371  34.407  0.00  0.00    -0.042 NA
ATOM      6  N   UNL d   1     -48.441  31.693  33.900  0.00  0.00    -0.240 N 
ATOM      7  N   UNL d   1     -47.631  32.719  34.555  0.00  0.00    -0.223 N 
ATOM      8  C   UNL d   1     -48.181  32.479  33.950  0.00  0.00     0.343 A 
ATOM      9  C   UNL d   1     -47.356  32.166  35.092  0.00  0.00     0.288 A 
ATOM     10  N   UNL d   1     -48.375  29.036  34.910  0.00  0.00    -0.139 N 
ATOM     11  C   UNL d   1     -47.558  28.708  36.048  0.00  0.00     0.116 A 
ATOM     12  C   UNL d   1     -48.093  28.474  35.460  0.00  0.00     0.100 A 
ATOM     13  O   UNL d   1     -48.493  33.028  33.368  0.00  0.00    -0.245 OA
ATOM     14  O   UNL d   1     -46.822  32.399  35.680  0.00  0.00    -0.265 OA
ATOM     15  C   UNL d   1     -48.976  31.459  33.312  0.00  0.00     0.105 C 
ATOM     16  C   UNL d   1     -47.379  33.504  34.597  0.00  0.00     0.107 C 
ATOM     17  C   UNL d   1     -48.361  27.694  35.397  0.00  0.00     0.021 C 
ENDROOT
BRANCH  10  18
ATOM     18  C   UNL d   1     -48.910  28.796  34.325  0.00  0.00     0.100 C 
BRANCH  18  19
ATOM     19  C   UNL d   1     -49.019  27.990  34.155  0.00  0.00     0.039 C 
BRANCH  19  20
ATOM     20  C   UNL d   1     -49.435  27.763  33.490  0.00  0.00     0.082 C 
BRANCH  20  21
ATOM     21  N   UNL d   1     -49.808  27.027  33.464  0.00  0.00    -0.300 N 
ATOM     22  C   UNL d   1     -50.622  26.987  33.333  0.00  0.00     0.100 A 
ATOM     23  C   UNL d   1     -50.991  26.246  33.308  0.00  0.00     0.100 A 
ATOM     24  N   UNL d   1     -50.556  25.558  33.413  0.00  0.00    -0.301 N 
ATOM     25  C   UNL d   1     -49.741  25.603  33.545  0.00  0.00     0.100 A 
ATOM     26  C   UNL d   1     -49.368  26.334  33.570  0.00  0.00     0.100 A 
BRANCH  24  27
ATOM     27  C   UNL d   1     -50.930  24.823  33.387  0.00  0.00     0.065 A 
ATOM     28  C   UNL d   1     -51.745  24.779  33.363  0.00  0.00     0.029 A 
ATOM     29  C   UNL d   1     -52.117  24.054  33.338  0.00  0.00     0.059 A 
ATOM     30 CL   UNL d   1     -52.951  24.009  33.313  0.00  0.00    -0.082 Cl
ATOM     31  C   UNL d   1     -51.667  23.358  33.336  0.00  0.00     0.011 A 
ATOM     32  C   UNL d   1     -50.843  23.398  33.361  0.00  0.00     0.002 A 
ATOM     33  C   UNL d   1     -50.470  24.133  33.386  0.00  0.00     0.018 A 
ENDBRANCH  24  27
ENDBRANCH  20  21
ENDBRANCH  19  20
ENDBRANCH  18  19
ENDBRANCH  10  18
TORSDOF 5
ENDMDL
