MODEL 1
REMARK VINA RESULT:      -6.0      0.000      0.000
REMARK  6 active torsions:
REMARK  status: ('A' for Active; 'I' for Inactive)
REMARK    1  A    between atoms: C_12  and  N_1 
REMARK    2  A    between atoms: N_8  and  C_2 
REMARK    3  A    between atoms: C_6  and  C_5 
REMARK    4  A    between atoms: C_7  and  C_6 
REMARK       I    between atoms: N_9  and  C_7 
REMARK    5  A    between atoms: C_19  and  N_8 
REMARK    6  A    between atoms: C_13  and  N_9 
ROOT
ATOM      1  N   UNL d   1     -45.938  12.004  23.106  0.00  0.00    -0.252 N 
ATOM      2  C   UNL d   1     -45.583  12.490  22.535  0.00  0.00     0.182 A 
ATOM      3  C   UNL d   1     -46.737  12.225  23.165  0.00  0.00     0.272 A 
ATOM      4  S   UNL d   1     -46.157  13.010  22.241  0.00  0.00    -0.045 SA
ATOM      5  C   UNL d   1     -46.869  12.843  22.633  0.00  0.00     0.093 A 
ATOM      6  O   UNL d   1     -47.304  11.881  23.674  0.00  0.00    -0.266 OA
ENDROOT
BRANCH   5   7
ATOM      7  C   UNL d   1     -47.436  13.358  22.342  0.00  0.00     0.074 C 
BRANCH   7   8
ATOM      8  C   UNL d   1     -48.010  13.843  22.679  0.00  0.00     0.280 C 
ATOM      9  N   UNL d   1     -48.756  13.895  22.336  0.00  0.00    -0.208 NA
ATOM     10  O   UNL d   1     -47.836  14.276  23.359  0.00  0.00    -0.265 OA
BRANCH   9  11
ATOM     11  C   UNL d   1     -49.327  14.387  22.684  0.00  0.00     0.085 A 
ATOM     12  C   UNL d   1     -49.329  15.190  22.501  0.00  0.00     0.019 A 
ATOM     13  C   UNL d   1     -49.886  15.689  22.836  0.00  0.00     0.002 A 
ATOM     14  C   UNL d   1     -50.443  15.384  23.355  0.00  0.00     0.000 A 
ATOM     15  C   UNL d   1     -50.439  14.577  23.538  0.00  0.00     0.002 A 
ATOM     16  C   UNL d   1     -51.008  15.878  23.698  0.00  0.00     0.000 C 
ATOM     17  C   UNL d   1     -49.878  14.085  23.198  0.00  0.00     0.019 A 
ENDBRANCH   9  11
ENDBRANCH   7   8
ENDBRANCH   5   7
BRANCH   1  18
ATOM     18  C   UNL d   1     -45.534  11.410  23.525  0.00  0.00     0.085 C 
ATOM     19  C   UNL d   1     -45.896  10.688  23.694  0.00  0.00     0.021 C 
ENDBRANCH   1  18
BRANCH   2  20
ATOM     20  N   UNL d   1     -44.804  12.523  22.246  0.00  0.00    -0.221 NA
BRANCH  20  21
ATOM     21  C   UNL d   1     -44.399  13.019  21.725  0.00  0.00     0.101 C 
ATOM     22  C   UNL d   1     -43.653  12.803  21.447  0.00  0.00     0.022 C 
ENDBRANCH  20  21
ENDBRANCH   2  20
TORSDOF 6
ENDMDL
MODEL 2
REMARK VINA RESULT:      -5.6      1.437      4.843
REMARK  6 active torsions:
REMARK  status: ('A' for Active; 'I' for Inactive)
REMARK    1  A    between atoms: C_12  and  N_1 
REMARK    2  A    between atoms: N_8  and  C_2 
REMARK    3  A    between atoms: C_6  and  C_5 
REMARK    4  A    between atoms: C_7  and  C_6 
REMARK       I    between atoms: N_9  and  C_7 
REMARK    5  A    between atoms: C_19  and  N_8 
REMARK    6  A    between atoms: C_13  and  N_9 
ROOT
ATOM      1  N   UNL d   1     -49.921  12.720  23.178  0.00  0.00    -0.252 N 
ATOM      2  C   UNL d   1     -49.850  13.546  23.232  0.00  0.00     0.182 A 
ATOM      3  C   UNL d   1     -49.156  12.397  23.226  0.00  0.00     0.272 A 
ATOM      4  S   UNL d   1     -49.048  13.734  23.313  0.00  0.00    -0.045 SA
ATOM      5  C   UNL d   1     -48.621  13.022  23.309  0.00  0.00     0.093 A 
ATOM      6  O   UNL d   1     -48.966  11.585  23.195  0.00  0.00    -0.266 OA
ENDROOT
BRANCH   5   7
ATOM      7  C   UNL d   1     -47.828  13.210  23.389  0.00  0.00     0.074 C 
BRANCH   7   8
ATOM      8  C   UNL d   1     -47.159  13.120  22.918  0.00  0.00     0.280 C 
ATOM      9  N   UNL d   1     -46.414  13.081  23.266  0.00  0.00    -0.208 NA
ATOM     10  O   UNL d   1     -47.234  13.069  22.098  0.00  0.00    -0.265 OA
BRANCH   9  11
ATOM     11  C   UNL d   1     -45.746  12.991  22.783  0.00  0.00     0.085 A 
ATOM     12  C   UNL d   1     -45.307  12.296  22.833  0.00  0.00     0.019 A 
ATOM     13  C   UNL d   1     -44.644  12.191  22.362  0.00  0.00     0.002 A 
ATOM     14  C   UNL d   1     -44.420  12.783  21.840  0.00  0.00     0.000 A 
ATOM     15  C   UNL d   1     -44.863  13.480  21.791  0.00  0.00     0.002 A 
ATOM     16  C   UNL d   1     -43.755  12.687  21.362  0.00  0.00     0.000 C 
ATOM     17  C   UNL d   1     -45.524  13.576  22.265  0.00  0.00     0.019 A 
ENDBRANCH   9  11
ENDBRANCH   7   8
ENDBRANCH   5   7
BRANCH   1  18
ATOM     18  C   UNL d   1     -50.645  12.322  23.092  0.00  0.00     0.085 C 
ATOM     19  C   UNL d   1     -50.914  11.799  23.671  0.00  0.00     0.021 C 
ENDBRANCH   1  18
BRANCH   2  20
ATOM     20  N   UNL d   1     -50.421  14.150  23.218  0.00  0.00    -0.221 NA
BRANCH  20  21
ATOM     21  C   UNL d   1     -50.405  14.966  23.341  0.00  0.00     0.101 C 
ATOM     22  C   UNL d   1     -51.064  15.424  23.151  0.00  0.00     0.022 C 
ENDBRANCH  20  21
ENDBRANCH   2  20
TORSDOF 6
ENDMDL
MODEL 3
REMARK VINA RESULT:      -5.2      8.589      9.676
REMARK  6 active torsions:
REMARK  status: ('A' for Active; 'I' for Inactive)
REMARK    1  A    between atoms: C_12  and  N_1 
REMARK    2  A    between atoms: N_8  and  C_2 
REMARK    3  A    between atoms: C_6  and  C_5 
REMARK    4  A    between atoms: C_7  and  C_6 
REMARK       I    between atoms: N_9  and  C_7 
REMARK    5  A    between atoms: C_19  and  N_8 
REMARK    6  A    between atoms: C_13  and  N_9 
ROOT
ATOM      1  N   UNL d   1     -39.520  14.649  17.080  0.00  0.00    -0.252 N 
ATOM      2  C   UNL d   1     -40.250  15.014  17.231  0.00  0.00     0.182 A 
ATOM      3  C   UNL d   1     -39.256  14.308  17.791  0.00  0.00     0.272 A 
ATOM      4  S   UNL d   1     -40.439  14.900  18.029  0.00  0.00    -0.045 SA
ATOM      5  C   UNL d   1     -39.822  14.463  18.373  0.00  0.00     0.093 A 
ATOM      6  O   UNL d   1     -38.544  13.883  17.895  0.00  0.00    -0.266 OA
ENDROOT
BRANCH   5   7
ATOM      7  C   UNL d   1     -40.010  14.350  19.162  0.00  0.00     0.074 C 
BRANCH   7   8
ATOM      8  C   UNL d   1     -39.632  14.503  19.878  0.00  0.00     0.280 C 
ATOM      9  N   UNL d   1     -39.741  13.996  20.516  0.00  0.00    -0.208 NA
ATOM     10  O   UNL d   1     -39.145  15.165  19.954  0.00  0.00    -0.265 OA
BRANCH   9  11
ATOM     11  C   UNL d   1     -39.356  14.160  21.233  0.00  0.00     0.085 A 
ATOM     12  C   UNL d   1     -38.695  13.715  21.442  0.00  0.00     0.019 A 
ATOM     13  C   UNL d   1     -38.303  13.864  22.147  0.00  0.00     0.002 A 
ATOM     14  C   UNL d   1     -38.573  14.459  22.643  0.00  0.00     0.000 A 
ATOM     15  C   UNL d   1     -39.238  14.904  22.430  0.00  0.00     0.002 A 
ATOM     16  C   UNL d   1     -38.186  14.617  23.354  0.00  0.00     0.000 C 
ATOM     17  C   UNL d   1     -39.623  14.749  21.724  0.00  0.00     0.019 A 
ENDBRANCH   9  11
ENDBRANCH   7   8
ENDBRANCH   5   7
BRANCH   1  18
ATOM     18  C   UNL d   1     -39.148  14.646  16.337  0.00  0.00     0.085 C 
ATOM     19  C   UNL d   1     -38.396  14.971  16.237  0.00  0.00     0.021 C 
ENDBRANCH   1  18
BRANCH   2  20
ATOM     20  N   UNL d   1     -40.768  15.437  16.737  0.00  0.00    -0.221 NA
BRANCH  20  21
ATOM     21  C   UNL d   1     -41.523  15.758  16.827  0.00  0.00     0.101 C 
ATOM     22  C   UNL d   1     -41.982  15.922  16.161  0.00  0.00     0.022 C 
ENDBRANCH  20  21
ENDBRANCH   2  20
TORSDOF 6
ENDMDL
MODEL 4
REMARK VINA RESULT:      -4.7      8.874     10.129
REMARK  6 active torsions:
REMARK  status: ('A' for Active; 'I' for Inactive)
REMARK    1  A    between atoms: C_12  and  N_1 
REMARK    2  A    between atoms: N_8  and  C_2 
REMARK    3  A    between atoms: C_6  and  C_5 
REMARK    4  A    between atoms: C_7  and  C_6 
REMARK       I    between atoms: N_9  and  C_7 
REMARK    5  A    between atoms: C_19  and  N_8 
REMARK    6  A    between atoms: C_13  and  N_9 
ROOT
ATOM      1  N   UNL d   1     -40.042  15.785  17.120  0.00  0.00    -0.252 N 
ATOM      2  C   UNL d   1     -39.245  15.742  16.891  0.00  0.00     0.182 A 
ATOM      3  C   UNL d   1     -40.073  15.701  17.946  0.00  0.00     0.272 A 
ATOM      4  S   UNL d   1     -38.784  15.631  17.570  0.00  0.00    -0.045 SA
ATOM      5  C   UNL d   1     -39.299  15.606  18.221  0.00  0.00     0.093 A 
ATOM      6  O   UNL d   1     -40.765  15.711  18.414  0.00  0.00    -0.266 OA
ENDROOT
BRANCH   5   7
ATOM      7  C   UNL d   1     -38.842  15.497  18.892  0.00  0.00     0.074 C 
BRANCH   7   8
ATOM      8  C   UNL d   1     -38.854  14.969  19.525  0.00  0.00     0.280 C 
ATOM      9  N   UNL d   1     -38.658  15.230  20.280  0.00  0.00    -0.208 NA
ATOM     10  O   UNL d   1     -39.063  14.181  19.401  0.00  0.00    -0.265 OA
BRANCH   9  11
ATOM     11  C   UNL d   1     -38.674  14.690  20.910  0.00  0.00     0.085 A 
ATOM     12  C   UNL d   1     -39.279  14.741  21.466  0.00  0.00     0.019 A 
ATOM     13  C   UNL d   1     -39.309  14.215  22.094  0.00  0.00     0.002 A 
ATOM     14  C   UNL d   1     -38.731  13.638  22.167  0.00  0.00     0.000 A 
ATOM     15  C   UNL d   1     -38.123  13.589  21.608  0.00  0.00     0.002 A 
ATOM     16  C   UNL d   1     -38.751  13.104  22.796  0.00  0.00     0.000 C 
ATOM     17  C   UNL d   1     -38.101  14.119  20.982  0.00  0.00     0.019 A 
ENDBRANCH   9  11
ENDBRANCH   7   8
ENDBRANCH   5   7
BRANCH   1  18
ATOM     18  C   UNL d   1     -40.671  15.895  16.588  0.00  0.00     0.085 C 
ATOM     19  C   UNL d   1     -41.452  15.922  16.854  0.00  0.00     0.021 C 
ENDBRANCH   1  18
BRANCH   2  20
ATOM     20  N   UNL d   1     -38.882  15.789  16.145  0.00  0.00    -0.221 NA
BRANCH  20  21
ATOM     21  C   UNL d   1     -38.101  15.807  15.880  0.00  0.00     0.101 C 
ATOM     22  C   UNL d   1     -37.940  15.921  15.078  0.00  0.00     0.022 C 
ENDBRANCH  20  21
ENDBRANCH   2  20
TORSDOF 6
ENDMDL
MODEL 5
REMARK VINA RESULT:      -4.5      1.283      2.082
REMARK  6 active torsions:
REMARK  status: ('A' for Active; 'I' for Inactive)
REMARK    1  A    between atoms: C_12  and  N_1 
REMARK    2  A    between atoms: N_8  and  C_2 
REMARK    3  A    between atoms: C_6  and  C_5 
REMARK    4  A    between atoms: C_7  and  C_6 
REMARK       I    between atoms: N_9  and  C_7 
REMARK    5  A    between atoms: C_19  and  N_8 
REMARK    6  A    between atoms: C_13  and  N_9 
ROOT
ATOM      1  N   UNL d   1     -45.075  12.246  22.625  0.00  0.00    -0.252 N 
ATOM      2  C   UNL d   1     -45.356  11.620  23.093  0.00  0.00     0.182 A 
ATOM      3  C   UNL d   1     -45.698  12.786  22.526  0.00  0.00     0.272 A 
ATOM      4  S   UNL d   1     -46.147  11.770  23.283  0.00  0.00    -0.045 SA
ATOM      5  C   UNL d   1     -46.356  12.492  22.931  0.00  0.00     0.093 A 
ATOM      6  O   UNL d   1     -45.663  13.500  22.093  0.00  0.00    -0.266 OA
ENDROOT
BRANCH   5   7
ATOM      7  C   UNL d   1     -47.140  12.640  23.119  0.00  0.00     0.074 C 
BRANCH   7   8
ATOM      8  C   UNL d   1     -47.812  12.845  22.691  0.00  0.00     0.280 C 
ATOM      9  N   UNL d   1     -48.401  13.299  23.044  0.00  0.00    -0.208 NA
ATOM     10  O   UNL d   1     -47.896  12.596  21.909  0.00  0.00    -0.265 OA
BRANCH   9  11
ATOM     11  C   UNL d   1     -49.075  13.500  22.603  0.00  0.00     0.085 A 
ATOM     12  C   UNL d   1     -49.154  14.269  22.321  0.00  0.00     0.019 A 
ATOM     13  C   UNL d   1     -49.814  14.483  21.884  0.00  0.00     0.002 A 
ATOM     14  C   UNL d   1     -50.396  13.927  21.730  0.00  0.00     0.000 A 
ATOM     15  C   UNL d   1     -50.315  13.154  22.015  0.00  0.00     0.002 A 
ATOM     16  C   UNL d   1     -51.064  14.132  21.292  0.00  0.00     0.000 C 
ATOM     17  C   UNL d   1     -49.652  12.949  22.451  0.00  0.00     0.019 A 
ENDBRANCH   9  11
ENDBRANCH   7   8
ENDBRANCH   5   7
BRANCH   1  18
ATOM     18  C   UNL d   1     -44.300  12.290  22.327  0.00  0.00     0.085 C 
ATOM     19  C   UNL d   1     -44.097  12.848  21.754  0.00  0.00     0.021 C 
ENDBRANCH   1  18
BRANCH   2  20
ATOM     20  N   UNL d   1     -44.985  10.929  23.370  0.00  0.00    -0.221 NA
BRANCH  20  21
ATOM     21  C   UNL d   1     -45.251  10.220  23.698  0.00  0.00     0.101 C 
ATOM     22  C   UNL d   1     -44.819   9.526  23.583  0.00  0.00     0.022 C 
ENDBRANCH  20  21
ENDBRANCH   2  20
TORSDOF 6
ENDMDL
MODEL 6
REMARK VINA RESULT:      -4.4      1.750      5.018
REMARK  6 active torsions:
REMARK  status: ('A' for Active; 'I' for Inactive)
REMARK    1  A    between atoms: C_12  and  N_1 
REMARK    2  A    between atoms: N_8  and  C_2 
REMARK    3  A    between atoms: C_6  and  C_5 
REMARK    4  A    between atoms: C_7  and  C_6 
REMARK       I    between atoms: N_9  and  C_7 
REMARK    5  A    between atoms: C_19  and  N_8 
REMARK    6  A    between atoms: C_13  and  N_9 
ROOT
ATOM      1  N   UNL d   1     -50.306  13.074  22.363  0.00  0.00    -0.252 N 
ATOM      2  C   UNL d   1     -50.217  13.528  23.053  0.00  0.00     0.182 A 
ATOM      3  C   UNL d   1     -49.830  12.398  22.442  0.00  0.00     0.272 A 
ATOM      4  S   UNL d   1     -49.689  13.136  23.556  0.00  0.00    -0.045 SA
ATOM      5  C   UNL d   1     -49.451  12.438  23.176  0.00  0.00     0.093 A 
ATOM      6  O   UNL d   1     -49.750  11.787  21.877  0.00  0.00    -0.266 OA
ENDROOT
BRANCH   5   7
ATOM      7  C   UNL d   1     -48.929  12.051  23.674  0.00  0.00     0.074 C 
BRANCH   7   8
ATOM      8  C   UNL d   1     -48.174  11.733  23.592  0.00  0.00     0.280 C 
ATOM      9  N   UNL d   1     -47.523  12.231  23.520  0.00  0.00    -0.208 NA
ATOM     10  O   UNL d   1     -48.070  10.914  23.582  0.00  0.00    -0.265 OA
BRANCH   9  11
ATOM     11  C   UNL d   1     -46.767  11.900  23.438  0.00  0.00     0.085 A 
ATOM     12  C   UNL d   1     -46.170  12.347  23.090  0.00  0.00     0.019 A 
ATOM     13  C   UNL d   1     -45.417  12.034  23.002  0.00  0.00     0.002 A 
ATOM     14  C   UNL d   1     -45.262  11.272  23.263  0.00  0.00     0.000 A 
ATOM     15  C   UNL d   1     -45.864  10.825  23.613  0.00  0.00     0.002 A 
ATOM     16  C   UNL d   1     -44.508  10.948  23.178  0.00  0.00     0.000 C 
ATOM     17  C   UNL d   1     -46.613  11.146  23.697  0.00  0.00     0.019 A 
ENDBRANCH   9  11
ENDBRANCH   7   8
ENDBRANCH   5   7
BRANCH   1  18
ATOM     18  C   UNL d   1     -50.796  13.290  21.727  0.00  0.00     0.085 C 
ATOM     19  C   UNL d   1     -50.506  13.303  20.954  0.00  0.00     0.021 C 
ENDBRANCH   1  18
BRANCH   2  20
ATOM     20  N   UNL d   1     -50.554  14.252  23.284  0.00  0.00    -0.221 NA
BRANCH  20  21
ATOM     21  C   UNL d   1     -50.277  14.918  23.684  0.00  0.00     0.101 C 
ATOM     22  C   UNL d   1     -50.682  15.635  23.620  0.00  0.00     0.022 C 
ENDBRANCH  20  21
ENDBRANCH   2  20
TORSDOF 6
ENDMDL
MODEL 7
REMARK VINA RESULT:      -4.0      7.565     10.249
REMARK  6 active torsions:
REMARK  status: ('A' for Active; 'I' for Inactive)
REMARK    1  A    between atoms: C_12  and  N_1 
REMARK    2  A    between atoms: N_8  and  C_2 
REMARK    3  A    between atoms: C_6  and  C_5 
REMARK    4  A    between atoms: C_7  and  C_6 
REMARK       I    between atoms: N_9  and  C_7 
REMARK    5  A    between atoms: C_19  and  N_8 
REMARK    6  A    between atoms: C_13  and  N_9 
ROOT
ATOM      1  N   UNL d   1     -40.133  14.983  20.704  0.00  0.00    -0.252 N 
ATOM      2  C   UNL d   1     -39.375  15.253  20.913  0.00  0.00     0.182 A 
ATOM      3  C   UNL d   1     -40.215  15.071  19.882  0.00  0.00     0.272 A 
ATOM      4  S   UNL d   1     -38.991  15.508  20.226  0.00  0.00    -0.045 SA
ATOM      5  C   UNL d   1     -39.512  15.394  19.590  0.00  0.00     0.093 A 
ATOM      6  O   UNL d   1     -40.889  14.869  19.433  0.00  0.00    -0.266 OA
ENDROOT
BRANCH   5   7
ATOM      7  C   UNL d   1     -39.130  15.646  18.911  0.00  0.00     0.074 C 
BRANCH   7   8
ATOM      8  C   UNL d   1     -38.822  15.273  18.244  0.00  0.00     0.280 C 
ATOM      9  N   UNL d   1     -39.185  15.374  17.513  0.00  0.00    -0.208 NA
ATOM     10  O   UNL d   1     -38.149  14.800  18.309  0.00  0.00    -0.265 OA
BRANCH   9  11
ATOM     11  C   UNL d   1     -38.867  14.994  16.847  0.00  0.00     0.085 A 
ATOM     12  C   UNL d   1     -39.063  14.207  16.703  0.00  0.00     0.019 A 
ATOM     13  C   UNL d   1     -38.757  13.817  16.050  0.00  0.00     0.002 A 
ATOM     14  C   UNL d   1     -38.253  14.216  15.540  0.00  0.00     0.000 A 
ATOM     15  C   UNL d   1     -38.057  15.006  15.687  0.00  0.00     0.002 A 
ATOM     16  C   UNL d   1     -37.940  13.833  14.880  0.00  0.00     0.000 C 
ATOM     17  C   UNL d   1     -38.368  15.388  16.342  0.00  0.00     0.019 A 
ENDBRANCH   9  11
ENDBRANCH   7   8
ENDBRANCH   5   7
BRANCH   1  18
ATOM     18  C   UNL d   1     -40.684  14.684  21.249  0.00  0.00     0.085 C 
ATOM     19  C   UNL d   1     -40.983  13.918  21.174  0.00  0.00     0.021 C 
ENDBRANCH   1  18
BRANCH   2  20
ATOM     20  N   UNL d   1     -38.989  15.299  21.648  0.00  0.00    -0.221 NA
BRANCH  20  21
ATOM     21  C   UNL d   1     -38.212  15.438  21.887  0.00  0.00     0.101 C 
ATOM     22  C   UNL d   1     -38.022  15.436  22.691  0.00  0.00     0.022 C 
ENDBRANCH  20  21
ENDBRANCH   2  20
TORSDOF 6
ENDMDL
MODEL 8
REMARK VINA RESULT:      -4.0      1.244      5.009
REMARK  6 active torsions:
REMARK  status: ('A' for Active; 'I' for Inactive)
REMARK    1  A    between atoms: C_12  and  N_1 
REMARK    2  A    between atoms: N_8  and  C_2 
REMARK    3  A    between atoms: C_6  and  C_5 
REMARK    4  A    between atoms: C_7  and  C_6 
REMARK       I    between atoms: N_9  and  C_7 
REMARK    5  A    between atoms: C_19  and  N_8 
REMARK    6  A    between atoms: C_13  and  N_9 
ROOT
ATOM      1  N   UNL d   1     -49.016  14.347  23.217  0.00  0.00    -0.252 N 
ATOM      2  C   UNL d   1     -49.176  13.536  23.138  0.00  0.00     0.182 A 
ATOM      3  C   UNL d   1     -48.240  14.479  22.949  0.00  0.00     0.272 A 
ATOM      4  S   UNL d   1     -48.505  13.167  22.822  0.00  0.00    -0.045 SA
ATOM      5  C   UNL d   1     -47.928  13.752  22.707  0.00  0.00     0.093 A 
ATOM      6  O   UNL d   1     -47.848  15.216  22.929  0.00  0.00    -0.266 OA
ENDROOT
BRANCH   5   7
ATOM      7  C   UNL d   1     -47.265  13.386  22.395  0.00  0.00     0.074 C 
BRANCH   7   8
ATOM      8  C   UNL d   1     -46.637  12.956  22.708  0.00  0.00     0.280 C 
ATOM      9  N   UNL d   1     -46.450  12.217  22.397  0.00  0.00    -0.208 NA
ATOM     10  O   UNL d   1     -46.195  13.265  23.332  0.00  0.00    -0.265 OA
BRANCH   9  11
ATOM     11  C   UNL d   1     -45.815  11.792  22.719  0.00  0.00     0.085 A 
ATOM     12  C   UNL d   1     -45.969  11.193  23.262  0.00  0.00     0.019 A 
ATOM     13  C   UNL d   1     -45.353  10.763  23.590  0.00  0.00     0.002 A 
ATOM     14  C   UNL d   1     -44.581  10.933  23.374  0.00  0.00     0.000 A 
ATOM     15  C   UNL d   1     -44.428  11.535  22.828  0.00  0.00     0.002 A 
ATOM     16  C   UNL d   1     -43.953  10.506  23.698  0.00  0.00     0.000 C 
ATOM     17  C   UNL d   1     -45.050  11.960  22.505  0.00  0.00     0.019 A 
ENDBRANCH   9  11
ENDBRANCH   7   8
ENDBRANCH   5   7
BRANCH   1  18
ATOM     18  C   UNL d   1     -49.560  14.900  23.517  0.00  0.00     0.085 C 
ATOM     19  C   UNL d   1     -49.631  15.650  23.181  0.00  0.00     0.021 C 
ENDBRANCH   1  18
BRANCH   2  20
ATOM     20  N   UNL d   1     -49.854  13.088  23.315  0.00  0.00    -0.221 NA
BRANCH  20  21
ATOM     21  C   UNL d   1     -50.128  12.341  23.096  0.00  0.00     0.101 C 
ATOM     22  C   UNL d   1     -50.473  11.848  23.661  0.00  0.00     0.022 C 
ENDBRANCH  20  21
ENDBRANCH   2  20
TORSDOF 6
ENDMDL
MODEL 9
REMARK VINA RESULT:      -3.8      6.903     10.080
REMARK  6 active torsions:
REMARK  status: ('A' for Active; 'I' for Inactive)
REMARK    1  A    between atoms: C_12  and  N_1 
REMARK    2  A    between atoms: N_8  and  C_2 
REMARK    3  A    between atoms: C_6  and  C_5 
REMARK    4  A    between atoms: C_7  and  C_6 
REMARK       I    between atoms: N_9  and  C_7 
REMARK    5  A    between atoms: C_19  and  N_8 
REMARK    6  A    between atoms: C_13  and  N_9 
ROOT
ATOM      1  N   UNL d   1     -39.443  14.730  21.095  0.00  0.00    -0.252 N 
ATOM      2  C   UNL d   1     -40.175  14.579  20.734  0.00  0.00     0.182 A 
ATOM      3  C   UNL d   1     -38.939  15.057  20.521  0.00  0.00     0.272 A 
ATOM      4  S   UNL d   1     -40.127  14.811  19.941  0.00  0.00    -0.045 SA
ATOM      5  C   UNL d   1     -39.362  15.106  19.812  0.00  0.00     0.093 A 
ATOM      6  O   UNL d   1     -38.147  15.293  20.641  0.00  0.00    -0.266 OA
ENDROOT
BRANCH   5   7
ATOM      7  C   UNL d   1     -39.315  15.335  19.027  0.00  0.00     0.074 C 
BRANCH   7   8
ATOM      8  C   UNL d   1     -38.964  15.024  18.350  0.00  0.00     0.280 C 
ATOM      9  N   UNL d   1     -39.388  14.993  17.645  0.00  0.00    -0.208 NA
ATOM     10  O   UNL d   1     -38.189  14.744  18.378  0.00  0.00    -0.265 OA
BRANCH   9  11
ATOM     11  C   UNL d   1     -39.025  14.678  16.969  0.00  0.00     0.085 A 
ATOM     12  C   UNL d   1     -38.729  15.191  16.397  0.00  0.00     0.019 A 
ATOM     13  C   UNL d   1     -38.368  14.896  15.723  0.00  0.00     0.002 A 
ATOM     14  C   UNL d   1     -38.302  14.085  15.621  0.00  0.00     0.000 A 
ATOM     15  C   UNL d   1     -38.600  13.571  16.197  0.00  0.00     0.002 A 
ATOM     16  C   UNL d   1     -37.940  13.778  14.946  0.00  0.00     0.000 C 
ATOM     17  C   UNL d   1     -38.960  13.875  16.867  0.00  0.00     0.019 A 
ENDBRANCH   9  11
ENDBRANCH   7   8
ENDBRANCH   5   7
BRANCH   1  18
ATOM     18  C   UNL d   1     -39.279  14.568  21.894  0.00  0.00     0.085 C 
ATOM     19  C   UNL d   1     -38.667  14.057  22.108  0.00  0.00     0.021 C 
ENDBRANCH   1  18
BRANCH   2  20
ATOM     20  N   UNL d   1     -40.882  14.258  21.032  0.00  0.00    -0.221 NA
BRANCH  20  21
ATOM     21  C   UNL d   1     -41.611  14.057  20.703  0.00  0.00     0.101 C 
ATOM     22  C   UNL d   1     -42.148  13.604  21.137  0.00  0.00     0.022 C 
ENDBRANCH  20  21
ENDBRANCH   2  20
TORSDOF 6
ENDMDL
