MODEL 1
REMARK VINA RESULT:      15.8      0.000      0.000
REMARK  1 active torsions:
REMARK  status: ('A' for Active; 'I' for Inactive)
REMARK    1  A    between atoms: C_4  and  C_1 
ROOT
ATOM      1  C   UNL d   1      58.722  49.705  50.724  0.00  0.00     0.112 A 
ATOM      2  N   UNL d   1      58.487  49.701  49.926  0.00  0.00    -0.238 NA
ATOM      3  S   UNL d   1      58.036  49.707  51.197  0.00  0.00    -0.066 SA
ATOM      4  C   UNL d   1      57.657  49.702  49.906  0.00  0.00     0.088 A 
ATOM      5  C   UNL d   1      57.379  49.706  50.689  0.00  0.00     0.049 A 
ATOM      6  C   UNL d   1      57.123  49.699  49.278  0.00  0.00     0.020 A 
ATOM      7  C   UNL d   1      56.567  49.707  50.840  0.00  0.00     0.008 A 
ATOM      8  C   UNL d   1      56.033  49.705  50.211  0.00  0.00     0.001 A 
ATOM      9  C   UNL d   1      56.312  49.701  49.428  0.00  0.00     0.002 A 
ENDROOT
BRANCH   1  10
ATOM     10  C   UNL d   1      59.500  49.705  51.004  0.00  0.00     0.043 A 
ATOM     11  C   UNL d   1      60.130  49.707  50.466  0.00  0.00     0.105 A 
ATOM     12  N   UNL d   1      59.979  49.708  49.655  0.00  0.00    -0.148 N 
ATOM     13  C   UNL d   1      60.907  49.707  50.747  0.00  0.00     0.021 A 
ATOM     14  C   UNL d   1      61.058  49.706  51.558  0.00  0.00     0.002 A 
ATOM     15  C   UNL d   1      60.418  49.705  52.088  0.00  0.00     0.000 A 
ATOM     16  C   UNL d   1      59.651  49.704  51.816  0.00  0.00     0.004 A 
ENDBRANCH   1  10
TORSDOF 1
ENDMDL
