MODEL 1
REMARK VINA RESULT:      -4.2      0.000      0.000
REMARK  3 active torsions:
REMARK  status: ('A' for Active; 'I' for Inactive)
REMARK    1  A    between atoms: C_6  and  C_1 
REMARK    2  A    between atoms: O_9  and  C_6 
REMARK    3  A    between atoms: C_12  and  O_9 
ROOT
ATOM      1  C   UNL d   1      55.756  -0.332  33.073  0.00  0.00     0.089 A 
ATOM      2  C   UNL d   1      55.678  -1.160  33.046  0.00  0.00     0.138 A 
ATOM      3  S   UNL d   1      56.123  -1.429  32.432  0.00  0.00    -0.066 SA
ATOM      4  C   UNL d   1      56.250  -0.122  32.470  0.00  0.00     0.013 A 
ATOM      5  C   UNL d   1      56.477  -0.780  32.077  0.00  0.00     0.031 A 
ATOM      6  N   UNL d   1      55.228  -1.641  33.552  0.00  0.00    -0.141 N 
ATOM      7  C   UNL d   1      56.518   0.632  32.240  0.00  0.00     0.001 A 
ATOM      8  C   UNL d   1      56.991  -0.727  31.422  0.00  0.00     0.006 A 
ATOM      9  C   UNL d   1      57.034   0.680  31.584  0.00  0.00     0.000 A 
ATOM     10  C   UNL d   1      57.250   0.021  31.205  0.00  0.00     0.001 A 
ENDROOT
BRANCH   1  11
ATOM     11  C   UNL d   1      55.376   0.163  33.638  0.00  0.00     0.302 C 
ATOM     12  O   UNL d   1      54.673   0.506  33.442  0.00  0.00    -0.259 OA
BRANCH  11  13
ATOM     13  O   UNL d   1      55.730   0.271  34.345  0.00  0.00    -0.271 OA
BRANCH  13  14
ATOM     14  C   UNL d   1      55.337   0.681  34.926  0.00  0.00     0.126 C 
ATOM     15  C   UNL d   1      55.552   0.569  35.715  0.00  0.00     0.029 C 
ENDBRANCH  13  14
ENDBRANCH  11  13
ENDBRANCH   1  11
TORSDOF 3
ENDMDL
MODEL 2
REMARK VINA RESULT:      -3.8      9.059      9.862
REMARK  3 active torsions:
REMARK  status: ('A' for Active; 'I' for Inactive)
REMARK    1  A    between atoms: C_6  and  C_1 
REMARK    2  A    between atoms: O_9  and  C_6 
REMARK    3  A    between atoms: C_12  and  O_9 
ROOT
ATOM      1  C   UNL d   1      60.005  -8.841  35.326  0.00  0.00     0.089 A 
ATOM      2  C   UNL d   1      60.776  -9.086  35.519  0.00  0.00     0.138 A 
ATOM      3  S   UNL d   1      61.133  -8.485  35.918  0.00  0.00    -0.066 SA
ATOM      4  C   UNL d   1      59.916  -8.093  35.616  0.00  0.00     0.013 A 
ATOM      5  C   UNL d   1      60.595  -7.870  35.976  0.00  0.00     0.031 A 
ATOM      6  N   UNL d   1      61.133  -9.815  35.341  0.00  0.00    -0.141 N 
ATOM      7  C   UNL d   1      59.258  -7.583  35.582  0.00  0.00     0.001 A 
ATOM      8  C   UNL d   1      60.660  -7.116  36.328  0.00  0.00     0.006 A 
ATOM      9  C   UNL d   1      59.328  -6.829  35.936  0.00  0.00     0.000 A 
ATOM     10  C   UNL d   1      60.005  -6.622  36.289  0.00  0.00     0.001 A 
ENDROOT
BRANCH   1  11
ATOM     11  C   UNL d   1      59.448  -9.311  34.906  0.00  0.00     0.302 C 
ATOM     12  O   UNL d   1      58.881  -9.706  35.323  0.00  0.00    -0.259 OA
BRANCH  11  13
ATOM     13  O   UNL d   1      59.505  -9.346  34.111  0.00  0.00    -0.271 OA
BRANCH  13  14
ATOM     14  C   UNL d   1      58.929  -9.733  33.689  0.00  0.00     0.126 C 
ATOM     15  C   UNL d   1      58.834  -9.565  32.887  0.00  0.00     0.029 C 
ENDBRANCH  13  14
ENDBRANCH  11  13
ENDBRANCH   1  11
TORSDOF 3
ENDMDL
MODEL 3
REMARK VINA RESULT:      -3.6      1.808      3.228
REMARK  3 active torsions:
REMARK  status: ('A' for Active; 'I' for Inactive)
REMARK    1  A    between atoms: C_6  and  C_1 
REMARK    2  A    between atoms: O_9  and  C_6 
REMARK    3  A    between atoms: C_12  and  O_9 
ROOT
ATOM      1  C   UNL d   1      56.853   0.157  32.843  0.00  0.00     0.089 A 
ATOM      2  C   UNL d   1      57.418   0.468  33.368  0.00  0.00     0.138 A 
ATOM      3  S   UNL d   1      57.036   0.682  34.043  0.00  0.00    -0.066 SA
ATOM      4  C   UNL d   1      56.138   0.192  33.218  0.00  0.00     0.013 A 
ATOM      5  C   UNL d   1      56.240   0.509  33.945  0.00  0.00     0.031 A 
ATOM      6  N   UNL d   1      58.234   0.551  33.239  0.00  0.00    -0.141 N 
ATOM      7  C   UNL d   1      55.385  -0.043  32.952  0.00  0.00     0.001 A 
ATOM      8  C   UNL d   1      55.590   0.611  34.457  0.00  0.00     0.006 A 
ATOM      9  C   UNL d   1      54.737   0.061  33.468  0.00  0.00     0.000 A 
ATOM     10  C   UNL d   1      54.852   0.376  34.184  0.00  0.00     0.001 A 
ENDROOT
BRANCH   1  11
ATOM     11  C   UNL d   1      57.028  -0.132  32.072  0.00  0.00     0.302 C 
ATOM     12  O   UNL d   1      57.034  -0.929  31.948  0.00  0.00    -0.259 OA
BRANCH  11  13
ATOM     13  O   UNL d   1      57.181   0.398  31.496  0.00  0.00    -0.271 OA
BRANCH  13  14
ATOM     14  C   UNL d   1      57.381   0.132  30.755  0.00  0.00     0.126 C 
ATOM     15  C   UNL d   1      57.612   0.674  30.178  0.00  0.00     0.029 C 
ENDBRANCH  13  14
ENDBRANCH  11  13
ENDBRANCH   1  11
TORSDOF 3
ENDMDL
MODEL 4
REMARK VINA RESULT:      -3.3      2.957      4.340
REMARK  3 active torsions:
REMARK  status: ('A' for Active; 'I' for Inactive)
REMARK    1  A    between atoms: C_6  and  C_1 
REMARK    2  A    between atoms: O_9  and  C_6 
REMARK    3  A    between atoms: C_12  and  O_9 
ROOT
ATOM      1  C   UNL d   1      58.107  -0.231  30.570  0.00  0.00     0.089 A 
ATOM      2  C   UNL d   1      58.627   0.393  30.751  0.00  0.00     0.138 A 
ATOM      3  S   UNL d   1      58.424   0.681  31.473  0.00  0.00    -0.066 SA
ATOM      4  C   UNL d   1      57.600  -0.303  31.194  0.00  0.00     0.013 A 
ATOM      5  C   UNL d   1      57.784   0.246  31.745  0.00  0.00     0.031 A 
ATOM      6  N   UNL d   1      59.251   0.681  30.283  0.00  0.00    -0.141 N 
ATOM      7  C   UNL d   1      56.969  -0.835  31.309  0.00  0.00     0.001 A 
ATOM      8  C   UNL d   1      57.347   0.299  32.454  0.00  0.00     0.006 A 
ATOM      9  C   UNL d   1      56.534  -0.778  32.020  0.00  0.00     0.000 A 
ATOM     10  C   UNL d   1      56.728  -0.230  32.556  0.00  0.00     0.001 A 
ENDROOT
BRANCH   1  11
ATOM     11  C   UNL d   1      58.134  -0.682  29.860  0.00  0.00     0.302 C 
ATOM     12  O   UNL d   1      57.783  -0.384  29.198  0.00  0.00    -0.259 OA
BRANCH  11  13
ATOM     13  O   UNL d   1      58.507  -1.387  29.874  0.00  0.00    -0.271 OA
BRANCH  13  14
ATOM     14  C   UNL d   1      58.608  -1.796  29.179  0.00  0.00     0.126 C 
ATOM     15  C   UNL d   1      58.917  -2.561  29.200  0.00  0.00     0.029 C 
ENDBRANCH  13  14
ENDBRANCH  11  13
ENDBRANCH   1  11
TORSDOF 3
ENDMDL
MODEL 5
REMARK VINA RESULT:      -3.1      4.120      5.220
REMARK  3 active torsions:
REMARK  status: ('A' for Active; 'I' for Inactive)
REMARK    1  A    between atoms: C_6  and  C_1 
REMARK    2  A    between atoms: O_9  and  C_6 
REMARK    3  A    between atoms: C_12  and  O_9 
ROOT
ATOM      1  C   UNL d   1      59.213  -0.860  29.267  0.00  0.00     0.089 A 
ATOM      2  C   UNL d   1      59.974  -0.535  29.175  0.00  0.00     0.138 A 
ATOM      3  S   UNL d   1      60.476  -1.135  28.990  0.00  0.00    -0.066 SA
ATOM      4  C   UNL d   1      59.278  -1.653  29.134  0.00  0.00     0.013 A 
ATOM      5  C   UNL d   1      60.039  -1.829  28.966  0.00  0.00     0.031 A 
ATOM      6  N   UNL d   1      60.196   0.261  29.255  0.00  0.00    -0.141 N 
ATOM      7  C   UNL d   1      58.692  -2.246  29.153  0.00  0.00     0.001 A 
ATOM      8  C   UNL d   1      60.267  -2.615  28.804  0.00  0.00     0.006 A 
ATOM      9  C   UNL d   1      58.925  -3.031  28.990  0.00  0.00     0.000 A 
ATOM     10  C   UNL d   1      59.682  -3.191  28.825  0.00  0.00     0.001 A 
ENDROOT
BRANCH   1  11
ATOM     11  C   UNL d   1      58.527  -0.414  29.462  0.00  0.00     0.302 C 
ATOM     12  O   UNL d   1      58.092  -0.089  28.865  0.00  0.00    -0.259 OA
BRANCH  11  13
ATOM     13  O   UNL d   1      58.336  -0.331  30.233  0.00  0.00    -0.271 OA
BRANCH  13  14
ATOM     14  C   UNL d   1      57.696   0.126  30.436  0.00  0.00     0.126 C 
ATOM     15  C   UNL d   1      57.445   0.144  31.222  0.00  0.00     0.029 C 
ENDBRANCH  13  14
ENDBRANCH  11  13
ENDBRANCH   1  11
TORSDOF 3
ENDMDL
MODEL 6
REMARK VINA RESULT:      -2.7      9.122      9.964
REMARK  3 active torsions:
REMARK  status: ('A' for Active; 'I' for Inactive)
REMARK    1  A    between atoms: C_6  and  C_1 
REMARK    2  A    between atoms: O_9  and  C_6 
REMARK    3  A    between atoms: C_12  and  O_9 
ROOT
ATOM      1  C   UNL d   1      60.143  -8.795  35.029  0.00  0.00     0.089 A 
ATOM      2  C   UNL d   1      59.351  -9.033  35.118  0.00  0.00     0.138 A 
ATOM      3  S   UNL d   1      58.979  -8.488  35.577  0.00  0.00    -0.066 SA
ATOM      4  C   UNL d   1      60.229  -8.106  35.441  0.00  0.00     0.013 A 
ATOM      5  C   UNL d   1      59.529  -7.913  35.776  0.00  0.00     0.031 A 
ATOM      6  N   UNL d   1      58.989  -9.709  34.798  0.00  0.00    -0.141 N 
ATOM      7  C   UNL d   1      60.903  -7.626  35.542  0.00  0.00     0.001 A 
ATOM      8  C   UNL d   1      59.456  -7.221  36.237  0.00  0.00     0.006 A 
ATOM      9  C   UNL d   1      60.825  -6.935  36.005  0.00  0.00     0.000 A 
ATOM     10  C   UNL d   1      60.127  -6.756  36.330  0.00  0.00     0.001 A 
ENDROOT
BRANCH   1  11
ATOM     11  C   UNL d   1      60.721  -9.217  34.586  0.00  0.00     0.302 C 
ATOM     12  O   UNL d   1      61.133  -9.808  34.950  0.00  0.00    -0.259 OA
BRANCH  11  13
ATOM     13  O   UNL d   1      60.834  -9.015  33.823  0.00  0.00    -0.271 OA
BRANCH  13  14
ATOM     14  C   UNL d   1      61.038  -9.589  33.286  0.00  0.00     0.126 C 
ATOM     15  C   UNL d   1      61.125  -9.388  32.491  0.00  0.00     0.029 C 
ENDBRANCH  13  14
ENDBRANCH  11  13
ENDBRANCH   1  11
TORSDOF 3
ENDMDL
MODEL 7
REMARK VINA RESULT:      -2.6      3.685      4.697
REMARK  3 active torsions:
REMARK  status: ('A' for Active; 'I' for Inactive)
REMARK    1  A    between atoms: C_6  and  C_1 
REMARK    2  A    between atoms: O_9  and  C_6 
REMARK    3  A    between atoms: C_12  and  O_9 
ROOT
ATOM      1  C   UNL d   1      58.889  -0.577  29.505  0.00  0.00     0.089 A 
ATOM      2  C   UNL d   1      58.923  -1.387  29.318  0.00  0.00     0.138 A 
ATOM      3  S   UNL d   1      59.660  -1.544  29.036  0.00  0.00    -0.066 SA
ATOM      4  C   UNL d   1      59.612  -0.264  29.329  0.00  0.00     0.013 A 
ATOM      5  C   UNL d   1      60.085  -0.843  29.045  0.00  0.00     0.031 A 
ATOM      6  N   UNL d   1      58.317  -1.950  29.399  0.00  0.00    -0.141 N 
ATOM      7  C   UNL d   1      59.887   0.518  29.407  0.00  0.00     0.001 A 
ATOM      8  C   UNL d   1      60.870  -0.675  28.817  0.00  0.00     0.006 A 
ATOM      9  C   UNL d   1      60.673   0.681  29.178  0.00  0.00     0.000 A 
ATOM     10  C   UNL d   1      61.130   0.100  28.898  0.00  0.00     0.001 A 
ENDROOT
BRANCH   1  11
ATOM     11  C   UNL d   1      58.210  -0.190  29.817  0.00  0.00     0.302 C 
ATOM     12  O   UNL d   1      57.701   0.173  29.306  0.00  0.00    -0.259 OA
BRANCH  11  13
ATOM     13  O   UNL d   1      58.099  -0.198  30.607  0.00  0.00    -0.271 OA
BRANCH  13  14
ATOM     14  C   UNL d   1      57.469   0.205  30.924  0.00  0.00     0.126 C 
ATOM     15  C   UNL d   1      57.324   0.156  31.734  0.00  0.00     0.029 C 
ENDBRANCH  13  14
ENDBRANCH  11  13
ENDBRANCH   1  11
TORSDOF 3
ENDMDL
MODEL 8
REMARK VINA RESULT:      -2.4      4.231      5.535
REMARK  3 active torsions:
REMARK  status: ('A' for Active; 'I' for Inactive)
REMARK    1  A    between atoms: C_6  and  C_1 
REMARK    2  A    between atoms: O_9  and  C_6 
REMARK    3  A    between atoms: C_12  and  O_9 
ROOT
ATOM      1  C   UNL d   1      59.173  -0.854  29.276  0.00  0.00     0.089 A 
ATOM      2  C   UNL d   1      59.623  -0.207  29.009  0.00  0.00     0.138 A 
ATOM      3  S   UNL d   1      59.342   0.454  29.372  0.00  0.00    -0.066 SA
ATOM      4  C   UNL d   1      58.629  -0.564  29.797  0.00  0.00     0.013 A 
ATOM      5  C   UNL d   1      58.724   0.227  29.861  0.00  0.00     0.031 A 
ATOM      6  N   UNL d   1      60.252  -0.219  28.467  0.00  0.00    -0.141 N 
ATOM      7  C   UNL d   1      58.039  -0.964  30.229  0.00  0.00     0.001 A 
ATOM      8  C   UNL d   1      58.232   0.674  30.365  0.00  0.00     0.006 A 
ATOM      9  C   UNL d   1      57.549  -0.513  30.733  0.00  0.00     0.000 A 
ATOM     10  C   UNL d   1      57.654   0.269  30.786  0.00  0.00     0.001 A 
ENDROOT
BRANCH   1  11
ATOM     11  C   UNL d   1      59.292  -1.649  29.028  0.00  0.00     0.302 C 
ATOM     12  O   UNL d   1      58.809  -1.954  28.458  0.00  0.00    -0.259 OA
BRANCH  11  13
ATOM     13  O   UNL d   1      59.879  -2.069  29.370  0.00  0.00    -0.271 OA
BRANCH  13  14
ATOM     14  C   UNL d   1      60.024  -2.827  29.117  0.00  0.00     0.126 C 
ATOM     15  C   UNL d   1      60.673  -3.237  29.418  0.00  0.00     0.029 C 
ENDBRANCH  13  14
ENDBRANCH  11  13
ENDBRANCH   1  11
TORSDOF 3
ENDMDL
