MODEL 1
REMARK VINA RESULT:      42.3      0.000      0.000
REMARK  4 active torsions:
REMARK  status: ('A' for Active; 'I' for Inactive)
REMARK    1  A    between atoms: N_2  and  S_1 
REMARK    2  A    between atoms: C_3  and  S_1 
REMARK    3  A    between atoms: O_19  and  C_14 
REMARK    4  A    between atoms: O_20  and  C_17 
ROOT
ATOM      1  S   UNL d   1      14.147  13.108  -2.215  0.00  0.00     0.275 S 
ATOM      2  O   UNL d   1      14.891  12.720  -2.529  0.00  0.00    -0.199 OA
ATOM      3  O   UNL d   1      13.399  13.499  -1.899  0.00  0.00    -0.199 OA
ENDROOT
BRANCH   1   4
ATOM      4  N   UNL d   1      13.711  12.828  -2.943  0.00  0.00    -0.212 N 
ATOM      5  C   UNL d   1      13.506  13.348  -3.526  0.00  0.00     0.094 A 
ATOM      6  C   UNL d   1      13.108  13.092  -4.191  0.00  0.00     0.100 A 
ATOM      7  C   UNL d   1      13.702  14.134  -3.441  0.00  0.00     0.020 A 
ATOM      8  C   UNL d   1      12.905  13.625  -4.774  0.00  0.00     0.021 A 
ATOM      9  N   UNL d   1      13.117  11.779  -3.690  0.00  0.00    -0.223 NA
ATOM     10  C   UNL d   1      13.098  14.416  -4.696  0.00  0.00     0.002 A 
ATOM     11  C   UNL d   1      13.496  14.672  -4.031  0.00  0.00     0.002 A 
ATOM     12  C   UNL d   1      12.895  14.954  -5.280  0.00  0.00     0.000 C 
ATOM     13  C   UNL d   1      13.694  15.461  -3.944  0.00  0.00     0.000 C 
ATOM     14  C   UNL d   1      13.515  12.036  -3.026  0.00  0.00     0.193 A 
ENDBRANCH   1   4
BRANCH   1  15
ATOM     15  C   UNL d   1      14.586  13.388  -1.488  0.00  0.00     0.128 A 
ATOM     16  C   UNL d   1      14.957  14.212  -1.462  0.00  0.00     0.039 A 
ATOM     17  C   UNL d   1      15.394  14.484  -0.730  0.00  0.00     0.095 A 
ATOM     18  C   UNL d   1      15.465  13.943  -0.025  0.00  0.00     0.026 A 
ATOM     19  C   UNL d   1      15.099  13.124  -0.045  0.00  0.00     0.027 A 
ATOM     20  C   UNL d   1      14.663  12.857  -0.777  0.00  0.00     0.106 A 
BRANCH  17  21
ATOM     21  O   UNL d   1      15.761  15.294  -0.700  0.00  0.00    -0.328 OA
ATOM     22  C   UNL d   1      15.550  15.852  -0.017  0.00  0.00     0.181 C 
ENDBRANCH  17  21
BRANCH  20  23
ATOM     23  O   UNL d   1      14.293  12.035  -0.804  0.00  0.00    -0.327 OA
ATOM     24  C   UNL d   1      13.741  11.779  -0.140  0.00  0.00     0.181 C 
ENDBRANCH  20  23
ENDBRANCH   1  15
TORSDOF 4
ENDMDL
MODEL 2
REMARK VINA RESULT:      43.9      1.586      3.591
REMARK  4 active torsions:
REMARK  status: ('A' for Active; 'I' for Inactive)
REMARK    1  A    between atoms: N_2  and  S_1 
REMARK    2  A    between atoms: C_3  and  S_1 
REMARK    3  A    between atoms: O_19  and  C_14 
REMARK    4  A    between atoms: O_20  and  C_17 
ROOT
ATOM      1  S   UNL d   1      14.620  13.380  -1.553  0.00  0.00     0.275 S 
ATOM      2  O   UNL d   1      14.029  13.349  -0.881  0.00  0.00    -0.199 OA
ATOM      3  O   UNL d   1      15.214  13.409  -2.230  0.00  0.00    -0.199 OA
ENDROOT
BRANCH   1   4
ATOM      4  N   UNL d   1      15.182  13.825  -1.020  0.00  0.00    -0.212 N 
ATOM      5  C   UNL d   1      15.216  14.633  -1.041  0.00  0.00     0.094 A 
ATOM      6  C   UNL d   1      15.728  15.040  -0.554  0.00  0.00     0.100 A 
ATOM      7  C   UNL d   1      14.730  15.035  -1.556  0.00  0.00     0.020 A 
ATOM      8  C   UNL d   1      15.755  15.855  -0.583  0.00  0.00     0.021 A 
ATOM      9  N   UNL d   1      16.182  13.825  -0.015  0.00  0.00    -0.223 NA
ATOM     10  C   UNL d   1      15.271  16.266  -1.098  0.00  0.00     0.002 A 
ATOM     11  C   UNL d   1      14.758  15.859  -1.584  0.00  0.00     0.002 A 
ATOM     12  C   UNL d   1      15.296  17.085  -1.128  0.00  0.00     0.000 C 
ATOM     13  C   UNL d   1      14.270  16.261  -2.102  0.00  0.00     0.000 C 
ATOM     14  C   UNL d   1      15.669  13.417  -0.502  0.00  0.00     0.193 A 
ENDBRANCH   1   4
BRANCH   1  15
ATOM     15  C   UNL d   1      14.056  12.933  -2.085  0.00  0.00     0.128 A 
ATOM     16  C   UNL d   1      13.939  13.183  -2.945  0.00  0.00     0.039 A 
ATOM     17  C   UNL d   1      13.372  12.731  -3.471  0.00  0.00     0.095 A 
ATOM     18  C   UNL d   1      12.923  12.033  -3.145  0.00  0.00     0.026 A 
ATOM     19  C   UNL d   1      13.035  11.780  -2.293  0.00  0.00     0.027 A 
ATOM     20  C   UNL d   1      13.602  12.234  -1.772  0.00  0.00     0.106 A 
BRANCH  17  21
ATOM     21  O   UNL d   1      13.254  12.973  -4.318  0.00  0.00    -0.328 OA
ATOM     22  C   UNL d   1      13.020  12.348  -4.931  0.00  0.00     0.181 C 
ENDBRANCH  17  21
BRANCH  20  23
ATOM     23  O   UNL d   1      13.719  11.985  -0.913  0.00  0.00    -0.327 OA
ATOM     24  C   UNL d   1      12.999  11.779  -0.412  0.00  0.00     0.181 C 
ENDBRANCH  20  23
ENDBRANCH   1  15
TORSDOF 4
ENDMDL
