MODEL 1
REMARK VINA RESULT:      61.0      0.000      0.000
REMARK  6 active torsions:
REMARK  status: ('A' for Active; 'I' for Inactive)
REMARK    1  A    between atoms: C_7  and  C_1 
REMARK    2  A    between atoms: N_5  and  C_3 
REMARK       I    between atoms: C_9  and  N_5 
REMARK    3  A    between atoms: C_8  and  S_11 
REMARK    4  A    between atoms: C_13  and  C_9 
REMARK    5  A    between atoms: S_11  and  C_13 
REMARK    6  A    between atoms: O_17  and  C_14 
ROOT
ATOM      1  C   UNL d   1     -48.041  29.249  35.510  0.00  0.00     0.137 A 
ATOM      2  S   UNL d   1     -48.254  28.938  34.770  0.00  0.00    -0.026 SA
ATOM      3  C   UNL d   1     -48.657  28.226  34.893  0.00  0.00     0.219 A 
ATOM      4  N   UNL d   1     -48.316  28.722  36.093  0.00  0.00    -0.139 NA
ATOM      5  N   UNL d   1     -48.695  28.091  35.713  0.00  0.00    -0.121 NA
ENDROOT
BRANCH   3   6
ATOM      6  N   UNL d   1     -48.967  27.732  34.310  0.00  0.00    -0.181 NA
ATOM      7  C   UNL d   1     -49.633  27.261  34.465  0.00  0.00     0.287 C 
ATOM      8  O   UNL d   1     -49.986  27.291  35.212  0.00  0.00    -0.265 OA
BRANCH   7   9
ATOM      9  C   UNL d   1     -49.940  26.767  33.874  0.00  0.00     0.089 C 
ATOM     10  C   UNL d   1     -49.472  26.166  33.557  0.00  0.00     0.012 C 
BRANCH   9  11
ATOM     11  S   UNL d   1     -50.719  26.885  33.607  0.00  0.00    -0.057 SA
BRANCH  11  12
ATOM     12  C   UNL d   1     -51.215  26.230  33.518  0.00  0.00     0.141 A 
ATOM     13  N   UNL d   1     -50.994  25.426  33.538  0.00  0.00    -0.230 NA
ATOM     14  C   UNL d   1     -51.673  24.965  33.424  0.00  0.00     0.107 A 
ATOM     15  C   UNL d   1     -52.323  25.477  33.332  0.00  0.00     0.058 A 
ATOM     16  S   UNL d   1     -52.041  26.259  33.390  0.00  0.00    -0.059 SA
ENDBRANCH  11  12
ENDBRANCH   9  11
ENDBRANCH   7   9
ENDBRANCH   3   6
BRANCH   1  17
ATOM     17  C   UNL d   1     -47.629  29.956  35.650  0.00  0.00     0.048 A 
ATOM     18  C   UNL d   1     -47.700  30.585  35.142  0.00  0.00     0.096 A 
ATOM     19  C   UNL d   1     -47.294  31.276  35.284  0.00  0.00     0.024 A 
ATOM     20  C   UNL d   1     -46.818  31.317  35.946  0.00  0.00     0.002 A 
ATOM     21  C   UNL d   1     -46.739  30.707  36.453  0.00  0.00     0.000 A 
ATOM     22  C   UNL d   1     -47.147  30.011  36.312  0.00  0.00     0.004 A 
BRANCH  18  23
ATOM     23  O   UNL d   1     -48.175  30.536  34.488  0.00  0.00    -0.328 OA
ATOM     24  C   UNL d   1     -48.411  31.366  34.121  0.00  0.00     0.181 C 
ENDBRANCH  18  23
ENDBRANCH   1  17
TORSDOF 6
ENDMDL
MODEL 2
REMARK VINA RESULT:      63.0      1.084      1.654
REMARK  6 active torsions:
REMARK  status: ('A' for Active; 'I' for Inactive)
REMARK    1  A    between atoms: C_7  and  C_1 
REMARK    2  A    between atoms: N_5  and  C_3 
REMARK       I    between atoms: C_9  and  N_5 
REMARK    3  A    between atoms: C_8  and  S_11 
REMARK    4  A    between atoms: C_13  and  C_9 
REMARK    5  A    between atoms: S_11  and  C_13 
REMARK    6  A    between atoms: O_17  and  C_14 
ROOT
ATOM      1  C   UNL d   1     -48.076  30.198  34.738  0.00  0.00     0.137 A 
ATOM      2  S   UNL d   1     -48.772  29.764  34.610  0.00  0.00    -0.026 SA
ATOM      3  C   UNL d   1     -48.637  28.981  34.842  0.00  0.00     0.219 A 
ATOM      4  N   UNL d   1     -47.508  29.678  35.053  0.00  0.00    -0.139 NA
ATOM      5  N   UNL d   1     -47.854  28.927  35.117  0.00  0.00    -0.121 NA
ENDROOT
BRANCH   3   6
ATOM      6  N   UNL d   1     -49.179  28.360  34.810  0.00  0.00    -0.181 NA
ATOM      7  C   UNL d   1     -49.326  27.965  34.095  0.00  0.00     0.287 C 
ATOM      8  O   UNL d   1     -48.924  28.199  33.411  0.00  0.00    -0.265 OA
BRANCH   7   9
ATOM      9  C   UNL d   1     -49.872  27.342  34.070  0.00  0.00     0.089 C 
ATOM     10  C   UNL d   1     -50.240  27.089  34.763  0.00  0.00     0.012 C 
BRANCH   9  11
ATOM     11  S   UNL d   1     -50.043  26.978  33.341  0.00  0.00    -0.057 SA
BRANCH  11  12
ATOM     12  C   UNL d   1     -50.557  26.331  33.327  0.00  0.00     0.141 A 
ATOM     13  N   UNL d   1     -51.390  26.351  33.318  0.00  0.00    -0.230 NA
ATOM     14  C   UNL d   1     -51.671  25.571  33.306  0.00  0.00     0.107 A 
ATOM     15  C   UNL d   1     -51.015  25.059  33.307  0.00  0.00     0.058 A 
ATOM     16  S   UNL d   1     -50.325  25.527  33.320  0.00  0.00    -0.059 SA
ENDBRANCH  11  12
ENDBRANCH   9  11
ENDBRANCH   7   9
ENDBRANCH   3   6
BRANCH   1  17
ATOM     17  C   UNL d   1     -47.961  31.005  34.583  0.00  0.00     0.048 A 
ATOM     18  C   UNL d   1     -47.520  31.466  35.087  0.00  0.00     0.096 A 
ATOM     19  C   UNL d   1     -47.410  32.257  34.931  0.00  0.00     0.024 A 
ATOM     20  C   UNL d   1     -47.752  32.571  34.259  0.00  0.00     0.002 A 
ATOM     21  C   UNL d   1     -48.187  32.131  33.757  0.00  0.00     0.000 A 
ATOM     22  C   UNL d   1     -48.299  31.335  33.912  0.00  0.00     0.004 A 
BRANCH  18  23
ATOM     23  O   UNL d   1     -47.184  31.146  35.751  0.00  0.00    -0.328 OA
ATOM     24  C   UNL d   1     -46.644  31.742  36.232  0.00  0.00     0.181 C 
ENDBRANCH  18  23
ENDBRANCH   1  17
TORSDOF 6
ENDMDL
