MODEL 1
REMARK VINA RESULT:     -11.2      0.000      0.000
REMARK  1 active torsions:
REMARK  status: ('A' for Active; 'I' for Inactive)
REMARK    1  A    between atoms: C_2  and  C_1 
REMARK       I    between atoms: N_3  and  C_2 
ROOT
ATOM      1  C   UNL d   1      53.804  32.665  53.860  0.00  0.00     0.109 A 
ATOM      2  C   UNL d   1      54.602  32.559  53.873  0.00  0.00     0.026 A 
ATOM      3  C   UNL d   1      53.544  33.276  54.298  0.00  0.00    -0.014 A 
ATOM      4  C   UNL d   1      53.150  33.216  54.205  0.00  0.00    -0.014 A 
ATOM      5  C   UNL d   1      54.973  33.178  54.393  0.00  0.00     0.045 A 
ATOM      6  C   UNL d   1      53.453  33.734  54.638  0.00  0.00    -0.007 A 
ATOM      7  C   UNL d   1      53.957  33.934  54.852  0.00  0.00    -0.007 A 
ATOM      8  C   UNL d   1      53.303  34.485  55.196  0.00  0.00    -0.001 A 
ATOM      9  C   UNL d   1      54.721  33.832  54.865  0.00  0.00    -0.022 A 
ATOM     10  C   UNL d   1      54.496  33.642  54.692  0.00  0.00    -0.022 A 
ENDROOT
BRANCH   1  11
ATOM     11  C   UNL d   1      53.282  31.974  53.268  0.00  0.00     0.248 C 
ATOM     12  N   UNL d   1      53.253  30.955  53.478  0.00  0.00    -0.275 N 
ATOM     13  C   UNL d   1      53.428  30.315  53.892  0.00  0.00     0.083 A 
ATOM     14  C   UNL d   1      52.809  30.734  52.884  0.00  0.00     0.083 A 
ATOM     15  C   UNL d   1      53.083  29.699  53.540  0.00  0.00     0.021 A 
ATOM     16  C   UNL d   1      52.701  29.957  52.918  0.00  0.00     0.021 A 
ATOM     17  O   UNL d   1      52.889  32.326  52.606  0.00  0.00    -0.271 OA
ENDBRANCH   1  11
TORSDOF 1
ENDMDL
MODEL 2
REMARK VINA RESULT:     -10.7      1.130      3.458
REMARK  1 active torsions:
REMARK  status: ('A' for Active; 'I' for Inactive)
REMARK    1  A    between atoms: C_2  and  C_1 
REMARK       I    between atoms: N_3  and  C_2 
ROOT
ATOM      1  C   UNL d   1      53.636  31.854  53.426  0.00  0.00     0.109 A 
ATOM      2  C   UNL d   1      52.995  32.196  53.080  0.00  0.00     0.026 A 
ATOM      3  C   UNL d   1      53.594  31.062  53.494  0.00  0.00    -0.014 A 
ATOM      4  C   UNL d   1      53.959  31.025  53.673  0.00  0.00    -0.014 A 
ATOM      5  C   UNL d   1      52.404  31.567  52.867  0.00  0.00     0.045 A 
ATOM      6  C   UNL d   1      53.472  30.498  53.498  0.00  0.00    -0.007 A 
ATOM      7  C   UNL d   1      52.949  30.398  53.259  0.00  0.00    -0.007 A 
ATOM      8  C   UNL d   1      53.272  29.571  53.506  0.00  0.00    -0.001 A 
ATOM      9  C   UNL d   1      52.335  30.727  52.928  0.00  0.00    -0.022 A 
ATOM     10  C   UNL d   1      52.612  30.889  53.042  0.00  0.00    -0.022 A 
ENDROOT
BRANCH   1  11
ATOM     11  C   UNL d   1      54.389  32.526  53.711  0.00  0.00     0.248 C 
ATOM     12  N   UNL d   1      54.394  33.015  54.631  0.00  0.00    -0.275 N 
ATOM     13  C   UNL d   1      54.109  33.191  55.337  0.00  0.00     0.083 A 
ATOM     14  C   UNL d   1      55.048  33.418  54.536  0.00  0.00     0.083 A 
ATOM     15  C   UNL d   1      54.600  33.708  55.673  0.00  0.00     0.021 A 
ATOM     16  C   UNL d   1      55.179  33.849  55.179  0.00  0.00     0.021 A 
ATOM     17  O   UNL d   1      54.989  32.631  53.124  0.00  0.00    -0.271 OA
ENDBRANCH   1  11
TORSDOF 1
ENDMDL
MODEL 3
REMARK VINA RESULT:     -10.7      1.800      2.610
REMARK  1 active torsions:
REMARK  status: ('A' for Active; 'I' for Inactive)
REMARK    1  A    between atoms: C_2  and  C_1 
REMARK       I    between atoms: N_3  and  C_2 
ROOT
ATOM      1  C   UNL d   1      53.356  33.589  53.673  0.00  0.00     0.109 A 
ATOM      2  C   UNL d   1      53.536  32.947  53.222  0.00  0.00     0.026 A 
ATOM      3  C   UNL d   1      53.796  33.666  54.331  0.00  0.00    -0.014 A 
ATOM      4  C   UNL d   1      53.609  34.009  54.454  0.00  0.00    -0.014 A 
ATOM      5  C   UNL d   1      54.199  32.495  53.605  0.00  0.00     0.045 A 
ATOM      6  C   UNL d   1      54.161  33.637  54.777  0.00  0.00    -0.007 A 
ATOM      7  C   UNL d   1      54.507  33.170  54.729  0.00  0.00    -0.007 A 
ATOM      8  C   UNL d   1      54.760  33.591  55.510  0.00  0.00    -0.001 A 
ATOM      9  C   UNL d   1      54.680  32.555  54.298  0.00  0.00    -0.022 A 
ATOM     10  C   UNL d   1      54.438  32.787  54.230  0.00  0.00    -0.022 A 
ENDROOT
BRANCH   1  11
ATOM     11  C   UNL d   1      52.579  34.183  53.294  0.00  0.00     0.248 C 
ATOM     12  N   UNL d   1      51.598  33.845  53.204  0.00  0.00    -0.275 N 
ATOM     13  C   UNL d   1      51.025  33.317  53.270  0.00  0.00     0.083 A 
ATOM     14  C   UNL d   1      51.288  34.490  52.907  0.00  0.00     0.083 A 
ATOM     15  C   UNL d   1      50.360  33.649  53.009  0.00  0.00     0.021 A 
ATOM     16  C   UNL d   1      50.521  34.372  52.785  0.00  0.00     0.021 A 
ATOM     17  O   UNL d   1      52.827  34.961  53.069  0.00  0.00    -0.271 OA
ENDBRANCH   1  11
TORSDOF 1
ENDMDL
MODEL 4
REMARK VINA RESULT:     -10.0      1.265      1.796
REMARK  1 active torsions:
REMARK  status: ('A' for Active; 'I' for Inactive)
REMARK    1  A    between atoms: C_2  and  C_1 
REMARK       I    between atoms: N_3  and  C_2 
ROOT
ATOM      1  C   UNL d   1      52.976  33.221  53.282  0.00  0.00     0.109 A 
ATOM      2  C   UNL d   1      52.433  33.231  52.688  0.00  0.00     0.026 A 
ATOM      3  C   UNL d   1      53.021  33.895  53.702  0.00  0.00    -0.014 A 
ATOM      4  C   UNL d   1      53.316  33.758  53.951  0.00  0.00    -0.014 A 
ATOM      5  C   UNL d   1      52.025  34.021  52.676  0.00  0.00     0.045 A 
ATOM      6  C   UNL d   1      52.980  34.417  53.945  0.00  0.00    -0.007 A 
ATOM      7  C   UNL d   1      52.574  34.738  53.675  0.00  0.00    -0.007 A 
ATOM      8  C   UNL d   1      52.914  35.274  54.345  0.00  0.00    -0.001 A 
ATOM      9  C   UNL d   1      52.053  34.747  53.107  0.00  0.00    -0.022 A 
ATOM     10  C   UNL d   1      52.258  34.486  53.188  0.00  0.00    -0.022 A 
ENDROOT
BRANCH   1  11
ATOM     11  C   UNL d   1      53.508  32.321  53.371  0.00  0.00     0.248 C 
ATOM     12  N   UNL d   1      53.056  31.386  53.296  0.00  0.00    -0.275 N 
ATOM     13  C   UNL d   1      52.451  30.901  53.196  0.00  0.00     0.083 A 
ATOM     14  C   UNL d   1      53.689  30.951  53.402  0.00  0.00     0.083 A 
ATOM     15  C   UNL d   1      52.724  30.163  53.242  0.00  0.00     0.021 A 
ATOM     16  C   UNL d   1      53.487  30.193  53.369  0.00  0.00     0.021 A 
ATOM     17  O   UNL d   1      54.336  32.430  53.509  0.00  0.00    -0.271 OA
ENDBRANCH   1  11
TORSDOF 1
ENDMDL
MODEL 5
REMARK VINA RESULT:      -9.9      1.192      3.344
REMARK  1 active torsions:
REMARK  status: ('A' for Active; 'I' for Inactive)
REMARK    1  A    between atoms: C_2  and  C_1 
REMARK       I    between atoms: N_3  and  C_2 
ROOT
ATOM      1  C   UNL d   1      53.155  32.060  53.227  0.00  0.00     0.109 A 
ATOM      2  C   UNL d   1      53.895  32.029  53.540  0.00  0.00     0.026 A 
ATOM      3  C   UNL d   1      52.810  31.352  53.119  0.00  0.00    -0.014 A 
ATOM      4  C   UNL d   1      52.464  31.507  52.965  0.00  0.00    -0.014 A 
ATOM      5  C   UNL d   1      54.120  31.180  53.680  0.00  0.00     0.045 A 
ATOM      6  C   UNL d   1      52.646  30.799  53.079  0.00  0.00    -0.007 A 
ATOM      7  C   UNL d   1      53.066  30.445  53.275  0.00  0.00    -0.007 A 
ATOM      8  C   UNL d   1      52.375  29.893  53.013  0.00  0.00    -0.001 A 
ATOM      9  C   UNL d   1      53.776  30.415  53.575  0.00  0.00    -0.022 A 
ATOM     10  C   UNL d   1      53.606  30.699  53.489  0.00  0.00    -0.022 A 
ENDROOT
BRANCH   1  11
ATOM     11  C   UNL d   1      52.806  33.029  53.029  0.00  0.00     0.248 C 
ATOM     12  N   UNL d   1      52.894  33.814  53.708  0.00  0.00    -0.275 N 
ATOM     13  C   UNL d   1      53.107  34.138  54.387  0.00  0.00     0.083 A 
ATOM     14  C   UNL d   1      52.557  34.365  53.282  0.00  0.00     0.083 A 
ATOM     15  C   UNL d   1      52.894  34.897  54.369  0.00  0.00     0.021 A 
ATOM     16  C   UNL d   1      52.555  35.038  53.687  0.00  0.00     0.021 A 
ATOM     17  O   UNL d   1      52.447  33.110  52.267  0.00  0.00    -0.271 OA
ENDBRANCH   1  11
TORSDOF 1
ENDMDL
MODEL 6
REMARK VINA RESULT:      -9.9      2.362      3.479
REMARK  1 active torsions:
REMARK  status: ('A' for Active; 'I' for Inactive)
REMARK    1  A    between atoms: C_2  and  C_1 
REMARK       I    between atoms: N_3  and  C_2 
ROOT
ATOM      1  C   UNL d   1      52.321  34.379  53.230  0.00  0.00     0.109 A 
ATOM      2  C   UNL d   1      52.668  34.301  52.508  0.00  0.00     0.026 A 
ATOM      3  C   UNL d   1      51.525  34.371  53.218  0.00  0.00    -0.014 A 
ATOM      4  C   UNL d   1      51.487  34.417  53.623  0.00  0.00    -0.014 A 
ATOM      5  C   UNL d   1      52.038  34.225  51.885  0.00  0.00     0.045 A 
ATOM      6  C   UNL d   1      50.959  34.354  53.109  0.00  0.00    -0.007 A 
ATOM      7  C   UNL d   1      50.861  34.289  52.538  0.00  0.00    -0.007 A 
ATOM      8  C   UNL d   1      50.028  34.326  52.931  0.00  0.00    -0.001 A 
ATOM      9  C   UNL d   1      51.194  34.214  51.846  0.00  0.00    -0.022 A 
ATOM     10  C   UNL d   1      51.356  34.249  52.145  0.00  0.00    -0.022 A 
ENDROOT
BRANCH   1  11
ATOM     11  C   UNL d   1      52.993  34.475  54.029  0.00  0.00     0.248 C 
ATOM     12  N   UNL d   1      53.564  33.681  54.388  0.00  0.00    -0.275 N 
ATOM     13  C   UNL d   1      53.813  32.941  54.400  0.00  0.00     0.083 A 
ATOM     14  C   UNL d   1      53.937  34.062  54.951  0.00  0.00     0.083 A 
ATOM     15  C   UNL d   1      54.344  32.874  54.979  0.00  0.00     0.021 A 
ATOM     16  C   UNL d   1      54.421  33.565  55.319  0.00  0.00     0.021 A 
ATOM     17  O   UNL d   1      53.026  35.257  54.352  0.00  0.00    -0.271 OA
ENDBRANCH   1  11
TORSDOF 1
ENDMDL
