MODEL 1
REMARK VINA RESULT:       0.7      0.000      0.000
REMARK  3 active torsions:
REMARK  status: ('A' for Active; 'I' for Inactive)
REMARK    1  A    between atoms: C_7  and  C_1 
REMARK    2  A    between atoms: C_6  and  C_2 
REMARK    3  A    between atoms: C_3  and  C_6 
REMARK       I    between atoms: N_4  and  C_3 
ROOT
ATOM      1  C   UNL d   1     -41.866-121.660 -50.720  0.00  0.00     0.038 A 
ATOM      2  C   UNL d   1     -42.030-122.128 -51.985  0.00  0.00     0.043 A 
ATOM      3  C   UNL d   1     -42.255-122.245 -51.147  0.00  0.00     0.016 A 
ATOM      4  C   UNL d   1     -41.759-121.365 -49.949  0.00  0.00    -0.023 A 
ATOM      5  C   UNL d   1     -41.396-121.160 -51.225  0.00  0.00     0.013 A 
ATOM      6  C   UNL d   1     -41.566-121.306 -50.872  0.00  0.00    -0.012 A 
ATOM      7  C   UNL d   1     -41.188-121.066 -52.072  0.00  0.00     0.023 A 
ATOM      8  C   UNL d   1     -41.577-121.650 -52.485  0.00  0.00     0.013 A 
ATOM      9  C   UNL d   1     -41.917-121.839 -51.276  0.00  0.00    -0.023 A 
ATOM     10  C   UNL d   1     -41.123-120.833 -51.339  0.00  0.00    -0.027 A 
ENDROOT
BRANCH   2  11
ATOM     11  C   UNL d   1     -42.268-122.569 -52.643  0.00  0.00     0.038 C 
BRANCH  11  12
ATOM     12  C   UNL d   1     -41.719-123.025 -53.056  0.00  0.00     0.261 C 
ATOM     13  N   UNL d   1     -41.733-123.036 -53.882  0.00  0.00    -0.268 N 
ATOM     14  C   UNL d   1     -41.184-123.492 -54.296  0.00  0.00     0.110 A 
ATOM     15  C   UNL d   1     -42.300-122.588 -54.291  0.00  0.00     0.110 A 
ATOM     16  C   UNL d   1     -41.195-123.505 -55.118  0.00  0.00     0.142 A 
ATOM     17  O   UNL d   1     -41.756-123.063 -55.535  0.00  0.00    -0.300 OA
ATOM     18  C   UNL d   1     -42.305-122.607 -55.122  0.00  0.00     0.142 A 
ATOM     19  O   UNL d   1     -41.158-123.467 -52.643  0.00  0.00    -0.267 OA
ENDBRANCH  11  12
ENDBRANCH   2  11
BRANCH   1  20
ATOM     20  C   UNL d   1     -42.353-122.205 -50.332  0.00  0.00    -0.019 A 
ATOM     21  C   UNL d   1     -43.162-122.063 -50.296  0.00  0.00    -0.004 A 
ATOM     22  C   UNL d   1     -43.652-122.600 -49.912  0.00  0.00    -0.000 A 
ATOM     23  C   UNL d   1     -43.336-123.270 -49.569  0.00  0.00    -0.000 A 
ATOM     24  C   UNL d   1     -42.517-123.412 -49.606  0.00  0.00    -0.000 A 
ATOM     25  C   UNL d   1     -43.821-123.817 -49.180  0.00  0.00    -0.000 C 
ATOM     26  C   UNL d   1     -42.032-122.869 -49.992  0.00  0.00    -0.004 A 
ENDBRANCH   1  20
TORSDOF 3
ENDMDL
