MODEL 1
REMARK VINA RESULT:      61.9      0.000      0.000
REMARK  5 active torsions:
REMARK  status: ('A' for Active; 'I' for Inactive)
REMARK    1  A    between atoms: C_11  and  C_8 
REMARK       I    between atoms: N_22  and  C_11 
REMARK    2  A    between atoms: N_14  and  C_24 
REMARK    3  A    between atoms: C_27  and  N_22 
REMARK    4  A    between atoms: C_24  and  C_25 
REMARK    5  A    between atoms: C_25  and  C_27 
ROOT
ATOM      1  C   UNL d   1      13.559  14.643  -4.882  0.00  0.00     0.154 A 
ATOM      2  C   UNL d   1      13.922  14.879  -4.180  0.00  0.00     0.093 A 
ATOM      3  N   UNL d   1      13.510  15.175  -5.518  0.00  0.00    -0.210 NA
ATOM      4  N   UNL d   1      14.185  16.169  -4.748  0.00  0.00    -0.258 N 
ATOM      5  C   UNL d   1      14.236  15.645  -4.114  0.00  0.00     0.269 A 
ATOM      6  N   UNL d   1      13.305  13.870  -4.790  0.00  0.00    -0.285 N 
ATOM      7  C   UNL d   1      13.822  15.934  -5.450  0.00  0.00     0.152 A 
ATOM      8  C   UNL d   1      13.508  13.621  -4.032  0.00  0.00     0.124 A 
ATOM      9  C   UNL d   1      13.894  14.252  -3.650  0.00  0.00     0.030 A 
ATOM     10  C   UNL d   1      14.497  16.928  -4.678  0.00  0.00     0.084 A 
ATOM     11  C   UNL d   1      13.771  16.457  -6.083  0.00  0.00     0.038 A 
ATOM     12  C   UNL d   1      14.445  17.451  -5.312  0.00  0.00     0.018 A 
ATOM     13  C   UNL d   1      14.082  17.216  -6.015  0.00  0.00     0.005 A 
ATOM     14  O   UNL d   1      14.599  15.881  -3.411  0.00  0.00    -0.266 OA
ATOM     15  C   UNL d   1      12.911  13.413  -5.357  0.00  0.00     0.101 C 
ATOM     16  C   UNL d   1      14.760  18.221  -5.248  0.00  0.00     0.002 C 
ENDROOT
BRANCH   8  17
ATOM     17  C   UNL d   1      13.357  12.879  -3.705  0.00  0.00     0.295 C 
ATOM     18  O   UNL d   1      12.979  12.299  -4.153  0.00  0.00    -0.264 OA
ATOM     19  N   UNL d   1      13.583  12.715  -2.931  0.00  0.00    -0.205 NA
BRANCH  19  20
ATOM     20  C   UNL d   1      13.432  11.972  -2.604  0.00  0.00     0.104 C 
BRANCH  20  21
ATOM     21  C   UNL d   1      13.717  11.787  -1.854  0.00  0.00     0.040 C 
BRANCH  21  22
ATOM     22  C   UNL d   1      13.791  12.384  -1.276  0.00  0.00     0.083 C 
BRANCH  22  23
ATOM     23  N   UNL d   1      14.485  12.450  -0.840  0.00  0.00    -0.285 N 
ATOM     24  C   UNL d   1      14.983  11.889  -0.502  0.00  0.00     0.183 A 
ATOM     25  N   UNL d   1      15.600  12.282  -0.127  0.00  0.00    -0.222 NA
ATOM     26  C   UNL d   1      15.494  13.095  -0.227  0.00  0.00     0.120 A 
ATOM     27  C   UNL d   1      14.799  13.197  -0.671  0.00  0.00     0.102 A 
ENDBRANCH  22  23
ENDBRANCH  21  22
ENDBRANCH  20  21
ENDBRANCH  19  20
ENDBRANCH   8  17
TORSDOF 5
ENDMDL
MODEL 2
REMARK VINA RESULT:      64.4      1.604      5.714
REMARK  5 active torsions:
REMARK  status: ('A' for Active; 'I' for Inactive)
REMARK    1  A    between atoms: C_11  and  C_8 
REMARK       I    between atoms: N_22  and  C_11 
REMARK    2  A    between atoms: N_14  and  C_24 
REMARK    3  A    between atoms: C_27  and  N_22 
REMARK    4  A    between atoms: C_24  and  C_25 
REMARK    5  A    between atoms: C_25  and  C_27 
ROOT
ATOM      1  C   UNL d   1      14.140  14.749  -3.665  0.00  0.00     0.154 A 
ATOM      2  C   UNL d   1      13.673  14.161  -4.007  0.00  0.00     0.093 A 
ATOM      3  N   UNL d   1      14.478  14.625  -2.918  0.00  0.00    -0.210 NA
ATOM      4  N   UNL d   1      13.884  13.328  -2.859  0.00  0.00    -0.258 N 
ATOM      5  C   UNL d   1      13.546  13.447  -3.600  0.00  0.00     0.269 A 
ATOM      6  N   UNL d   1      14.169  15.383  -4.184  0.00  0.00    -0.285 N 
ATOM      7  C   UNL d   1      14.350  13.916  -2.517  0.00  0.00     0.152 A 
ATOM      8  C   UNL d   1      13.722  15.193  -4.848  0.00  0.00     0.124 A 
ATOM      9  C   UNL d   1      13.412  14.428  -4.738  0.00  0.00     0.030 A 
ATOM     10  C   UNL d   1      13.755  12.619  -2.459  0.00  0.00     0.084 A 
ATOM     11  C   UNL d   1      14.688  13.797  -1.777  0.00  0.00     0.038 A 
ATOM     12  C   UNL d   1      14.093  12.500  -1.718  0.00  0.00     0.018 A 
ATOM     13  C   UNL d   1      14.560  13.089  -1.376  0.00  0.00     0.005 A 
ATOM     14  O   UNL d   1      13.080  12.858  -3.942  0.00  0.00    -0.266 OA
ATOM     15  C   UNL d   1      14.576  16.094  -4.065  0.00  0.00     0.101 C 
ATOM     16  C   UNL d   1      13.967  11.784  -1.308  0.00  0.00     0.002 C 
ENDROOT
BRANCH   8  17
ATOM     17  C   UNL d   1      13.601  15.672  -5.509  0.00  0.00     0.295 C 
ATOM     18  O   UNL d   1      13.358  15.338  -6.222  0.00  0.00    -0.264 OA
ATOM     19  N   UNL d   1      13.722  16.484  -5.458  0.00  0.00    -0.205 NA
BRANCH  19  20
ATOM     20  C   UNL d   1      13.601  16.963  -6.118  0.00  0.00     0.104 C 
BRANCH  20  21
ATOM     21  C   UNL d   1      13.438  17.765  -6.022  0.00  0.00     0.040 C 
BRANCH  21  22
ATOM     22  C   UNL d   1      13.924  18.336  -6.386  0.00  0.00     0.083 C 
BRANCH  22  23
ATOM     23  N   UNL d   1      13.835  19.132  -6.200  0.00  0.00    -0.285 N 
ATOM     24  C   UNL d   1      13.196  19.647  -6.259  0.00  0.00     0.183 A 
ATOM     25  N   UNL d   1      13.431  20.386  -5.988  0.00  0.00    -0.222 NA
ATOM     26  C   UNL d   1      14.222  20.342  -5.755  0.00  0.00     0.120 A 
ATOM     27  C   UNL d   1      14.471  19.559  -5.888  0.00  0.00     0.102 A 
ENDBRANCH  22  23
ENDBRANCH  21  22
ENDBRANCH  20  21
ENDBRANCH  19  20
ENDBRANCH   8  17
TORSDOF 5
ENDMDL
