MODEL 1
REMARK VINA RESULT:       6.7      0.000      0.000
REMARK  0 active torsions:
REMARK  status: ('A' for Active; 'I' for Inactive)
ROOT
ATOM      1  C   UNL d   1      46.260 -18.213  43.156  0.00  0.00     0.094 A 
ATOM      2  C   UNL d   1      46.267 -18.210  42.331  0.00  0.00     0.143 A 
ATOM      3  S   UNL d   1      46.394 -18.912  41.917  0.00  0.00    -0.055 SA
ATOM      4  C   UNL d   1      46.381 -18.918  43.567  0.00  0.00     0.013 A 
ATOM      5  C   UNL d   1      46.515 -19.618  42.328  0.00  0.00     0.086 A 
ATOM      6  C   UNL d   1      46.508 -19.620  43.153  0.00  0.00     0.017 A 
ATOM      7  C   UNL d   1      46.133 -17.510  43.570  0.00  0.00     0.103 C 
ATOM      8  N   UNL d   1      46.007 -16.814  43.982  0.00  0.00    -0.191 NA
ATOM      9  S   UNL d   1      46.643 -20.325  41.914  0.00  0.00    -0.071 SA
ATOM     10  N   UNL d   1      46.148 -17.510  41.920  0.00  0.00    -0.140 N 
ATOM     11  C   UNL d   1      46.374 -18.921  44.391  0.00  0.00     0.001 A 
ATOM     12  C   UNL d   1      46.629 -20.326  43.564  0.00  0.00     0.001 A 
ATOM     13  C   UNL d   1      46.495 -19.626  44.802  0.00  0.00     0.000 A 
ATOM     14  C   UNL d   1      46.622 -20.329  44.388  0.00  0.00     0.000 A 
ENDROOT
TORSDOF 0
ENDMDL
MODEL 2
REMARK VINA RESULT:       8.6      1.384      2.351
REMARK  0 active torsions:
REMARK  status: ('A' for Active; 'I' for Inactive)
ROOT
ATOM      1  C   UNL d   1      46.458 -19.145  43.739  0.00  0.00     0.094 A 
ATOM      2  C   UNL d   1      46.496 -18.354  43.970  0.00  0.00     0.143 A 
ATOM      3  S   UNL d   1      46.551 -17.760  43.401  0.00  0.00    -0.055 SA
ATOM      4  C   UNL d   1      46.475 -19.342  42.939  0.00  0.00     0.013 A 
ATOM      5  C   UNL d   1      46.568 -17.958  42.600  0.00  0.00     0.086 A 
ATOM      6  C   UNL d   1      46.530 -18.749  42.369  0.00  0.00     0.017 A 
ATOM      7  C   UNL d   1      46.402 -19.739  44.310  0.00  0.00     0.103 C 
ATOM      8  N   UNL d   1      46.347 -20.330  44.875  0.00  0.00    -0.191 NA
ATOM      9  S   UNL d   1      46.624 -17.362  42.024  0.00  0.00    -0.071 SA
ATOM     10  N   UNL d   1      46.478 -18.155  44.766  0.00  0.00    -0.140 N 
ATOM     11  C   UNL d   1      46.437 -20.132  42.709  0.00  0.00     0.001 A 
ATOM     12  C   UNL d   1      46.548 -18.945  41.567  0.00  0.00     0.001 A 
ATOM     13  C   UNL d   1      46.454 -20.330  41.907  0.00  0.00     0.000 A 
ATOM     14  C   UNL d   1      46.510 -19.735  41.337  0.00  0.00     0.000 A 
ENDROOT
TORSDOF 0
ENDMDL
