MODEL 1
REMARK VINA RESULT:      -2.3      0.000      0.000
REMARK  5 active torsions:
REMARK  status: ('A' for Active; 'I' for Inactive)
REMARK    1  A    between atoms: C_3  and  C_1 
REMARK    2  A    between atoms: N_4  and  C_3 
REMARK    3  A    between atoms: C_6  and  C_3 
REMARK    4  A    between atoms: C_21  and  N_9 
REMARK    5  A    between atoms: C_25  and  C_21 
ROOT
ATOM      1  C   UNL d   1      31.833  17.037 -24.174  0.00  0.00     0.073 C 
ENDROOT
BRANCH   1   2
ATOM      2  C   UNL d   1      32.127  17.818 -24.137  0.00  0.00     0.057 A 
ATOM      3  C   UNL d   1      32.382  18.154 -23.428  0.00  0.00     0.214 A 
ATOM      4  C   UNL d   1      32.670  18.921 -23.400  0.00  0.00     0.120 A 
ATOM      5  O   UNL d   1      32.347  17.712 -22.739  0.00  0.00    -0.285 OA
ATOM      6  N   UNL d   1      32.916  19.240 -22.703  0.00  0.00    -0.241 NA
ATOM      7  C   UNL d   1      32.706  19.367 -24.095  0.00  0.00     0.021 A 
ATOM      8  C   UNL d   1      33.205  20.009 -22.674  0.00  0.00     0.099 A 
ATOM      9  C   UNL d   1      33.241  20.455 -23.368  0.00  0.00     0.021 A 
ATOM     10  C   UNL d   1      32.988  20.127 -24.084  0.00  0.00     0.003 A 
ATOM     11  C   UNL d   1      32.454  19.041 -24.809  0.00  0.00     0.002 A 
ATOM     12  C   UNL d   1      32.163  18.263 -24.831  0.00  0.00     0.005 A 
ENDBRANCH   1   2
BRANCH   1  13
ATOM     13  N   UNL d   1      31.031  16.911 -24.062  0.00  0.00    -0.301 N 
ATOM     14  C   UNL d   1      30.478  17.274 -24.561  0.00  0.00     0.100 A 
ATOM     15  C   UNL d   1      29.674  17.157 -24.461  0.00  0.00     0.100 A 
ATOM     16  N   UNL d   1      29.409  16.656 -23.836  0.00  0.00    -0.297 N 
ATOM     17  C   UNL d   1      29.944  16.292 -23.336  0.00  0.00     0.100 A 
ATOM     18  C   UNL d   1      30.766  16.421 -23.451  0.00  0.00     0.100 A 
BRANCH  16  19
ATOM     19  C   UNL d   1      28.604  16.530 -23.723  0.00  0.00     0.126 C 
BRANCH  19  20
ATOM     20  C   UNL d   1      28.343  15.931 -23.242  0.00  0.00     0.253 C 
ATOM     21  O   UNL d   1      27.589  15.608 -23.343  0.00  0.00    -0.281 OA
ENDBRANCH  19  20
ENDBRANCH  16  19
ENDBRANCH   1  13
BRANCH   1  22
ATOM     22  C   UNL d   1      32.340  16.416 -24.319  0.00  0.00     0.046 A 
ATOM     23  S   UNL d   1      32.374  16.061 -25.056  0.00  0.00    -0.085 SA
ATOM     24  C   UNL d   1      32.921  15.476 -25.019  0.00  0.00     0.035 A 
ATOM     25  C   UNL d   1      33.239  15.453 -24.262  0.00  0.00     0.007 A 
ATOM     26  C   UNL d   1      32.882  16.036 -23.820  0.00  0.00     0.009 A 
ENDBRANCH   1  22
TORSDOF 5
ENDMDL
