MODEL 1
REMARK VINA RESULT:      22.3      0.000      0.000
REMARK  3 active torsions:
REMARK  status: ('A' for Active; 'I' for Inactive)
REMARK    1  A    between atoms: C_4  and  C_1 
REMARK    2  A    between atoms: N_7  and  C_4 
REMARK    3  A    between atoms: C_9  and  N_7 
ROOT
ATOM      1  C   UNL d   1      14.086  12.413  -1.889  0.00  0.00     0.171 C 
ATOM      2  S   UNL d   1      13.623  12.085  -1.288  0.00  0.00    -0.054 SA
ENDROOT
BRANCH   1   3
ATOM      3  C   UNL d   1      13.783  12.470  -2.654  0.00  0.00     0.191 A 
ATOM      4  N   UNL d   1      13.641  11.835  -3.163  0.00  0.00    -0.223 NA
ATOM      5  C   UNL d   1      13.338  12.141  -3.871  0.00  0.00     0.101 A 
ATOM      6  C   UNL d   1      13.096  11.783  -4.574  0.00  0.00     0.021 A 
ATOM      7  C   UNL d   1      13.296  12.965  -3.792  0.00  0.00     0.101 A 
ATOM      8  C   UNL d   1      12.815  12.239  -5.193  0.00  0.00     0.002 A 
ATOM      9  C   UNL d   1      12.773  13.063  -5.115  0.00  0.00     0.002 A 
ATOM     10  C   UNL d   1      13.012  13.423  -4.419  0.00  0.00     0.021 A 
ATOM     11  N   UNL d   1      13.572  13.162  -3.038  0.00  0.00    -0.223 NA
ENDBRANCH   1   3
BRANCH   1  12
ATOM     12  N   UNL d   1      14.846  12.682  -1.727  0.00  0.00    -0.232 NA
BRANCH  12  13
ATOM     13  C   UNL d   1      14.954  13.382  -1.297  0.00  0.00     0.083 A 
ATOM     14  C   UNL d   1      15.014  13.355  -0.476  0.00  0.00     0.020 A 
ATOM     15  C   UNL d   1      15.121  14.043  -0.042  0.00  0.00     0.013 A 
ATOM     16  C   UNL d   1      15.168  14.772  -0.441  0.00  0.00     0.058 A 
ATOM     17  C   UNL d   1      15.107  14.802  -1.265  0.00  0.00     0.013 A 
ATOM     18 CL   UNL d   1      15.275  15.465  -0.015  0.00  0.00    -0.082 Cl
ATOM     19  C   UNL d   1      15.000  14.101  -1.686  0.00  0.00     0.020 A 
ENDBRANCH  12  13
ENDBRANCH   1  12
TORSDOF 3
ENDMDL
MODEL 2
REMARK VINA RESULT:      23.4      2.091      3.832
REMARK  3 active torsions:
REMARK  status: ('A' for Active; 'I' for Inactive)
REMARK    1  A    between atoms: C_4  and  C_1 
REMARK    2  A    between atoms: N_7  and  C_4 
REMARK    3  A    between atoms: C_9  and  N_7 
ROOT
ATOM      1  C   UNL d   1      13.473  12.162  -3.504  0.00  0.00     0.171 C 
ATOM      2  S   UNL d   1      13.915  11.786  -4.093  0.00  0.00    -0.054 SA
ENDROOT
BRANCH   1   3
ATOM      3  C   UNL d   1      13.689  12.076  -2.713  0.00  0.00     0.191 A 
ATOM      4  N   UNL d   1      14.464  12.042  -2.426  0.00  0.00    -0.223 NA
ATOM      5  C   UNL d   1      14.426  11.954  -1.604  0.00  0.00     0.101 A 
ATOM      6  C   UNL d   1      15.009  11.890  -1.023  0.00  0.00     0.021 A 
ATOM      7  C   UNL d   1      13.626  11.933  -1.388  0.00  0.00     0.101 A 
ATOM      8  C   UNL d   1      14.799  11.806  -0.236  0.00  0.00     0.002 A 
ATOM      9  C   UNL d   1      13.999  11.785  -0.020  0.00  0.00     0.002 A 
ATOM     10  C   UNL d   1      13.417  11.849  -0.593  0.00  0.00     0.021 A 
ATOM     11  N   UNL d   1      13.175  12.009  -2.079  0.00  0.00    -0.223 NA
ENDBRANCH   1   3
BRANCH   1  12
ATOM     12  N   UNL d   1      12.821  12.621  -3.704  0.00  0.00    -0.232 NA
BRANCH  12  13
ATOM     13  C   UNL d   1      12.918  13.293  -4.178  0.00  0.00     0.083 A 
ATOM     14  C   UNL d   1      12.784  14.042  -3.863  0.00  0.00     0.020 A 
ATOM     15  C   UNL d   1      12.878  14.713  -4.326  0.00  0.00     0.013 A 
ATOM     16  C   UNL d   1      13.112  14.629  -5.120  0.00  0.00     0.058 A 
ATOM     17  C   UNL d   1      13.247  13.880  -5.439  0.00  0.00     0.013 A 
ATOM     18 CL   UNL d   1      13.208  15.296  -5.590  0.00  0.00    -0.082 Cl
ATOM     19  C   UNL d   1      13.148  13.215  -4.961  0.00  0.00     0.020 A 
ENDBRANCH  12  13
ENDBRANCH   1  12
TORSDOF 3
ENDMDL
