MODEL 1
REMARK VINA RESULT:      82.5      0.000      0.000
REMARK  4 active torsions:
REMARK  status: ('A' for Active; 'I' for Inactive)
REMARK    1  A    between atoms: N_2  and  C_1 
REMARK    2  A    between atoms: C_3  and  C_1 
REMARK       I    between atoms: C_6  and  N_2 
REMARK       I    between atoms: N_8  and  C_6 
REMARK    3  A    between atoms: N_11  and  C_7 
REMARK    4  A    between atoms: C_9  and  N_8 
ROOT
ATOM      1  N   UNL d   1      59.596  49.490  50.865  0.00  0.00    -0.159 NA
ATOM      2  C   UNL d   1      58.952  49.040  50.614  0.00  0.00     0.370 C 
ATOM      3  N   UNL d   1      58.251  49.412  50.414  0.00  0.00    -0.172 NA
ATOM      4  O   UNL d   1      59.014  48.218  50.563  0.00  0.00    -0.243 OA
ENDROOT
BRANCH   1   5
ATOM      5  C   UNL d   1      60.368  49.537  51.124  0.00  0.00     0.386 A 
ATOM      6  O   UNL d   1      59.990  49.552  51.858  0.00  0.00    -0.283 OA
ATOM      7  C   UNL d   1      60.561  49.604  52.451  0.00  0.00     0.121 A 
ATOM      8  C   UNL d   1      60.505  49.638  53.272  0.00  0.00     0.026 A 
ATOM      9  C   UNL d   1      61.302  49.622  52.081  0.00  0.00     0.121 A 
ATOM     10  C   UNL d   1      61.188  49.689  53.725  0.00  0.00     0.002 A 
ATOM     11  C   UNL d   1      61.934  49.707  53.360  0.00  0.00     0.002 A 
ATOM     12  C   UNL d   1      61.983  49.673  52.539  0.00  0.00     0.026 A 
ATOM     13  O   UNL d   1      61.183  49.581  51.272  0.00  0.00    -0.283 OA
BRANCH   5  14
ATOM     14  C   UNL d   1      60.637  49.515  50.345  0.00  0.00     0.470 C 
ATOM     15  F   UNL d   1      60.217  49.687  49.618  0.00  0.00    -0.164 F 
ATOM     16  F   UNL d   1      61.425  49.310  50.049  0.00  0.00    -0.164 F 
ATOM     17  F   UNL d   1      60.889  49.493  49.637  0.00  0.00    -0.164 F 
ENDBRANCH   5  14
ENDBRANCH   1   5
BRANCH   3  18
ATOM     18  C   UNL d   1      57.509  49.150  50.146  0.00  0.00     0.172 A 
ATOM     19  C   UNL d   1      57.375  48.349  50.041  0.00  0.00     0.076 A 
ATOM     20  C   UNL d   1      56.640  48.083  49.775  0.00  0.00     0.153 A 
ATOM     21  N   UNL d   1      56.036  48.637  49.615  0.00  0.00    -0.206 NA
ATOM     22  C   UNL d   1      56.178  49.442  49.723  0.00  0.00     0.202 A 
ATOM     23  N   UNL d   1      56.912  49.705  49.989  0.00  0.00    -0.205 NA
BRANCH  20  24
ATOM     24  N   UNL d   1      56.498  47.278  49.666  0.00  0.00    -0.285 N 
ATOM     25  C   UNL d   1      56.283  46.996  48.926  0.00  0.00     0.108 A 
ATOM     26  C   UNL d   1      56.144  46.188  48.829  0.00  0.00     0.142 A 
ATOM     27  O   UNL d   1      56.217  45.669  49.461  0.00  0.00    -0.300 OA
ATOM     28  C   UNL d   1      56.432  45.959  50.201  0.00  0.00     0.142 A 
ATOM     29  C   UNL d   1      56.575  46.764  50.310  0.00  0.00     0.108 A 
ENDBRANCH  20  24
ENDBRANCH   3  18
TORSDOF 4
ENDMDL
