MODEL 1
REMARK VINA RESULT:      84.3      0.000      0.000
REMARK  5 active torsions:
REMARK  status: ('A' for Active; 'I' for Inactive)
REMARK    1  A    between atoms: N_7  and  C_1 
REMARK    2  A    between atoms: S_6  and  C_2 
REMARK    3  A    between atoms: C_3  and  S_6 
REMARK    4  A    between atoms: C_13  and  N_5 
REMARK    5  A    between atoms: C_18  and  C_13 
ROOT
ATOM      1  C   UNL d   1     -51.141  26.529  34.242  0.00  0.00     0.232 A 
ATOM      2  C   UNL d   1     -51.578  25.992  34.679  0.00  0.00     0.139 A 
ATOM      3  N   UNL d   1     -50.706  26.115  33.671  0.00  0.00    -0.204 NA
ATOM      4  N   UNL d   1     -51.421  25.238  34.386  0.00  0.00    -0.282 N 
ATOM      5  C   UNL d   1     -50.884  25.308  33.763  0.00  0.00     0.150 A 
ATOM      6  C   UNL d   1     -50.575  24.695  33.313  0.00  0.00     0.041 C 
ENDROOT
BRANCH   2   7
ATOM      7  S   UNL d   1     -52.085  26.171  35.302  0.00  0.00    -0.029 SA
BRANCH   7   8
ATOM      8  C   UNL d   1     -51.782  26.306  36.057  0.00  0.00     0.181 A 
ATOM      9  N   UNL d   1     -51.036  26.620  36.234  0.00  0.00    -0.221 NA
ATOM     10  C   UNL d   1     -50.961  26.659  37.047  0.00  0.00     0.100 A 
ATOM     11  C   UNL d   1     -50.354  26.918  37.545  0.00  0.00     0.021 A 
ATOM     12  C   UNL d   1     -51.656  26.371  37.387  0.00  0.00     0.084 A 
ATOM     13  C   UNL d   1     -50.437  26.891  38.352  0.00  0.00     0.002 A 
ATOM     14  C   UNL d   1     -51.136  26.602  38.684  0.00  0.00     0.002 A 
ATOM     15  C   UNL d   1     -51.750  26.340  38.208  0.00  0.00     0.019 A 
ATOM     16  N   UNL d   1     -52.164  26.153  36.770  0.00  0.00    -0.282 N 
ATOM     17  C   UNL d   1     -52.922  25.836  36.857  0.00  0.00     0.101 C 
ENDBRANCH   7   8
ENDBRANCH   2   7
BRANCH   1  18
ATOM     18  N   UNL d   1     -50.750  27.162  33.873  0.00  0.00    -0.093 N 
ATOM     19  O   UNL d   1     -51.150  27.627  33.321  0.00  0.00    -0.530 OA
ATOM     20  O   UNL d   1     -49.964  27.330  34.055  0.00  0.00    -0.530 OA
ENDBRANCH   1  18
BRANCH   4  21
ATOM     21  C   UNL d   1     -51.747  24.530  34.668  0.00  0.00     0.082 C 
BRANCH  21  22
ATOM     22  C   UNL d   1     -52.417  24.221  34.301  0.00  0.00     0.018 A 
ATOM     23  C   UNL d   1     -52.781  24.624  33.674  0.00  0.00     0.002 A 
ATOM     24  C   UNL d   1     -53.446  24.314  33.312  0.00  0.00     0.000 A 
ATOM     25  C   UNL d   1     -53.755  23.592  33.576  0.00  0.00     0.000 A 
ATOM     26  C   UNL d   1     -53.399  23.190  34.195  0.00  0.00     0.000 A 
ATOM     27  C   UNL d   1     -52.728  23.503  34.560  0.00  0.00     0.002 A 
ENDBRANCH  21  22
ENDBRANCH   4  21
TORSDOF 5
ENDMDL
