MODEL 1
REMARK VINA RESULT:      -8.2      0.000      0.000
REMARK  5 active torsions:
REMARK  status: ('A' for Active; 'I' for Inactive)
REMARK    1  A    between atoms: S_10  and  C_6 
REMARK    2  A    between atoms: C_15  and  S_10 
REMARK    3  A    between atoms: C_12  and  C_15 
REMARK       I    between atoms: N_16  and  C_12 
REMARK    4  A    between atoms: C_14  and  C_20 
REMARK    5  A    between atoms: C_20  and  N_16 
ROOT
ATOM      1  C   UNL d   1      53.058  33.601  53.760  0.00  0.00     0.117 A 
ATOM      2  C   UNL d   1      53.652  33.664  54.315  0.00  0.00     0.082 A 
ATOM      3  N   UNL d   1      52.956  32.880  53.346  0.00  0.00    -0.214 NA
ATOM      4  C   UNL d   1      54.148  33.035  54.475  0.00  0.00     0.283 A 
ATOM      5  N   UNL d   1      54.045  32.314  54.061  0.00  0.00    -0.183 NA
ATOM      6  C   UNL d   1      53.450  32.250  53.504  0.00  0.00     0.198 A 
ATOM      7  S   UNL d   1      52.658  34.322  53.727  0.00  0.00    -0.068 SA
ATOM      8  C   UNL d   1      53.615  34.424  54.623  0.00  0.00     0.013 A 
ATOM      9  C   UNL d   1      52.997  34.848  54.263  0.00  0.00     0.031 A 
ATOM     10  O   UNL d   1      54.762  33.109  55.053  0.00  0.00    -0.265 OA
ATOM     11  C   UNL d   1      54.117  34.741  55.211  0.00  0.00     0.001 C 
ATOM     12  C   UNL d   1      52.771  35.645  54.419  0.00  0.00     0.007 C 
ENDROOT
BRANCH   6  13
ATOM     13  S   UNL d   1      53.347  31.533  53.092  0.00  0.00    -0.043 SA
BRANCH  13  14
ATOM     14  C   UNL d   1      53.283  30.835  53.508  0.00  0.00     0.101 C 
BRANCH  14  15
ATOM     15  C   UNL d   1      53.037  30.122  53.104  0.00  0.00     0.286 C 
ATOM     16  O   UNL d   1      52.795  30.167  52.312  0.00  0.00    -0.265 OA
ATOM     17  N   UNL d   1      53.042  29.407  53.499  0.00  0.00    -0.206 NA
BRANCH  17  18
ATOM     18  C   UNL d   1      53.283  29.368  54.283  0.00  0.00     0.102 C 
BRANCH  18  19
ATOM     19  C   UNL d   1      53.380  28.645  54.649  0.00  0.00     0.021 C 
ATOM     20  C   UNL d   1      53.340  28.582  55.471  0.00  0.00     0.002 C 
ENDBRANCH  18  19
ENDBRANCH  17  18
ENDBRANCH  14  15
ENDBRANCH  13  14
ENDBRANCH   6  13
TORSDOF 5
ENDMDL
MODEL 2
REMARK VINA RESULT:      -6.9      2.685      4.485
REMARK  5 active torsions:
REMARK  status: ('A' for Active; 'I' for Inactive)
REMARK    1  A    between atoms: S_10  and  C_6 
REMARK    2  A    between atoms: C_15  and  S_10 
REMARK    3  A    between atoms: C_12  and  C_15 
REMARK       I    between atoms: N_16  and  C_12 
REMARK    4  A    between atoms: C_14  and  C_20 
REMARK    5  A    between atoms: C_20  and  N_16 
ROOT
ATOM      1  C   UNL d   1      52.784  33.933  53.708  0.00  0.00     0.117 A 
ATOM      2  C   UNL d   1      52.934  33.136  53.619  0.00  0.00     0.082 A 
ATOM      3  N   UNL d   1      52.202  34.300  53.229  0.00  0.00    -0.214 NA
ATOM      4  C   UNL d   1      52.525  32.690  53.070  0.00  0.00     0.283 A 
ATOM      5  N   UNL d   1      51.943  33.057  52.591  0.00  0.00    -0.183 NA
ATOM      6  C   UNL d   1      51.793  33.856  52.680  0.00  0.00     0.198 A 
ATOM      7  S   UNL d   1      53.280  34.224  54.299  0.00  0.00    -0.068 SA
ATOM      8  C   UNL d   1      53.521  32.939  54.156  0.00  0.00     0.013 A 
ATOM      9  C   UNL d   1      53.748  33.612  54.590  0.00  0.00     0.031 A 
ATOM     10  O   UNL d   1      52.686  31.863  52.984  0.00  0.00    -0.265 OA
ATOM     11  C   UNL d   1      53.854  32.180  54.264  0.00  0.00     0.001 C 
ATOM     12  C   UNL d   1      54.334  33.650  55.195  0.00  0.00     0.007 C 
ENDROOT
BRANCH   6  13
ATOM     13  S   UNL d   1      51.215  34.221  52.204  0.00  0.00    -0.043 SA
BRANCH  13  14
ATOM     14  C   UNL d   1      50.476  34.372  52.513  0.00  0.00     0.101 C 
BRANCH  14  15
ATOM     15  C   UNL d   1      49.821  34.530  51.984  0.00  0.00     0.286 C 
ATOM     16  O   UNL d   1      49.853  34.255  51.203  0.00  0.00    -0.265 OA
ATOM     17  N   UNL d   1      49.173  34.950  52.253  0.00  0.00    -0.206 NA
BRANCH  17  18
ATOM     18  C   UNL d   1      49.146  35.220  53.027  0.00  0.00     0.102 C 
BRANCH  18  19
ATOM     19  C   UNL d   1      48.445  35.491  53.345  0.00  0.00     0.021 C 
ATOM     20  C   UNL d   1      48.412  36.220  53.731  0.00  0.00     0.002 C 
ENDBRANCH  18  19
ENDBRANCH  17  18
ENDBRANCH  14  15
ENDBRANCH  13  14
ENDBRANCH   6  13
TORSDOF 5
ENDMDL
MODEL 3
REMARK VINA RESULT:      -6.8      2.745      4.514
REMARK  5 active torsions:
REMARK  status: ('A' for Active; 'I' for Inactive)
REMARK    1  A    between atoms: S_10  and  C_6 
REMARK    2  A    between atoms: C_15  and  S_10 
REMARK    3  A    between atoms: C_12  and  C_15 
REMARK       I    between atoms: N_16  and  C_12 
REMARK    4  A    between atoms: C_14  and  C_20 
REMARK    5  A    between atoms: C_20  and  N_16 
ROOT
ATOM      1  C   UNL d   1      52.744  33.410  53.764  0.00  0.00     0.117 A 
ATOM      2  C   UNL d   1      53.037  34.090  54.107  0.00  0.00     0.082 A 
ATOM      3  N   UNL d   1      52.117  33.464  53.211  0.00  0.00    -0.214 NA
ATOM      4  C   UNL d   1      52.729  34.823  53.918  0.00  0.00     0.283 A 
ATOM      5  N   UNL d   1      52.102  34.876  53.365  0.00  0.00    -0.183 NA
ATOM      6  C   UNL d   1      51.808  34.194  53.021  0.00  0.00     0.198 A 
ATOM      7  S   UNL d   1      53.166  32.768  54.065  0.00  0.00    -0.068 SA
ATOM      8  C   UNL d   1      53.638  33.863  54.617  0.00  0.00     0.013 A 
ATOM      9  C   UNL d   1      53.730  33.037  54.601  0.00  0.00     0.031 A 
ATOM     10  O   UNL d   1      53.039  35.523  54.278  0.00  0.00    -0.265 OA
ATOM     11  C   UNL d   1      54.100  34.375  55.090  0.00  0.00     0.001 C 
ATOM     12  C   UNL d   1      54.285  32.581  55.042  0.00  0.00     0.007 C 
ENDROOT
BRANCH   6  13
ATOM     13  S   UNL d   1      51.185  34.247  52.471  0.00  0.00    -0.043 SA
BRANCH  13  14
ATOM     14  C   UNL d   1      50.454  34.514  52.715  0.00  0.00     0.101 C 
BRANCH  14  15
ATOM     15  C   UNL d   1      49.806  34.544  52.156  0.00  0.00     0.286 C 
ATOM     16  O   UNL d   1      49.887  34.172  51.419  0.00  0.00    -0.265 OA
ATOM     17  N   UNL d   1      49.117  34.938  52.352  0.00  0.00    -0.206 NA
BRANCH  17  18
ATOM     18  C   UNL d   1      49.042  35.304  53.081  0.00  0.00     0.102 C 
BRANCH  18  19
ATOM     19  C   UNL d   1      48.367  35.727  53.263  0.00  0.00     0.021 C 
ATOM     20  C   UNL d   1      48.283  36.085  54.002  0.00  0.00     0.002 C 
ENDBRANCH  18  19
ENDBRANCH  17  18
ENDBRANCH  14  15
ENDBRANCH  13  14
ENDBRANCH   6  13
TORSDOF 5
ENDMDL
MODEL 4
REMARK VINA RESULT:      -6.7      1.669      4.584
REMARK  5 active torsions:
REMARK  status: ('A' for Active; 'I' for Inactive)
REMARK    1  A    between atoms: S_10  and  C_6 
REMARK    2  A    between atoms: C_15  and  S_10 
REMARK    3  A    between atoms: C_12  and  C_15 
REMARK       I    between atoms: N_16  and  C_12 
REMARK    4  A    between atoms: C_14  and  C_20 
REMARK    5  A    between atoms: C_20  and  N_16 
ROOT
ATOM      1  C   UNL d   1      53.250  30.928  54.063  0.00  0.00     0.117 A 
ATOM      2  C   UNL d   1      53.104  30.499  53.385  0.00  0.00     0.082 A 
ATOM      3  N   UNL d   1      53.245  31.765  54.031  0.00  0.00    -0.214 NA
ATOM      4  C   UNL d   1      52.952  30.873  52.674  0.00  0.00     0.283 A 
ATOM      5  N   UNL d   1      52.947  31.710  52.643  0.00  0.00    -0.183 NA
ATOM      6  C   UNL d   1      53.094  32.141  53.323  0.00  0.00     0.198 A 
ATOM      7  S   UNL d   1      53.381  30.397  54.681  0.00  0.00    -0.068 SA
ATOM      8  C   UNL d   1      53.146  29.705  53.588  0.00  0.00     0.013 A 
ATOM      9  C   UNL d   1      53.319  29.626  54.397  0.00  0.00     0.031 A 
ATOM     10  O   UNL d   1      52.802  30.420  51.975  0.00  0.00    -0.265 OA
ATOM     11  C   UNL d   1      53.033  29.059  53.069  0.00  0.00     0.001 C 
ATOM     12  C   UNL d   1      53.409  28.906  54.828  0.00  0.00     0.007 C 
ENDROOT
BRANCH   6  13
ATOM     13  S   UNL d   1      53.089  32.973  53.291  0.00  0.00    -0.043 SA
BRANCH  13  14
ATOM     14  C   UNL d   1      52.382  33.368  53.189  0.00  0.00     0.101 C 
BRANCH  14  15
ATOM     15  C   UNL d   1      52.366  34.223  53.229  0.00  0.00     0.286 C 
ATOM     16  O   UNL d   1      53.057  34.634  53.431  0.00  0.00    -0.265 OA
ATOM     17  N   UNL d   1      51.673  34.625  53.069  0.00  0.00    -0.206 NA
BRANCH  17  18
ATOM     18  C   UNL d   1      50.992  34.214  52.870  0.00  0.00     0.102 C 
BRANCH  18  19
ATOM     19  C   UNL d   1      50.268  34.593  52.864  0.00  0.00     0.021 C 
ATOM     20  C   UNL d   1      49.741  34.479  52.239  0.00  0.00     0.002 C 
ENDBRANCH  18  19
ENDBRANCH  17  18
ENDBRANCH  14  15
ENDBRANCH  13  14
ENDBRANCH   6  13
TORSDOF 5
ENDMDL
MODEL 5
REMARK VINA RESULT:      -5.7      1.589      4.423
REMARK  5 active torsions:
REMARK  status: ('A' for Active; 'I' for Inactive)
REMARK    1  A    between atoms: S_10  and  C_6 
REMARK    2  A    between atoms: C_15  and  S_10 
REMARK    3  A    between atoms: C_12  and  C_15 
REMARK       I    between atoms: N_16  and  C_12 
REMARK    4  A    between atoms: C_14  and  C_20 
REMARK    5  A    between atoms: C_20  and  N_16 
ROOT
ATOM      1  C   UNL d   1      52.490  30.964  53.189  0.00  0.00     0.117 A 
ATOM      2  C   UNL d   1      53.290  30.962  53.344  0.00  0.00     0.082 A 
ATOM      3  N   UNL d   1      52.109  31.684  52.990  0.00  0.00    -0.214 NA
ATOM      4  C   UNL d   1      53.728  31.651  53.309  0.00  0.00     0.283 A 
ATOM      5  N   UNL d   1      53.347  32.371  53.110  0.00  0.00    -0.183 NA
ATOM      6  C   UNL d   1      52.544  32.373  52.955  0.00  0.00     0.198 A 
ATOM      7  S   UNL d   1      52.210  30.192  53.268  0.00  0.00    -0.068 SA
ATOM      8  C   UNL d   1      53.500  30.188  53.518  0.00  0.00     0.013 A 
ATOM      9  C   UNL d   1      52.833  29.695  53.475  0.00  0.00     0.031 A 
ATOM     10  O   UNL d   1      54.558  31.640  53.471  0.00  0.00    -0.265 OA
ATOM     11  C   UNL d   1      54.268  29.920  53.713  0.00  0.00     0.001 C 
ATOM     12  C   UNL d   1      52.808  28.863  53.614  0.00  0.00     0.007 C 
ENDROOT
BRANCH   6  13
ATOM     13  S   UNL d   1      52.166  33.089  52.758  0.00  0.00    -0.043 SA
BRANCH  13  14
ATOM     14  C   UNL d   1      52.205  33.720  53.272  0.00  0.00     0.101 C 
BRANCH  14  15
ATOM     15  C   UNL d   1      51.842  34.465  53.056  0.00  0.00     0.286 C 
ATOM     16  O   UNL d   1      51.286  34.484  52.442  0.00  0.00    -0.265 OA
ATOM     17  N   UNL d   1      52.047  35.148  53.456  0.00  0.00    -0.206 NA
BRANCH  17  18
ATOM     18  C   UNL d   1      52.598  35.125  54.063  0.00  0.00     0.102 C 
BRANCH  18  19
ATOM     19  C   UNL d   1      52.879  35.817  54.392  0.00  0.00     0.021 C 
ATOM     20  C   UNL d   1      53.320  35.801  55.089  0.00  0.00     0.002 C 
ENDBRANCH  18  19
ENDBRANCH  17  18
ENDBRANCH  14  15
ENDBRANCH  13  14
ENDBRANCH   6  13
TORSDOF 5
ENDMDL
MODEL 6
REMARK VINA RESULT:      -5.7      9.989     10.845
REMARK  5 active torsions:
REMARK  status: ('A' for Active; 'I' for Inactive)
REMARK    1  A    between atoms: S_10  and  C_6 
REMARK    2  A    between atoms: C_15  and  S_10 
REMARK    3  A    between atoms: C_12  and  C_15 
REMARK       I    between atoms: N_16  and  C_12 
REMARK    4  A    between atoms: C_14  and  C_20 
REMARK    5  A    between atoms: C_20  and  N_16 
ROOT
ATOM      1  C   UNL d   1      44.644  30.353  57.765  0.00  0.00     0.117 A 
ATOM      2  C   UNL d   1      44.906  29.584  57.699  0.00  0.00     0.082 A 
ATOM      3  N   UNL d   1      44.657  30.731  58.513  0.00  0.00    -0.214 NA
ATOM      4  C   UNL d   1      45.182  29.176  58.352  0.00  0.00     0.283 A 
ATOM      5  N   UNL d   1      45.195  29.554  59.099  0.00  0.00    -0.183 NA
ATOM      6  C   UNL d   1      44.931  30.326  59.165  0.00  0.00     0.198 A 
ATOM      7  S   UNL d   1      44.404  30.608  57.018  0.00  0.00    -0.068 SA
ATOM      8  C   UNL d   1      44.827  29.368  56.912  0.00  0.00     0.013 A 
ATOM      9  C   UNL d   1      44.514  30.000  56.473  0.00  0.00     0.031 A 
ATOM     10  O   UNL d   1      45.453  28.378  58.275  0.00  0.00    -0.265 OA
ATOM     11  C   UNL d   1      45.028  28.626  56.584  0.00  0.00     0.001 C 
ATOM     12  C   UNL d   1      44.347  30.009  55.646  0.00  0.00     0.007 C 
ENDROOT
BRANCH   6  13
ATOM     13  S   UNL d   1      44.944  30.702  59.908  0.00  0.00    -0.043 SA
BRANCH  13  14
ATOM     14  C   UNL d   1      44.784  30.271  60.581  0.00  0.00     0.101 C 
BRANCH  14  15
ATOM     15  C   UNL d   1      44.718  30.671  61.335  0.00  0.00     0.286 C 
ATOM     16  O   UNL d   1      44.726  31.500  61.357  0.00  0.00    -0.265 OA
ATOM     17  N   UNL d   1      44.649  30.235  62.023  0.00  0.00    -0.206 NA
BRANCH  17  18
ATOM     18  C   UNL d   1      44.642  29.415  61.995  0.00  0.00     0.102 C 
BRANCH  18  19
ATOM     19  C   UNL d   1      44.528  28.981  62.677  0.00  0.00     0.021 C 
ATOM     20  C   UNL d   1      44.741  28.184  62.707  0.00  0.00     0.002 C 
ENDBRANCH  18  19
ENDBRANCH  17  18
ENDBRANCH  14  15
ENDBRANCH  13  14
ENDBRANCH   6  13
TORSDOF 5
ENDMDL
MODEL 7
REMARK VINA RESULT:      -5.7      2.276      2.981
REMARK  5 active torsions:
REMARK  status: ('A' for Active; 'I' for Inactive)
REMARK    1  A    between atoms: S_10  and  C_6 
REMARK    2  A    between atoms: C_15  and  S_10 
REMARK    3  A    between atoms: C_12  and  C_15 
REMARK       I    between atoms: N_16  and  C_12 
REMARK    4  A    between atoms: C_14  and  C_20 
REMARK    5  A    between atoms: C_20  and  N_16 
ROOT
ATOM      1  C   UNL d   1      51.253  33.873  52.400  0.00  0.00     0.117 A 
ATOM      2  C   UNL d   1      51.002  34.416  52.953  0.00  0.00     0.082 A 
ATOM      3  N   UNL d   1      52.006  33.515  52.483  0.00  0.00    -0.214 NA
ATOM      4  C   UNL d   1      51.476  34.618  53.589  0.00  0.00     0.283 A 
ATOM      5  N   UNL d   1      52.229  34.261  53.672  0.00  0.00    -0.183 NA
ATOM      6  C   UNL d   1      52.480  33.716  53.116  0.00  0.00     0.198 A 
ATOM      7  S   UNL d   1      50.658  33.789  51.834  0.00  0.00    -0.068 SA
ATOM      8  C   UNL d   1      50.255  34.665  52.727  0.00  0.00     0.013 A 
ATOM      9  C   UNL d   1      50.026  34.280  52.027  0.00  0.00     0.031 A 
ATOM     10  O   UNL d   1      51.208  35.184  54.159  0.00  0.00    -0.265 OA
ATOM     11  C   UNL d   1      49.780  35.223  53.130  0.00  0.00     0.001 C 
ATOM     12  C   UNL d   1      49.299  34.378  51.609  0.00  0.00     0.007 C 
ENDROOT
BRANCH   6  13
ATOM     13  S   UNL d   1      53.229  33.361  53.198  0.00  0.00    -0.043 SA
BRANCH  13  14
ATOM     14  C   UNL d   1      53.281  32.576  53.414  0.00  0.00     0.101 C 
BRANCH  14  15
ATOM     15  C   UNL d   1      54.051  32.223  53.541  0.00  0.00     0.286 C 
ATOM     16  O   UNL d   1      54.720  32.710  53.585  0.00  0.00    -0.265 OA
ATOM     17  N   UNL d   1      54.118  31.412  53.617  0.00  0.00    -0.206 NA
BRANCH  17  18
ATOM     18  C   UNL d   1      53.453  30.934  53.573  0.00  0.00     0.102 C 
BRANCH  18  19
ATOM     19  C   UNL d   1      53.514  30.129  53.698  0.00  0.00     0.021 C 
ATOM     20  C   UNL d   1      52.916  29.619  53.448  0.00  0.00     0.002 C 
ENDBRANCH  18  19
ENDBRANCH  17  18
ENDBRANCH  14  15
ENDBRANCH  13  14
ENDBRANCH   6  13
TORSDOF 5
ENDMDL
MODEL 8
REMARK VINA RESULT:      -5.2      9.952     11.208
REMARK  5 active torsions:
REMARK  status: ('A' for Active; 'I' for Inactive)
REMARK    1  A    between atoms: S_10  and  C_6 
REMARK    2  A    between atoms: C_15  and  S_10 
REMARK    3  A    between atoms: C_12  and  C_15 
REMARK       I    between atoms: N_16  and  C_12 
REMARK    4  A    between atoms: C_14  and  C_20 
REMARK    5  A    between atoms: C_20  and  N_16 
ROOT
ATOM      1  C   UNL d   1      44.940  27.447  57.333  0.00  0.00     0.117 A 
ATOM      2  C   UNL d   1      44.923  26.948  57.977  0.00  0.00     0.082 A 
ATOM      3  N   UNL d   1      45.032  28.271  57.452  0.00  0.00    -0.214 NA
ATOM      4  C   UNL d   1      44.995  27.239  58.738  0.00  0.00     0.283 A 
ATOM      5  N   UNL d   1      45.088  28.063  58.856  0.00  0.00    -0.183 NA
ATOM      6  C   UNL d   1      45.105  28.564  58.209  0.00  0.00     0.198 A 
ATOM      7  S   UNL d   1      44.854  26.990  56.651  0.00  0.00    -0.068 SA
ATOM      8  C   UNL d   1      44.827  26.185  57.690  0.00  0.00     0.013 A 
ATOM      9  C   UNL d   1      44.783  26.197  56.860  0.00  0.00     0.031 A 
ATOM     10  O   UNL d   1      44.977  26.714  59.401  0.00  0.00    -0.265 OA
ATOM     11  C   UNL d   1      44.780  25.489  58.150  0.00  0.00     0.001 C 
ATOM     12  C   UNL d   1      44.685  25.533  56.349  0.00  0.00     0.007 C 
ENDROOT
BRANCH   6  13
ATOM     13  S   UNL d   1      45.197  29.383  58.327  0.00  0.00    -0.043 SA
BRANCH  13  14
ATOM     14  C   UNL d   1      45.015  29.709  59.052  0.00  0.00     0.101 C 
BRANCH  14  15
ATOM     15  C   UNL d   1      45.049  30.559  59.155  0.00  0.00     0.286 C 
ATOM     16  O   UNL d   1      45.207  31.042  58.500  0.00  0.00    -0.265 OA
ATOM     17  N   UNL d   1      44.926  30.884  59.894  0.00  0.00    -0.206 NA
BRANCH  17  18
ATOM     18  C   UNL d   1      44.770  30.403  60.539  0.00  0.00     0.102 C 
BRANCH  18  19
ATOM     19  C   UNL d   1      44.611  30.730  61.270  0.00  0.00     0.021 C 
ATOM     20  C   UNL d   1      44.660  30.272  61.955  0.00  0.00     0.002 C 
ENDBRANCH  18  19
ENDBRANCH  17  18
ENDBRANCH  14  15
ENDBRANCH  13  14
ENDBRANCH   6  13
TORSDOF 5
ENDMDL
