MODEL 1
REMARK VINA RESULT:      32.7      0.000      0.000
REMARK  5 active torsions:
REMARK  status: ('A' for Active; 'I' for Inactive)
REMARK    1  A    between atoms: C_8  and  C_1 
REMARK    2  A    between atoms: N_4  and  C_2 
REMARK       I    between atoms: C_6  and  N_4 
REMARK    3  A    between atoms: C_11  and  C_6 
REMARK    4  A    between atoms: O_12  and  C_8 
REMARK    5  A    between atoms: C_17  and  O_12 
ROOT
ATOM      1  C   UNL d   1      13.667  14.088  -3.608  0.00  0.00     0.181 A 
ATOM      2  C   UNL d   1      13.494  13.321  -3.337  0.00  0.00     0.115 A 
ATOM      3  O   UNL d   1      13.514  14.097  -4.422  0.00  0.00    -0.300 OA
ATOM      4  C   UNL d   1      13.242  12.876  -3.975  0.00  0.00     0.043 A 
ATOM      5  C   UNL d   1      13.253  13.354  -4.649  0.00  0.00     0.102 A 
ATOM      6  C   UNL d   1      13.000  12.089  -4.033  0.00  0.00     0.004 A 
ATOM      7  C   UNL d   1      13.025  13.046  -5.373  0.00  0.00     0.025 A 
ATOM      8  C   UNL d   1      12.769  11.780  -4.767  0.00  0.00     0.000 A 
ATOM      9  C   UNL d   1      12.784  12.266  -5.437  0.00  0.00     0.002 A 
ENDROOT
BRANCH   2  10
ATOM     10  N   UNL d   1      13.567  13.057  -2.551  0.00  0.00    -0.206 NA
ATOM     11  C   UNL d   1      14.188  12.557  -2.343  0.00  0.00     0.279 C 
ATOM     12  O   UNL d   1      14.736  12.317  -2.909  0.00  0.00    -0.265 OA
BRANCH  11  13
ATOM     13  C   UNL d   1      14.259  12.298  -1.567  0.00  0.00     0.058 A 
ATOM     14  C   UNL d   1      15.015  12.204  -1.224  0.00  0.00     0.005 A 
ATOM     15  C   UNL d   1      15.082  11.947  -0.456  0.00  0.00     0.000 A 
ATOM     16  C   UNL d   1      14.404  11.779  -0.017  0.00  0.00     0.000 A 
ATOM     17  C   UNL d   1      13.664  11.872  -0.354  0.00  0.00     0.000 A 
ATOM     18  C   UNL d   1      13.593  12.135  -1.140  0.00  0.00     0.005 A 
ENDBRANCH  11  13
ENDBRANCH   2  10
BRANCH   1  19
ATOM     19  C   UNL d   1      13.940  14.719  -3.151  0.00  0.00     0.325 C 
ATOM     20  O   UNL d   1      13.804  14.726  -2.334  0.00  0.00    -0.257 OA
BRANCH  19  21
ATOM     21  O   UNL d   1      14.342  15.335  -3.509  0.00  0.00    -0.269 OA
BRANCH  21  22
ATOM     22  C   UNL d   1      14.724  15.908  -3.042  0.00  0.00     0.126 C 
ATOM     23  C   UNL d   1      15.011  16.601  -3.398  0.00  0.00     0.029 C 
ENDBRANCH  21  22
ENDBRANCH  19  21
ENDBRANCH   1  19
TORSDOF 5
ENDMDL
