MODEL 1
REMARK VINA RESULT:      24.1      0.000      0.000
REMARK  4 active torsions:
REMARK  status: ('A' for Active; 'I' for Inactive)
REMARK    1  A    between atoms: C_2  and  S_1 
REMARK    2  A    between atoms: N_3  and  S_1 
REMARK    3  A    between atoms: O_13  and  C_7 
REMARK    4  A    between atoms: O_14  and  C_11 
ROOT
ATOM      1  S   UNL d   1      13.932  12.442  -2.277  0.00  0.00     0.273 S 
ATOM      2  O   UNL d   1      14.118  13.194  -2.570  0.00  0.00    -0.200 OA
ATOM      3  O   UNL d   1      13.486  11.917  -2.738  0.00  0.00    -0.200 OA
ENDROOT
BRANCH   1   4
ATOM      4  C   UNL d   1      13.676  12.670  -3.021  0.00  0.00     0.128 A 
ATOM      5  C   UNL d   1      13.398  12.114  -3.563  0.00  0.00     0.039 A 
ATOM      6  C   UNL d   1      13.141  12.344  -4.311  0.00  0.00     0.095 A 
ATOM      7  C   UNL d   1      13.165  13.139  -4.513  0.00  0.00     0.026 A 
ATOM      8  C   UNL d   1      13.439  13.698  -3.985  0.00  0.00     0.027 A 
ATOM      9  C   UNL d   1      13.695  13.467  -3.237  0.00  0.00     0.106 A 
BRANCH   6  10
ATOM     10  O   UNL d   1      12.865  11.780  -4.845  0.00  0.00    -0.328 OA
ATOM     11  C   UNL d   1      13.074  11.827  -5.640  0.00  0.00     0.181 C 
ENDBRANCH   6  10
BRANCH   9  12
ATOM     12  O   UNL d   1      13.971  14.026  -2.703  0.00  0.00    -0.327 OA
ATOM     13  C   UNL d   1      13.929  14.829  -2.894  0.00  0.00     0.181 C 
ENDBRANCH   9  12
ENDBRANCH   1   4
BRANCH   1  14
ATOM     14  N   UNL d   1      14.196  12.220  -1.522  0.00  0.00    -0.232 N 
ATOM     15  C   UNL d   1      15.007  12.218  -1.360  0.00  0.00     0.075 A 
ATOM     16  C   UNL d   1      15.269  11.995  -0.605  0.00  0.00     0.018 A 
ATOM     17  C   UNL d   1      15.553  12.434  -1.939  0.00  0.00     0.020 C 
ATOM     18  C   UNL d   1      14.723  11.779  -0.027  0.00  0.00     0.003 A 
ATOM     19  C   UNL d   1      13.908  11.784  -0.196  0.00  0.00     0.018 A 
ATOM     20  C   UNL d   1      13.643  12.005  -0.948  0.00  0.00     0.075 A 
ATOM     21  C   UNL d   1      12.840  12.010  -1.118  0.00  0.00     0.020 C 
ENDBRANCH   1  14
TORSDOF 4
ENDMDL
