MODEL 1
REMARK VINA RESULT:      76.4      0.000      0.000
REMARK  5 active torsions:
REMARK  status: ('A' for Active; 'I' for Inactive)
REMARK    1  A    between atoms: C_10  and  N_1 
REMARK    2  A    between atoms: C_7  and  C_2 
REMARK    3  A    between atoms: C_3  and  C_11 
REMARK    4  A    between atoms: O_14  and  C_10 
REMARK    5  A    between atoms: C_11  and  O_14 
ROOT
ATOM      1  C   UNL d   1      60.932  48.838  50.532  0.00  0.00     0.305 C 
ATOM      2  O   UNL d   1      61.255  49.353  49.968  0.00  0.00    -0.259 OA
ENDROOT
BRANCH   1   3
ATOM      3  C   UNL d   1      60.611  49.135  51.228  0.00  0.00     0.108 A 
ATOM      4  C   UNL d   1      59.854  49.460  51.317  0.00  0.00     0.118 A 
ATOM      5  N   UNL d   1      59.757  49.689  52.098  0.00  0.00    -0.126 NA
ATOM      6  O   UNL d   1      60.464  49.503  52.496  0.00  0.00    -0.211 OA
ATOM      7  C   UNL d   1      60.985  49.163  51.956  0.00  0.00     0.132 A 
ATOM      8  C   UNL d   1      61.741  48.901  52.123  0.00  0.00     0.029 C 
BRANCH   4   9
ATOM      9  C   UNL d   1      59.288  49.542  50.723  0.00  0.00     0.058 A 
ATOM     10  C   UNL d   1      58.489  49.543  50.911  0.00  0.00     0.061 A 
ATOM     11 CL   UNL d   1      57.876  49.491  51.528  0.00  0.00    -0.082 Cl
ATOM     12  C   UNL d   1      57.922  49.624  50.324  0.00  0.00     0.012 A 
ATOM     13  C   UNL d   1      58.160  49.705  49.542  0.00  0.00     0.003 A 
ATOM     14  C   UNL d   1      58.973  49.705  49.342  0.00  0.00     0.030 A 
ATOM     15  C   UNL d   1      59.526  49.623  49.936  0.00  0.00     0.142 A 
ATOM     16  F   UNL d   1      60.328  49.621  49.756  0.00  0.00    -0.204 F 
ENDBRANCH   4   9
ENDBRANCH   1   3
BRANCH   1  17
ATOM     17  O   UNL d   1      60.933  48.018  50.391  0.00  0.00    -0.252 OA
BRANCH  17  18
ATOM     18  C   UNL d   1      61.654  47.614  50.316  0.00  0.00     0.216 C 
BRANCH  18  19
ATOM     19  N   UNL d   1      61.662  46.838  50.027  0.00  0.00    -0.218 N 
ATOM     20  C   UNL d   1      61.165  46.230  50.261  0.00  0.00     0.269 A 
ATOM     21  C   UNL d   1      61.363  45.551  49.834  0.00  0.00     0.061 A 
ATOM     22  O   UNL d   1      60.562  46.286  50.831  0.00  0.00    -0.267 OA
ATOM     23  C   UNL d   1      61.057  44.784  49.835  0.00  0.00     0.005 A 
ATOM     24  C   UNL d   1      61.994  45.746  49.329  0.00  0.00     0.061 A 
ATOM     25  C   UNL d   1      61.377  44.214  49.336  0.00  0.00     0.000 A 
ATOM     26  C   UNL d   1      62.009  44.409  48.831  0.00  0.00     0.000 A 
ATOM     27  C   UNL d   1      62.314  45.172  48.828  0.00  0.00     0.005 A 
ATOM     28  C   UNL d   1      62.185  46.545  49.444  0.00  0.00     0.269 A 
ATOM     29  O   UNL d   1      62.773  46.970  49.061  0.00  0.00    -0.267 OA
ENDBRANCH  18  19
ENDBRANCH  17  18
ENDBRANCH   1  17
TORSDOF 5
ENDMDL
