MODEL 1
REMARK VINA RESULT:      57.1      0.000      0.000
REMARK  4 active torsions:
REMARK  status: ('A' for Active; 'I' for Inactive)
REMARK    1  A    between atoms: C_2  and  C_1 
REMARK    2  A    between atoms: N_8  and  C_3 
REMARK    3  A    between atoms: C_15  and  N_8 
REMARK    4  A    between atoms: O_18  and  C_16 
ROOT
ATOM      1  C   UNL d   1     -58.539 -98.757 -44.509  0.00  0.00     0.077 A 
ATOM      2  C   UNL d   1     -57.750 -98.756 -44.268  0.00  0.00     0.185 A 
ATOM      3  C   UNL d   1     -59.141 -98.758 -43.951  0.00  0.00     0.009 A 
ATOM      4  O   UNL d   1     -57.563 -98.756 -43.468  0.00  0.00    -0.289 OA
ATOM      5  C   UNL d   1     -58.956 -98.758 -43.145  0.00  0.00     0.025 A 
ATOM      6  C   UNL d   1     -58.167 -98.757 -42.904  0.00  0.00     0.102 A 
ATOM      7  C   UNL d   1     -59.551 -98.759 -42.609  0.00  0.00     0.026 A 
ATOM      8  C   UNL d   1     -57.974 -98.757 -42.126  0.00  0.00     0.027 A 
ATOM      9  C   UNL d   1     -59.369 -98.759 -41.798  0.00  0.00     0.094 A 
ATOM     10  C   UNL d   1     -58.580 -98.758 -41.556  0.00  0.00     0.026 A 
ENDROOT
BRANCH   1  11
ATOM     11  C   UNL d   1     -58.721 -98.757 -45.302  0.00  0.00     0.166 A 
ATOM     12  N   UNL d   1     -58.187 -98.758 -45.890  0.00  0.00    -0.225 NA
ATOM     13  C   UNL d   1     -58.559 -98.757 -46.593  0.00  0.00     0.101 A 
ATOM     14  C   UNL d   1     -58.310 -98.758 -47.387  0.00  0.00     0.021 A 
ATOM     15  C   UNL d   1     -59.376 -98.756 -46.422  0.00  0.00     0.101 A 
ATOM     16  C   UNL d   1     -58.896 -98.757 -47.993  0.00  0.00     0.002 A 
ATOM     17  C   UNL d   1     -59.709 -98.756 -47.808  0.00  0.00     0.002 A 
ATOM     18  C   UNL d   1     -59.956 -98.755 -47.064  0.00  0.00     0.021 A 
ATOM     19  N   UNL d   1     -59.459 -98.756 -45.594  0.00  0.00    -0.225 NA
ENDBRANCH   1  11
BRANCH   2  20
ATOM     20  N   UNL d   1     -57.146 -98.755 -44.832  0.00  0.00    -0.222 NA
BRANCH  20  21
ATOM     21  C   UNL d   1     -56.450 -99.150 -44.683  0.00  0.00     0.084 A 
ATOM     22  C   UNL d   1     -55.743 -98.764 -44.799  0.00  0.00     0.019 A 
ATOM     23  C   UNL d   1     -55.053 -99.156 -44.651  0.00  0.00     0.002 A 
ATOM     24  C   UNL d   1     -55.045 -99.928 -44.388  0.00  0.00     0.000 A 
ATOM     25  C   UNL d   1     -55.763-100.301 -44.277  0.00  0.00     0.002 A 
ATOM     26  C   UNL d   1     -56.474 -99.910 -44.425  0.00  0.00     0.019 A 
ENDBRANCH  20  21
ENDBRANCH   2  20
BRANCH   9  27
ATOM     27  O   UNL d   1     -59.960 -98.760 -41.254  0.00  0.00    -0.328 OA
ATOM     28  C   UNL d   1     -59.808 -98.940 -40.499  0.00  0.00     0.181 C 
ENDBRANCH   9  27
TORSDOF 4
ENDMDL
