MODEL 1
REMARK VINA RESULT:      -7.8      0.000      0.000
REMARK  9 active torsions:
REMARK  status: ('A' for Active; 'I' for Inactive)
REMARK    1  A    between atoms: N_2  and  S_1 
REMARK    2  A    between atoms: C_12  and  S_1 
REMARK    3  A    between atoms: C_4  and  N_2 
REMARK    4  A    between atoms: N_6  and  C_8 
REMARK       I    between atoms: C_9  and  N_6 
REMARK    5  A    between atoms: O_22  and  C_7 
REMARK    6  A    between atoms: C_8  and  N_15 
REMARK    7  A    between atoms: C_16  and  C_9 
REMARK    8  A    between atoms: O_23  and  C_10 
REMARK    9  A    between atoms: N_15  and  C_21 
ROOT
ATOM      1  C   UNL d   1      51.244  34.230  52.590  0.00  0.00     0.105 A 
ATOM      2  C   UNL d   1      51.025  34.125  51.819  0.00  0.00     0.015 A 
ATOM      3  C   UNL d   1      50.674  34.351  53.170  0.00  0.00     0.015 A 
ATOM      4  C   UNL d   1      49.653  34.262  52.191  0.00  0.00     0.084 A 
ATOM      5  C   UNL d   1      50.244  34.137  51.596  0.00  0.00     0.020 A 
ATOM      6  C   UNL d   1      49.889  34.366  52.966  0.00  0.00     0.020 A 
ENDROOT
BRANCH   1   7
ATOM      7  S   UNL d   1      52.049  34.217  52.813  0.00  0.00     0.287 S 
ATOM      8  O   UNL d   1      52.251  34.037  52.018  0.00  0.00    -0.198 OA
ATOM      9  O   UNL d   1      51.841  34.392  53.588  0.00  0.00    -0.198 OA
BRANCH   7  10
ATOM     10  N   UNL d   1      52.857  34.198  53.011  0.00  0.00    -0.139 NA
BRANCH  10  11
ATOM     11  C   UNL d   1      53.195  33.550  53.404  0.00  0.00     0.182 A 
ATOM     12  N   UNL d   1      53.197  32.830  53.060  0.00  0.00    -0.185 NA
ATOM     13  C   UNL d   1      53.530  32.176  53.441  0.00  0.00     0.274 A 
ATOM     14  N   UNL d   1      53.857  32.261  54.167  0.00  0.00    -0.181 NA
ATOM     15  C   UNL d   1      53.869  32.987  54.543  0.00  0.00     0.185 A 
ATOM     16  C   UNL d   1      53.516  33.664  54.133  0.00  0.00     0.084 A 
BRANCH  13  17
ATOM     17  O   UNL d   1      53.533  31.416  53.079  0.00  0.00    -0.297 OA
ATOM     18  C   UNL d   1      52.926  30.882  53.215  0.00  0.00     0.185 C 
ENDBRANCH  13  17
BRANCH  15  19
ATOM     19  O   UNL d   1      54.214  33.039  55.292  0.00  0.00    -0.312 OA
ATOM     20  C   UNL d   1      54.859  33.538  55.415  0.00  0.00     0.183 C 
ENDBRANCH  15  19
ENDBRANCH  10  11
ENDBRANCH   7  10
ENDBRANCH   1   7
BRANCH   4  21
ATOM     21  N   UNL d   1      48.847  34.280  52.003  0.00  0.00    -0.217 NA
BRANCH  21  22
ATOM     22  C   UNL d   1      48.555  34.884  51.554  0.00  0.00     0.223 C 
ATOM     23  S   UNL d   1      48.751  34.938  50.745  0.00  0.00    -0.037 SA
BRANCH  22  24
ATOM     24  N   UNL d   1      48.068  35.441  51.896  0.00  0.00    -0.183 NA
ATOM     25  C   UNL d   1      47.287  35.518  51.663  0.00  0.00     0.257 C 
ATOM     26  O   UNL d   1      46.988  35.008  51.059  0.00  0.00    -0.270 OA
BRANCH  25  27
ATOM     27  C   UNL d   1      46.794  36.082  52.008  0.00  0.00     0.073 C 
ATOM     28  C   UNL d   1      46.137  35.581  51.888  0.00  0.00     0.009 C 
ATOM     29  C   UNL d   1      47.448  36.581  52.128  0.00  0.00     0.009 C 
ATOM     30  C   UNL d   1      46.296  36.650  52.356  0.00  0.00     0.009 C 
ENDBRANCH  25  27
ENDBRANCH  22  24
ENDBRANCH  21  22
ENDBRANCH   4  21
TORSDOF 9
ENDMDL
MODEL 2
REMARK VINA RESULT:      -7.6      0.339      1.423
REMARK  9 active torsions:
REMARK  status: ('A' for Active; 'I' for Inactive)
REMARK    1  A    between atoms: N_2  and  S_1 
REMARK    2  A    between atoms: C_12  and  S_1 
REMARK    3  A    between atoms: C_4  and  N_2 
REMARK    4  A    between atoms: N_6  and  C_8 
REMARK       I    between atoms: C_9  and  N_6 
REMARK    5  A    between atoms: O_22  and  C_7 
REMARK    6  A    between atoms: C_8  and  N_15 
REMARK    7  A    between atoms: C_16  and  C_9 
REMARK    8  A    between atoms: O_23  and  C_10 
REMARK    9  A    between atoms: N_15  and  C_21 
ROOT
ATOM      1  C   UNL d   1      51.309  34.230  52.626  0.00  0.00     0.105 A 
ATOM      2  C   UNL d   1      51.051  34.082  51.874  0.00  0.00     0.015 A 
ATOM      3  C   UNL d   1      50.771  34.399  53.223  0.00  0.00     0.015 A 
ATOM      4  C   UNL d   1      49.702  34.269  52.301  0.00  0.00     0.084 A 
ATOM      5  C   UNL d   1      50.261  34.095  51.688  0.00  0.00     0.020 A 
ATOM      6  C   UNL d   1      49.977  34.417  53.057  0.00  0.00     0.020 A 
ENDROOT
BRANCH   1   7
ATOM      7  S   UNL d   1      52.124  34.215  52.810  0.00  0.00     0.287 S 
ATOM      8  O   UNL d   1      52.276  33.902  52.047  0.00  0.00    -0.198 OA
ATOM      9  O   UNL d   1      51.965  34.521  53.556  0.00  0.00    -0.198 OA
BRANCH   7  10
ATOM     10  N   UNL d   1      52.940  34.190  52.971  0.00  0.00    -0.139 NA
BRANCH  10  11
ATOM     11  C   UNL d   1      53.279  33.573  53.411  0.00  0.00     0.182 A 
ATOM     12  N   UNL d   1      53.536  33.705  54.154  0.00  0.00    -0.185 NA
ATOM     13  C   UNL d   1      53.876  33.099  54.602  0.00  0.00     0.274 A 
ATOM     14  N   UNL d   1      53.950  32.365  54.290  0.00  0.00    -0.181 NA
ATOM     15  C   UNL d   1      53.695  32.201  53.531  0.00  0.00     0.185 A 
ATOM     16  C   UNL d   1      53.341  32.845  53.072  0.00  0.00     0.084 A 
BRANCH  13  17
ATOM     17  O   UNL d   1      54.148  33.237  55.388  0.00  0.00    -0.297 OA
ATOM     18  C   UNL d   1      54.837  33.657  55.527  0.00  0.00     0.185 C 
ENDBRANCH  13  17
BRANCH  15  19
ATOM     19  O   UNL d   1      53.787  31.433  53.239  0.00  0.00    -0.312 OA
ATOM     20  C   UNL d   1      53.184  30.879  53.338  0.00  0.00     0.183 C 
ENDBRANCH  15  19
ENDBRANCH  10  11
ENDBRANCH   7  10
ENDBRANCH   1   7
BRANCH   4  21
ATOM     21  N   UNL d   1      48.888  34.292  52.152  0.00  0.00    -0.217 NA
BRANCH  21  22
ATOM     22  C   UNL d   1      48.579  34.894  51.713  0.00  0.00     0.223 C 
ATOM     23  S   UNL d   1      48.752  34.952  50.898  0.00  0.00    -0.037 SA
BRANCH  22  24
ATOM     24  N   UNL d   1      48.098  35.448  52.069  0.00  0.00    -0.183 NA
ATOM     25  C   UNL d   1      47.326  35.556  51.823  0.00  0.00     0.257 C 
ATOM     26  O   UNL d   1      47.028  35.083  51.189  0.00  0.00    -0.270 OA
BRANCH  25  27
ATOM     27  C   UNL d   1      46.839  36.116  52.183  0.00  0.00     0.073 C 
ATOM     28  C   UNL d   1      47.469  36.664  52.183  0.00  0.00     0.009 C 
ATOM     29  C   UNL d   1      46.211  35.570  52.184  0.00  0.00     0.009 C 
ATOM     30  C   UNL d   1      46.348  36.680  52.547  0.00  0.00     0.009 C 
ENDBRANCH  25  27
ENDBRANCH  22  24
ENDBRANCH  21  22
ENDBRANCH   4  21
TORSDOF 9
ENDMDL
MODEL 3
REMARK VINA RESULT:      -7.2      1.421      6.494
REMARK  9 active torsions:
REMARK  status: ('A' for Active; 'I' for Inactive)
REMARK    1  A    between atoms: N_2  and  S_1 
REMARK    2  A    between atoms: C_12  and  S_1 
REMARK    3  A    between atoms: C_4  and  N_2 
REMARK    4  A    between atoms: N_6  and  C_8 
REMARK       I    between atoms: C_9  and  N_6 
REMARK    5  A    between atoms: O_22  and  C_7 
REMARK    6  A    between atoms: C_8  and  N_15 
REMARK    7  A    between atoms: C_16  and  C_9 
REMARK    8  A    between atoms: O_23  and  C_10 
REMARK    9  A    between atoms: N_15  and  C_21 
ROOT
ATOM      1  C   UNL d   1      49.222  35.123  52.622  0.00  0.00     0.105 A 
ATOM      2  C   UNL d   1      49.540  35.096  53.365  0.00  0.00     0.015 A 
ATOM      3  C   UNL d   1      49.523  34.647  52.025  0.00  0.00     0.015 A 
ATOM      4  C   UNL d   1      50.475  34.110  52.927  0.00  0.00     0.084 A 
ATOM      5  C   UNL d   1      50.161  34.603  53.540  0.00  0.00     0.020 A 
ATOM      6  C   UNL d   1      50.143  34.148  52.181  0.00  0.00     0.020 A 
ENDROOT
BRANCH   1   7
ATOM      7  S   UNL d   1      48.583  35.633  52.448  0.00  0.00     0.287 S 
ATOM      8  O   UNL d   1      48.693  36.002  53.194  0.00  0.00    -0.198 OA
ATOM      9  O   UNL d   1      48.483  35.266  51.721  0.00  0.00    -0.198 OA
BRANCH   7  10
ATOM     10  N   UNL d   1      47.950  36.152  52.297  0.00  0.00    -0.139 NA
BRANCH  10  11
ATOM     11  C   UNL d   1      47.161  35.915  52.393  0.00  0.00     0.182 A 
ATOM     12  N   UNL d   1      46.825  35.924  53.117  0.00  0.00    -0.185 NA
ATOM     13  C   UNL d   1      46.040  35.691  53.226  0.00  0.00     0.274 A 
ATOM     14  N   UNL d   1      45.603  35.451  52.598  0.00  0.00    -0.181 NA
ATOM     15  C   UNL d   1      45.921  35.432  51.845  0.00  0.00     0.185 A 
ATOM     16  C   UNL d   1      46.746  35.679  51.745  0.00  0.00     0.084 A 
BRANCH  13  17
ATOM     17  O   UNL d   1      45.684  35.699  53.989  0.00  0.00    -0.297 OA
ATOM     18  C   UNL d   1      45.337  36.381  54.285  0.00  0.00     0.185 C 
ENDBRANCH  13  17
BRANCH  15  19
ATOM     19  O   UNL d   1      45.444  35.180  51.220  0.00  0.00    -0.312 OA
ATOM     20  C   UNL d   1      45.152  35.728  50.676  0.00  0.00     0.183 C 
ENDBRANCH  15  19
ENDBRANCH  10  11
ENDBRANCH   7  10
ENDBRANCH   1   7
BRANCH   4  21
ATOM     21  N   UNL d   1      51.107  33.593  53.066  0.00  0.00    -0.217 NA
BRANCH  21  22
ATOM     22  C   UNL d   1      51.858  33.885  53.112  0.00  0.00     0.223 C 
ATOM     23  S   UNL d   1      52.168  34.348  52.490  0.00  0.00    -0.037 SA
BRANCH  22  24
ATOM     24  N   UNL d   1      52.313  33.726  53.769  0.00  0.00    -0.183 NA
ATOM     25  C   UNL d   1      53.025  33.329  53.703  0.00  0.00     0.257 C 
ATOM     26  O   UNL d   1      53.288  33.083  52.939  0.00  0.00    -0.270 OA
BRANCH  25  27
ATOM     27  C   UNL d   1      53.486  33.167  54.368  0.00  0.00     0.073 C 
ATOM     28  C   UNL d   1      53.490  32.356  54.169  0.00  0.00     0.009 C 
ATOM     29  C   UNL d   1      53.481  33.975  54.567  0.00  0.00     0.009 C 
ATOM     30  C   UNL d   1      53.950  33.004  55.039  0.00  0.00     0.009 C 
ENDBRANCH  25  27
ENDBRANCH  22  24
ENDBRANCH  21  22
ENDBRANCH   4  21
TORSDOF 9
ENDMDL
MODEL 4
REMARK VINA RESULT:      -7.2      1.422      6.253
REMARK  9 active torsions:
REMARK  status: ('A' for Active; 'I' for Inactive)
REMARK    1  A    between atoms: N_2  and  S_1 
REMARK    2  A    between atoms: C_12  and  S_1 
REMARK    3  A    between atoms: C_4  and  N_2 
REMARK    4  A    between atoms: N_6  and  C_8 
REMARK       I    between atoms: C_9  and  N_6 
REMARK    5  A    between atoms: O_22  and  C_7 
REMARK    6  A    between atoms: C_8  and  N_15 
REMARK    7  A    between atoms: C_16  and  C_9 
REMARK    8  A    between atoms: O_23  and  C_10 
REMARK    9  A    between atoms: N_15  and  C_21 
ROOT
ATOM      1  C   UNL d   1      50.314  34.344  52.459  0.00  0.00     0.105 A 
ATOM      2  C   UNL d   1      50.601  34.391  53.214  0.00  0.00     0.015 A 
ATOM      3  C   UNL d   1      50.819  34.178  51.833  0.00  0.00     0.015 A 
ATOM      4  C   UNL d   1      51.914  34.105  52.730  0.00  0.00     0.084 A 
ATOM      5  C   UNL d   1      51.389  34.277  53.373  0.00  0.00     0.020 A 
ATOM      6  C   UNL d   1      51.609  34.061  51.973  0.00  0.00     0.020 A 
ENDROOT
BRANCH   1   7
ATOM      7  S   UNL d   1      49.502  34.463  52.302  0.00  0.00     0.287 S 
ATOM      8  O   UNL d   1      49.709  34.792  51.558  0.00  0.00    -0.198 OA
ATOM      9  O   UNL d   1      49.310  34.139  53.032  0.00  0.00    -0.198 OA
BRANCH   7  10
ATOM     10  N   UNL d   1      48.699  34.591  52.123  0.00  0.00    -0.139 NA
BRANCH  10  11
ATOM     11  C   UNL d   1      48.304  35.280  52.363  0.00  0.00     0.182 A 
ATOM     12  N   UNL d   1      48.506  35.640  53.046  0.00  0.00    -0.185 NA
ATOM     13  C   UNL d   1      48.120  36.328  53.296  0.00  0.00     0.274 A 
ATOM     14  N   UNL d   1      47.534  36.641  52.849  0.00  0.00    -0.181 NA
ATOM     15  C   UNL d   1      47.306  36.294  52.146  0.00  0.00     0.185 A 
ATOM     16  C   UNL d   1      47.719  35.574  51.895  0.00  0.00     0.084 A 
BRANCH  13  17
ATOM     17  O   UNL d   1      48.332  36.709  54.016  0.00  0.00    -0.297 OA
ATOM     18  C   UNL d   1      47.831  36.694  54.664  0.00  0.00     0.185 C 
ENDBRANCH  13  17
BRANCH  15  19
ATOM     19  O   UNL d   1      46.698  36.643  51.710  0.00  0.00    -0.312 OA
ATOM     20  C   UNL d   1      45.939  36.320  51.728  0.00  0.00     0.183 C 
ENDBRANCH  15  19
ENDBRANCH  10  11
ENDBRANCH   7  10
ENDBRANCH   1   7
BRANCH   4  21
ATOM     21  N   UNL d   1      52.724  33.983  52.852  0.00  0.00    -0.217 NA
BRANCH  21  22
ATOM     22  C   UNL d   1      52.971  33.342  53.275  0.00  0.00     0.223 C 
ATOM     23  S   UNL d   1      52.868  32.572  52.969  0.00  0.00    -0.037 SA
BRANCH  22  24
ATOM     24  N   UNL d   1      53.322  33.449  54.002  0.00  0.00    -0.183 NA
ATOM     25  C   UNL d   1      54.092  33.207  54.139  0.00  0.00     0.257 C 
ATOM     26  O   UNL d   1      54.523  32.839  53.512  0.00  0.00    -0.270 OA
BRANCH  25  27
ATOM     27  C   UNL d   1      54.447  33.316  54.876  0.00  0.00     0.073 C 
ATOM     28  C   UNL d   1      53.905  32.780  55.217  0.00  0.00     0.009 C 
ATOM     29  C   UNL d   1      54.988  33.849  54.536  0.00  0.00     0.009 C 
ATOM     30  C   UNL d   1      54.806  33.426  55.618  0.00  0.00     0.009 C 
ENDBRANCH  25  27
ENDBRANCH  22  24
ENDBRANCH  21  22
ENDBRANCH   4  21
TORSDOF 9
ENDMDL
