MODEL 1
REMARK VINA RESULT:      -8.9      0.000      0.000
REMARK  3 active torsions:
REMARK  status: ('A' for Active; 'I' for Inactive)
REMARK    1  A    between atoms: S_2  and  N_1 
REMARK    2  A    between atoms: C_8  and  S_2 
REMARK       I    between atoms: C_14  and  N_15 
REMARK    3  A    between atoms: N_15  and  C_19 
ROOT
ATOM      1  S   UNL d   1     -47.952  13.937  22.645  0.00  0.00     0.273 S 
ATOM      2  O   UNL d   1     -47.435  13.919  23.288  0.00  0.00    -0.200 OA
ATOM      3  O   UNL d   1     -47.691  13.704  21.902  0.00  0.00    -0.200 OA
ENDROOT
BRANCH   1   4
ATOM      4  N   UNL d   1     -48.731  14.185  22.742  0.00  0.00    -0.212 N 
ATOM      5  C   UNL d   1     -49.314  13.652  22.981  0.00  0.00     0.094 A 
ATOM      6  C   UNL d   1     -50.094  13.910  23.076  0.00  0.00     0.100 A 
ATOM      7  C   UNL d   1     -49.121  12.859  23.125  0.00  0.00     0.020 A 
ATOM      8  C   UNL d   1     -50.686  13.376  23.316  0.00  0.00     0.021 A 
ATOM      9  N   UNL d   1     -49.711  15.238  22.694  0.00  0.00    -0.223 NA
ATOM     10  C   UNL d   1     -50.487  12.576  23.461  0.00  0.00     0.002 A 
ATOM     11  C   UNL d   1     -49.704  12.327  23.364  0.00  0.00     0.002 A 
ATOM     12  C   UNL d   1     -51.064  12.045  23.698  0.00  0.00     0.000 C 
ATOM     13  C   UNL d   1     -49.501  11.542  23.504  0.00  0.00     0.000 C 
ATOM     14  C   UNL d   1     -48.927  14.979  22.598  0.00  0.00     0.193 A 
ENDBRANCH   1   4
BRANCH   1  15
ATOM     15  C   UNL d   1     -47.176  13.685  22.533  0.00  0.00     0.104 A 
ATOM     16  C   UNL d   1     -46.589  13.909  23.058  0.00  0.00     0.014 A 
ATOM     17  C   UNL d   1     -45.814  13.656  22.942  0.00  0.00     0.020 A 
ATOM     18  C   UNL d   1     -45.630  13.175  22.294  0.00  0.00     0.085 A 
ATOM     19  C   UNL d   1     -46.226  12.955  21.771  0.00  0.00     0.020 A 
ATOM     20  C   UNL d   1     -46.997  13.204  21.883  0.00  0.00     0.014 A 
BRANCH  18  21
ATOM     21  N   UNL d   1     -44.856  12.928  22.187  0.00  0.00    -0.208 NA
ATOM     22  C   UNL d   1     -44.615  12.206  22.502  0.00  0.00     0.279 C 
ATOM     23  O   UNL d   1     -43.840  11.947  22.400  0.00  0.00    -0.265 OA
ATOM     24  C   UNL d   1     -45.145  11.736  22.922  0.00  0.00     0.068 C 
ENDBRANCH  18  21
ENDBRANCH   1  15
TORSDOF 3
ENDMDL
MODEL 2
REMARK VINA RESULT:      -8.6      1.277      1.987
REMARK  3 active torsions:
REMARK  status: ('A' for Active; 'I' for Inactive)
REMARK    1  A    between atoms: S_2  and  N_1 
REMARK    2  A    between atoms: C_8  and  S_2 
REMARK       I    between atoms: C_14  and  N_15 
REMARK    3  A    between atoms: N_15  and  C_19 
ROOT
ATOM      1  S   UNL d   1     -48.678  12.708  23.102  0.00  0.00     0.273 S 
ATOM      2  O   UNL d   1     -48.115  12.801  23.698  0.00  0.00    -0.200 OA
ATOM      3  O   UNL d   1     -48.437  12.587  22.325  0.00  0.00    -0.200 OA
ENDROOT
BRANCH   1   4
ATOM      4  N   UNL d   1     -49.481  12.734  23.278  0.00  0.00    -0.212 N 
ATOM      5  C   UNL d   1     -49.865  13.458  23.374  0.00  0.00     0.094 A 
ATOM      6  C   UNL d   1     -50.673  13.477  23.551  0.00  0.00     0.100 A 
ATOM      7  C   UNL d   1     -49.444  14.168  23.294  0.00  0.00     0.020 A 
ATOM      8  C   UNL d   1     -51.064  14.205  23.649  0.00  0.00     0.021 A 
ATOM      9  N   UNL d   1     -50.717  12.044  23.537  0.00  0.00    -0.223 NA
ATOM     10  C   UNL d   1     -50.636  14.920  23.567  0.00  0.00     0.002 A 
ATOM     11  C   UNL d   1     -49.828  14.892  23.390  0.00  0.00     0.002 A 
ATOM     12  C   UNL d   1     -51.015  15.640  23.662  0.00  0.00     0.000 C 
ATOM     13  C   UNL d   1     -49.400  15.589  23.308  0.00  0.00     0.000 C 
ATOM     14  C   UNL d   1     -49.906  12.025  23.359  0.00  0.00     0.193 A 
ENDBRANCH   1   4
BRANCH   1  15
ATOM     15  C   UNL d   1     -47.878  12.678  22.910  0.00  0.00     0.104 A 
ATOM     16  C   UNL d   1     -47.319  12.524  23.489  0.00  0.00     0.014 A 
ATOM     17  C   UNL d   1     -46.520  12.495  23.293  0.00  0.00     0.020 A 
ATOM     18  C   UNL d   1     -46.282  12.623  22.512  0.00  0.00     0.085 A 
ATOM     19  C   UNL d   1     -46.849  12.779  21.935  0.00  0.00     0.020 A 
ATOM     20  C   UNL d   1     -47.644  12.808  22.126  0.00  0.00     0.014 A 
BRANCH  18  21
ATOM     21  N   UNL d   1     -45.485  12.593  22.326  0.00  0.00    -0.208 NA
ATOM     22  C   UNL d   1     -45.073  13.295  22.194  0.00  0.00     0.279 C 
ATOM     23  O   UNL d   1     -44.272  13.278  22.007  0.00  0.00    -0.265 OA
ATOM     24  C   UNL d   1     -45.459  14.021  22.249  0.00  0.00     0.068 C 
ENDBRANCH  18  21
ENDBRANCH   1  15
TORSDOF 3
ENDMDL
MODEL 3
REMARK VINA RESULT:      -7.6      1.596      4.081
REMARK  3 active torsions:
REMARK  status: ('A' for Active; 'I' for Inactive)
REMARK    1  A    between atoms: S_2  and  N_1 
REMARK    2  A    between atoms: C_8  and  S_2 
REMARK       I    between atoms: C_14  and  N_15 
REMARK    3  A    between atoms: N_15  and  C_19 
ROOT
ATOM      1  S   UNL d   1     -46.954  13.827  22.510  0.00  0.00     0.273 S 
ATOM      2  O   UNL d   1     -47.594  13.576  22.054  0.00  0.00    -0.200 OA
ATOM      3  O   UNL d   1     -47.016  14.509  22.965  0.00  0.00    -0.200 OA
ENDROOT
BRANCH   1   4
ATOM      4  N   UNL d   1     -46.251  13.400  22.515  0.00  0.00    -0.212 N 
ATOM      5  C   UNL d   1     -46.231  12.629  22.810  0.00  0.00     0.094 A 
ATOM      6  C   UNL d   1     -45.520  12.206  22.811  0.00  0.00     0.100 A 
ATOM      7  C   UNL d   1     -46.921  12.278  23.105  0.00  0.00     0.020 A 
ATOM      8  C   UNL d   1     -45.496  11.428  23.107  0.00  0.00     0.021 A 
ATOM      9  N   UNL d   1     -44.844  13.324  22.221  0.00  0.00    -0.223 NA
ATOM     10  C   UNL d   1     -46.195  11.077  23.405  0.00  0.00     0.002 A 
ATOM     11  C   UNL d   1     -46.901  11.507  23.400  0.00  0.00     0.002 A 
ATOM     12  C   UNL d   1     -46.177  10.312  23.698  0.00  0.00     0.000 C 
ATOM     13  C   UNL d   1     -47.592  11.169  23.690  0.00  0.00     0.000 C 
ATOM     14  C   UNL d   1     -45.557  13.750  22.220  0.00  0.00     0.193 A 
ENDBRANCH   1   4
BRANCH   1  15
ATOM     15  C   UNL d   1     -47.651  14.266  22.516  0.00  0.00     0.104 A 
ATOM     16  C   UNL d   1     -47.765  14.853  23.075  0.00  0.00     0.014 A 
ATOM     17  C   UNL d   1     -48.463  15.289  23.078  0.00  0.00     0.020 A 
ATOM     18  C   UNL d   1     -49.049  15.133  22.515  0.00  0.00     0.085 A 
ATOM     19  C   UNL d   1     -48.927  14.541  21.956  0.00  0.00     0.020 A 
ATOM     20  C   UNL d   1     -48.234  14.105  21.950  0.00  0.00     0.014 A 
BRANCH  18  21
ATOM     21  N   UNL d   1     -49.741  15.572  22.524  0.00  0.00    -0.208 NA
ATOM     22  C   UNL d   1     -50.323  15.397  23.080  0.00  0.00     0.279 C 
ATOM     23  O   UNL d   1     -51.023  15.831  23.100  0.00  0.00    -0.265 OA
ATOM     24  C   UNL d   1     -50.212  14.786  23.623  0.00  0.00     0.068 C 
ENDBRANCH  18  21
ENDBRANCH   1  15
TORSDOF 3
ENDMDL
MODEL 4
REMARK VINA RESULT:      -6.9      8.204      9.544
REMARK  3 active torsions:
REMARK  status: ('A' for Active; 'I' for Inactive)
REMARK    1  A    between atoms: S_2  and  N_1 
REMARK    2  A    between atoms: C_8  and  S_2 
REMARK       I    between atoms: C_14  and  N_15 
REMARK    3  A    between atoms: N_15  and  C_19 
ROOT
ATOM      1  S   UNL d   1     -40.008  15.100  19.301  0.00  0.00     0.273 S 
ATOM      2  O   UNL d   1     -39.463  15.598  18.932  0.00  0.00    -0.200 OA
ATOM      3  O   UNL d   1     -40.312  14.453  18.896  0.00  0.00    -0.200 OA
ENDROOT
BRANCH   1   4
ATOM      4  N   UNL d   1     -40.250  15.246  20.074  0.00  0.00    -0.212 N 
ATOM      5  C   UNL d   1     -39.873  14.876  20.708  0.00  0.00     0.094 A 
ATOM      6  C   UNL d   1     -40.122  15.027  21.482  0.00  0.00     0.100 A 
ATOM      7  C   UNL d   1     -39.245  14.352  20.572  0.00  0.00     0.020 A 
ATOM      8  C   UNL d   1     -39.745  14.656  22.125  0.00  0.00     0.021 A 
ATOM      9  N   UNL d   1     -41.129  15.922  20.991  0.00  0.00    -0.223 NA
ATOM     10  C   UNL d   1     -39.111  14.128  21.983  0.00  0.00     0.002 A 
ATOM     11  C   UNL d   1     -38.868  13.982  21.206  0.00  0.00     0.002 A 
ATOM     12  C   UNL d   1     -38.735  13.760  22.611  0.00  0.00     0.000 C 
ATOM     13  C   UNL d   1     -38.246  13.465  21.059  0.00  0.00     0.000 C 
ATOM     14  C   UNL d   1     -40.879  15.770  20.214  0.00  0.00     0.193 A 
ENDBRANCH   1   4
BRANCH   1  15
ATOM     15  C   UNL d   1     -39.775  14.941  18.528  0.00  0.00     0.104 A 
ATOM     16  C   UNL d   1     -39.145  15.345  18.194  0.00  0.00     0.014 A 
ATOM     17  C   UNL d   1     -38.915  15.184  17.420  0.00  0.00     0.020 A 
ATOM     18  C   UNL d   1     -39.321  14.613  16.980  0.00  0.00     0.085 A 
ATOM     19  C   UNL d   1     -39.953  14.211  17.322  0.00  0.00     0.020 A 
ATOM     20  C   UNL d   1     -40.185  14.369  18.091  0.00  0.00     0.014 A 
BRANCH  18  21
ATOM     21  N   UNL d   1     -39.086  14.459  16.211  0.00  0.00    -0.208 NA
ATOM     22  C   UNL d   1     -38.529  13.869  16.069  0.00  0.00     0.279 C 
ATOM     23  O   UNL d   1     -38.284  13.705  15.300  0.00  0.00    -0.265 OA
ATOM     24  C   UNL d   1     -38.210  13.437  16.694  0.00  0.00     0.068 C 
ENDBRANCH  18  21
ENDBRANCH   1  15
TORSDOF 3
ENDMDL
MODEL 5
REMARK VINA RESULT:      -6.8      8.343      9.768
REMARK  3 active torsions:
REMARK  status: ('A' for Active; 'I' for Inactive)
REMARK    1  A    between atoms: S_2  and  N_1 
REMARK    2  A    between atoms: C_8  and  S_2 
REMARK       I    between atoms: C_14  and  N_15 
REMARK    3  A    between atoms: N_15  and  C_19 
ROOT
ATOM      1  S   UNL d   1     -40.148  15.278  18.942  0.00  0.00     0.273 S 
ATOM      2  O   UNL d   1     -40.421  14.664  19.420  0.00  0.00    -0.200 OA
ATOM      3  O   UNL d   1     -39.762  15.921  19.279  0.00  0.00    -0.200 OA
ENDROOT
BRANCH   1   4
ATOM      4  N   UNL d   1     -40.258  15.254  18.126  0.00  0.00    -0.212 N 
ATOM      5  C   UNL d   1     -39.737  14.832  17.646  0.00  0.00     0.094 A 
ATOM      6  C   UNL d   1     -39.854  14.812  16.827  0.00  0.00     0.100 A 
ATOM      7  C   UNL d   1     -39.095  14.428  17.980  0.00  0.00     0.020 A 
ATOM      8  C   UNL d   1     -39.330  14.387  16.338  0.00  0.00     0.021 A 
ATOM      9  N   UNL d   1     -41.018  15.637  16.966  0.00  0.00    -0.223 NA
ATOM     10  C   UNL d   1     -38.683  13.980  16.680  0.00  0.00     0.002 A 
ATOM     11  C   UNL d   1     -38.573  14.006  17.499  0.00  0.00     0.002 A 
ATOM     12  C   UNL d   1     -38.165  13.561  16.205  0.00  0.00     0.000 C 
ATOM     13  C   UNL d   1     -37.940  13.609  17.843  0.00  0.00     0.000 C 
ATOM     14  C   UNL d   1     -40.900  15.658  17.788  0.00  0.00     0.193 A 
ENDBRANCH   1   4
BRANCH   1  15
ATOM     15  C   UNL d   1     -40.030  15.317  19.755  0.00  0.00     0.104 A 
ATOM     16  C   UNL d   1     -40.436  14.812  20.257  0.00  0.00     0.014 A 
ATOM     17  C   UNL d   1     -40.315  14.854  21.070  0.00  0.00     0.020 A 
ATOM     18  C   UNL d   1     -39.784  15.407  21.380  0.00  0.00     0.085 A 
ATOM     19  C   UNL d   1     -39.380  15.912  20.870  0.00  0.00     0.020 A 
ATOM     20  C   UNL d   1     -39.497  15.873  20.061  0.00  0.00     0.014 A 
BRANCH  18  21
ATOM     21  N   UNL d   1     -39.670  15.442  22.191  0.00  0.00    -0.208 NA
ATOM     22  C   UNL d   1     -39.042  15.030  22.529  0.00  0.00     0.279 C 
ATOM     23  O   UNL d   1     -38.917  15.058  23.342  0.00  0.00    -0.265 OA
ATOM     24  C   UNL d   1     -38.532  14.587  22.058  0.00  0.00     0.068 C 
ENDBRANCH  18  21
ENDBRANCH   1  15
TORSDOF 3
ENDMDL
