MODEL 1
REMARK VINA RESULT:      46.0      0.000      0.000
REMARK  3 active torsions:
REMARK  status: ('A' for Active; 'I' for Inactive)
REMARK    1  A    between atoms: C_8  and  N_2 
REMARK    2  A    between atoms: C_6  and  C_3 
REMARK    3  A    between atoms: C_7  and  C_4 
ROOT
ATOM      1  N   UNL d   1     -52.102  24.728  33.426  0.00  0.00    -0.159 NA
ATOM      2  N   UNL d   1     -51.461  25.146  33.753  0.00  0.00    -0.234 N 
ATOM      3  C   UNL d   1     -52.782  25.115  33.629  0.00  0.00     0.167 A 
ATOM      4  C   UNL d   1     -51.760  25.787  34.155  0.00  0.00     0.062 A 
ATOM      5  C   UNL d   1     -52.581  25.775  34.083  0.00  0.00     0.042 A 
ENDROOT
BRANCH   2   6
ATOM      6  C   UNL d   1     -50.676  24.912  33.660  0.00  0.00     0.083 A 
ATOM      7  C   UNL d   1     -50.112  25.444  33.398  0.00  0.00     0.019 A 
ATOM      8  C   UNL d   1     -49.336  25.206  33.307  0.00  0.00     0.002 A 
ATOM      9  C   UNL d   1     -49.118  24.439  33.476  0.00  0.00     0.000 A 
ATOM     10  C   UNL d   1     -49.682  23.907  33.738  0.00  0.00     0.002 A 
ATOM     11  C   UNL d   1     -50.467  24.142  33.831  0.00  0.00     0.019 A 
ENDBRANCH   2   6
BRANCH   4  12
ATOM     12  C   UNL d   1     -51.323  26.363  34.570  0.00  0.00     0.036 C 
ATOM     13  C   UNL d   1     -50.885  26.938  34.985  0.00  0.00     0.006 C 
ATOM     14  C   UNL d   1     -51.116  26.726  33.848  0.00  0.00     0.006 C 
ATOM     15  C   UNL d   1     -51.532  25.997  35.289  0.00  0.00     0.006 C 
ENDBRANCH   4  12
BRANCH   3  16
ATOM     16  C   UNL d   1     -53.551  24.888  33.419  0.00  0.00     0.231 C 
ATOM     17  O   UNL d   1     -53.734  24.089  33.322  0.00  0.00    -0.643 OA
ATOM     18  O   UNL d   1     -54.126  25.464  33.307  0.00  0.00    -0.643 OA
ENDBRANCH   3  16
TORSDOF 3
ENDMDL
MODEL 2
REMARK VINA RESULT:      46.5      2.035      2.734
REMARK  3 active torsions:
REMARK  status: ('A' for Active; 'I' for Inactive)
REMARK    1  A    between atoms: C_8  and  N_2 
REMARK    2  A    between atoms: C_6  and  C_3 
REMARK    3  A    between atoms: C_7  and  C_4 
ROOT
ATOM      1  N   UNL d   1     -50.231  26.605  33.563  0.00  0.00    -0.159 NA
ATOM      2  N   UNL d   1     -50.862  26.062  33.557  0.00  0.00    -0.234 N 
ATOM      3  C   UNL d   1     -50.543  27.350  33.544  0.00  0.00     0.167 A 
ATOM      4  C   UNL d   1     -51.556  26.486  33.535  0.00  0.00     0.062 A 
ATOM      5  C   UNL d   1     -51.367  27.288  33.526  0.00  0.00     0.042 A 
ENDROOT
BRANCH   2   6
ATOM      6  C   UNL d   1     -50.754  25.245  33.573  0.00  0.00     0.083 A 
ATOM      7  C   UNL d   1     -50.053  24.924  33.849  0.00  0.00     0.019 A 
ATOM      8  C   UNL d   1     -49.952  24.114  33.862  0.00  0.00     0.002 A 
ATOM      9  C   UNL d   1     -50.545  23.620  33.601  0.00  0.00     0.000 A 
ATOM     10  C   UNL d   1     -51.246  23.940  33.325  0.00  0.00     0.002 A 
ATOM     11  C   UNL d   1     -51.354  24.758  33.310  0.00  0.00     0.019 A 
ENDBRANCH   2   6
BRANCH   4  12
ATOM     12  C   UNL d   1     -52.330  26.175  33.523  0.00  0.00     0.036 C 
ATOM     13  C   UNL d   1     -53.102  25.863  33.510  0.00  0.00     0.006 C 
ATOM     14  C   UNL d   1     -52.025  25.428  33.310  0.00  0.00     0.006 C 
ATOM     15  C   UNL d   1     -52.629  26.923  33.736  0.00  0.00     0.006 C 
ENDBRANCH   4  12
BRANCH   3  16
ATOM     16  C   UNL d   1     -50.110  28.057  33.542  0.00  0.00     0.231 C 
ATOM     17  O   UNL d   1     -50.471  28.762  33.307  0.00  0.00    -0.643 OA
ATOM     18  O   UNL d   1     -49.323  28.049  33.775  0.00  0.00    -0.643 OA
ENDBRANCH   3  16
TORSDOF 3
ENDMDL
