MODEL 1
REMARK VINA RESULT:      -9.1      0.000      0.000
REMARK  2 active torsions:
REMARK  status: ('A' for Active; 'I' for Inactive)
REMARK       I    between atoms: C_3  and  N_1 
REMARK       I    between atoms: C_4  and  N_2 
REMARK    1  A    between atoms: C_6  and  C_3 
REMARK    2  A    between atoms: C_8  and  C_4 
ROOT
ATOM      1  N   UNL d   1     -47.612  12.236  23.061  0.00  0.00    -0.270 N 
ATOM      2  N   UNL d   1     -49.253  12.349  22.872  0.00  0.00    -0.269 N 
ATOM      3  C   UNL d   1     -46.797  12.180  23.154  0.00  0.00     0.265 C 
ATOM      4  C   UNL d   1     -50.072  12.402  22.780  0.00  0.00     0.265 C 
ATOM      5  C   UNL d   1     -48.106  11.626  23.329  0.00  0.00     0.085 A 
ATOM      6  C   UNL d   1     -48.921  11.674  23.239  0.00  0.00     0.101 A 
ATOM      7  C   UNL d   1     -47.945  12.900  22.699  0.00  0.00     0.102 A 
ATOM      8  C   UNL d   1     -48.773  12.957  22.604  0.00  0.00     0.102 A 
ATOM      9  O   UNL d   1     -46.464  11.512  23.517  0.00  0.00    -0.267 OA
ATOM     10  O   UNL d   1     -50.563  11.787  23.051  0.00  0.00    -0.267 OA
ATOM     11  C   UNL d   1     -47.773  10.954  23.694  0.00  0.00     0.021 C 
ENDROOT
BRANCH   3  12
ATOM     12  C   UNL d   1     -46.309  12.786  22.887  0.00  0.00     0.057 A 
ATOM     13  C   UNL d   1     -45.724  12.629  22.326  0.00  0.00     0.005 A 
ATOM     14  C   UNL d   1     -45.235  13.237  22.058  0.00  0.00     0.000 A 
ATOM     15  C   UNL d   1     -44.650  13.080  21.496  0.00  0.00     0.000 C 
ATOM     16  C   UNL d   1     -45.331  14.001  22.352  0.00  0.00     0.000 A 
ATOM     17  C   UNL d   1     -45.921  14.159  22.919  0.00  0.00     0.000 A 
ATOM     18  C   UNL d   1     -46.404  13.551  23.180  0.00  0.00     0.005 A 
ENDBRANCH   3  12
BRANCH   4  19
ATOM     19  C   UNL d   1     -50.402  13.066  22.419  0.00  0.00     0.057 A 
ATOM     20  C   UNL d   1     -50.565  13.737  22.872  0.00  0.00     0.005 A 
ATOM     21  C   UNL d   1     -50.895  14.400  22.511  0.00  0.00     0.000 A 
ATOM     22  C   UNL d   1     -51.061  15.075  22.957  0.00  0.00     0.000 C 
ATOM     23  C   UNL d   1     -51.061  14.393  21.696  0.00  0.00     0.000 A 
ATOM     24  C   UNL d   1     -50.898  13.727  21.250  0.00  0.00     0.000 A 
ATOM     25  C   UNL d   1     -50.565  13.054  21.611  0.00  0.00     0.005 A 
ENDBRANCH   4  19
TORSDOF 2
ENDMDL
MODEL 2
REMARK VINA RESULT:      -8.3      1.563      4.842
REMARK  2 active torsions:
REMARK  status: ('A' for Active; 'I' for Inactive)
REMARK       I    between atoms: C_3  and  N_1 
REMARK       I    between atoms: C_4  and  N_2 
REMARK    1  A    between atoms: C_6  and  C_3 
REMARK    2  A    between atoms: C_8  and  C_4 
ROOT
ATOM      1  N   UNL d   1     -48.988  14.406  22.512  0.00  0.00    -0.270 N 
ATOM      2  N   UNL d   1     -47.338  14.410  22.646  0.00  0.00    -0.269 N 
ATOM      3  C   UNL d   1     -49.808  14.405  22.446  0.00  0.00     0.265 C 
ATOM      4  C   UNL d   1     -46.515  14.416  22.712  0.00  0.00     0.265 C 
ATOM      5  C   UNL d   1     -48.576  15.124  22.571  0.00  0.00     0.085 A 
ATOM      6  C   UNL d   1     -47.757  15.135  22.637  0.00  0.00     0.101 A 
ATOM      7  C   UNL d   1     -48.569  13.695  22.521  0.00  0.00     0.102 A 
ATOM      8  C   UNL d   1     -47.737  13.697  22.588  0.00  0.00     0.102 A 
ATOM      9  O   UNL d   1     -50.227  15.120  22.437  0.00  0.00    -0.267 OA
ATOM     10  O   UNL d   1     -46.107  15.139  22.771  0.00  0.00    -0.267 OA
ATOM     11  C   UNL d   1     -48.996  15.845  22.562  0.00  0.00     0.021 C 
ENDROOT
BRANCH   3  12
ATOM     12  C   UNL d   1     -50.215  13.691  22.387  0.00  0.00     0.057 A 
ATOM     13  C   UNL d   1     -50.436  13.284  23.072  0.00  0.00     0.005 A 
ATOM     14  C   UNL d   1     -50.843  12.570  23.014  0.00  0.00     0.000 A 
ATOM     15  C   UNL d   1     -51.064  12.163  23.698  0.00  0.00     0.000 C 
ATOM     16  C   UNL d   1     -51.030  12.262  22.272  0.00  0.00     0.000 A 
ATOM     17  C   UNL d   1     -50.807  12.673  21.582  0.00  0.00     0.000 A 
ATOM     18  C   UNL d   1     -50.402  13.383  21.646  0.00  0.00     0.005 A 
ENDBRANCH   3  12
BRANCH   4  19
ATOM     19  C   UNL d   1     -46.099  13.704  22.721  0.00  0.00     0.057 A 
ATOM     20  C   UNL d   1     -45.497  13.578  22.170  0.00  0.00     0.005 A 
ATOM     21  C   UNL d   1     -45.081  12.867  22.179  0.00  0.00     0.000 A 
ATOM     22  C   UNL d   1     -44.477  12.733  21.631  0.00  0.00     0.000 C 
ATOM     23  C   UNL d   1     -45.269  12.280  22.738  0.00  0.00     0.000 A 
ATOM     24  C   UNL d   1     -45.866  12.409  23.282  0.00  0.00     0.000 A 
ATOM     25  C   UNL d   1     -46.288  13.126  23.277  0.00  0.00     0.005 A 
ENDBRANCH   4  19
TORSDOF 2
ENDMDL
MODEL 3
REMARK VINA RESULT:      -7.4      8.808     10.280
REMARK  2 active torsions:
REMARK  status: ('A' for Active; 'I' for Inactive)
REMARK       I    between atoms: C_3  and  N_1 
REMARK       I    between atoms: C_4  and  N_2 
REMARK    1  A    between atoms: C_6  and  C_3 
REMARK    2  A    between atoms: C_8  and  C_4 
ROOT
ATOM      1  N   UNL d   1     -40.140  15.335  18.050  0.00  0.00    -0.270 N 
ATOM      2  N   UNL d   1     -40.329  15.518  19.685  0.00  0.00    -0.269 N 
ATOM      3  C   UNL d   1     -40.046  15.244  17.238  0.00  0.00     0.265 C 
ATOM      4  C   UNL d   1     -40.427  15.610  20.500  0.00  0.00     0.265 C 
ATOM      5  C   UNL d   1     -40.845  15.645  18.356  0.00  0.00     0.085 A 
ATOM      6  C   UNL d   1     -40.948  15.739  19.166  0.00  0.00     0.101 A 
ATOM      7  C   UNL d   1     -39.533  15.118  18.567  0.00  0.00     0.102 A 
ATOM      8  C   UNL d   1     -39.629  15.210  19.391  0.00  0.00     0.102 A 
ATOM      9  O   UNL d   1     -40.656  15.463  16.721  0.00  0.00    -0.267 OA
ATOM     10  O   UNL d   1     -41.137  15.922  20.801  0.00  0.00    -0.267 OA
ATOM     11  C   UNL d   1     -41.460  15.866  17.838  0.00  0.00     0.021 C 
ENDROOT
BRANCH   3  12
ATOM     12  C   UNL d   1     -39.344  14.936  16.937  0.00  0.00     0.057 A 
ATOM     13  C   UNL d   1     -39.221  14.119  16.931  0.00  0.00     0.005 A 
ATOM     14  C   UNL d   1     -38.518  13.810  16.629  0.00  0.00     0.000 A 
ATOM     15  C   UNL d   1     -38.394  12.993  16.624  0.00  0.00     0.000 C 
ATOM     16  C   UNL d   1     -37.940  14.317  16.333  0.00  0.00     0.000 A 
ATOM     17  C   UNL d   1     -38.065  15.142  16.339  0.00  0.00     0.000 A 
ATOM     18  C   UNL d   1     -38.765  15.442  16.640  0.00  0.00     0.005 A 
ENDBRANCH   3  12
BRANCH   4  19
ATOM     19  C   UNL d   1     -39.820  15.393  21.013  0.00  0.00     0.057 A 
ATOM     20  C   UNL d   1     -39.834  14.646  21.367  0.00  0.00     0.005 A 
ATOM     21  C   UNL d   1     -39.227  14.429  21.880  0.00  0.00     0.000 A 
ATOM     22  C   UNL d   1     -39.234  13.684  22.238  0.00  0.00     0.000 C 
ATOM     23  C   UNL d   1     -38.605  14.958  22.039  0.00  0.00     0.000 A 
ATOM     24  C   UNL d   1     -38.595  15.696  21.687  0.00  0.00     0.000 A 
ATOM     25  C   UNL d   1     -39.206  15.919  21.168  0.00  0.00     0.005 A 
ENDBRANCH   4  19
TORSDOF 2
ENDMDL
MODEL 4
REMARK VINA RESULT:      -6.9      1.583      4.647
REMARK  2 active torsions:
REMARK  status: ('A' for Active; 'I' for Inactive)
REMARK       I    between atoms: C_3  and  N_1 
REMARK       I    between atoms: C_4  and  N_2 
REMARK    1  A    between atoms: C_6  and  C_3 
REMARK    2  A    between atoms: C_8  and  C_4 
ROOT
ATOM      1  N   UNL d   1     -48.119  14.443  22.703  0.00  0.00    -0.270 N 
ATOM      2  N   UNL d   1     -46.835  13.442  23.003  0.00  0.00    -0.269 N 
ATOM      3  C   UNL d   1     -48.757  14.940  22.554  0.00  0.00     0.265 C 
ATOM      4  C   UNL d   1     -46.191  12.946  23.152  0.00  0.00     0.265 C 
ATOM      5  C   UNL d   1     -47.344  14.738  22.671  0.00  0.00     0.085 A 
ATOM      6  C   UNL d   1     -46.701  14.248  22.819  0.00  0.00     0.101 A 
ATOM      7  C   UNL d   1     -48.244  13.648  22.886  0.00  0.00     0.102 A 
ATOM      8  C   UNL d   1     -47.597  13.143  23.037  0.00  0.00     0.102 A 
ATOM      9  O   UNL d   1     -48.629  15.739  22.372  0.00  0.00    -0.267 OA
ATOM     10  O   UNL d   1     -45.417  13.247  23.119  0.00  0.00    -0.267 OA
ATOM     11  C   UNL d   1     -47.213  15.541  22.488  0.00  0.00     0.021 C 
ENDROOT
BRANCH   3  12
ATOM     12  C   UNL d   1     -49.525  14.646  22.587  0.00  0.00     0.057 A 
ATOM     13  C   UNL d   1     -49.857  14.283  21.923  0.00  0.00     0.005 A 
ATOM     14  C   UNL d   1     -50.626  13.988  21.955  0.00  0.00     0.000 A 
ATOM     15  C   UNL d   1     -50.958  13.625  21.291  0.00  0.00     0.000 C 
ATOM     16  C   UNL d   1     -51.063  14.056  22.650  0.00  0.00     0.000 A 
ATOM     17  C   UNL d   1     -50.728  14.422  23.320  0.00  0.00     0.000 A 
ATOM     18  C   UNL d   1     -49.963  14.713  23.282  0.00  0.00     0.005 A 
ENDBRANCH   3  12
BRANCH   4  19
ATOM     19  C   UNL d   1     -46.320  12.152  23.334  0.00  0.00     0.057 A 
ATOM     20  C   UNL d   1     -45.676  11.638  23.390  0.00  0.00     0.005 A 
ATOM     21  C   UNL d   1     -45.804  10.845  23.572  0.00  0.00     0.000 A 
ATOM     22  C   UNL d   1     -45.165  10.325  23.630  0.00  0.00     0.000 C 
ATOM     23  C   UNL d   1     -46.577  10.565  23.697  0.00  0.00     0.000 A 
ATOM     24  C   UNL d   1     -47.213  11.077  23.641  0.00  0.00     0.000 A 
ATOM     25  C   UNL d   1     -47.087  11.879  23.457  0.00  0.00     0.005 A 
ENDBRANCH   4  19
TORSDOF 2
ENDMDL
