MODEL 1
REMARK VINA RESULT:     121.9      0.000      0.000
REMARK  4 active torsions:
REMARK  status: ('A' for Active; 'I' for Inactive)
REMARK    1  A    between atoms: C_6  and  C_1 
REMARK       I    between atoms: N_7  and  C_1 
REMARK    2  A    between atoms: N_3  and  C_5 
REMARK    3  A    between atoms: C_19  and  N_7 
REMARK    4  A    between atoms: C_8  and  C_10 
ROOT
ATOM      1  C   UNL d   1      61.972  44.415  49.789  0.00  0.00     0.019 A 
ATOM      2  C   UNL d   1      62.467  42.902  49.356  0.00  0.00     0.085 A 
ATOM      3  C   UNL d   1      61.576  44.003  49.204  0.00  0.00     0.003 A 
ATOM      4  C   UNL d   1      62.623  44.070  50.163  0.00  0.00     0.003 A 
ATOM      5  C   UNL d   1      61.824  43.246  48.987  0.00  0.00     0.019 A 
ATOM      6  C   UNL d   1      62.870  43.314  49.947  0.00  0.00     0.019 A 
ENDROOT
BRANCH   1   7
ATOM      7  C   UNL d   1      61.725  45.172  50.006  0.00  0.00     0.103 A 
ATOM      8  N   UNL d   1      62.018  45.830  49.610  0.00  0.00    -0.147 NA
ATOM      9  N   UNL d   1      61.770  46.586  49.827  0.00  0.00    -0.130 NA
ATOM     10  C   UNL d   1      61.230  46.685  50.439  0.00  0.00     0.169 A 
ATOM     11  C   UNL d   1      60.935  46.024  50.837  0.00  0.00     0.041 A 
ATOM     12  C   UNL d   1      61.182  45.267  50.620  0.00  0.00     0.024 A 
BRANCH  10  13
ATOM     13  N   UNL d   1      60.982  47.441  50.656  0.00  0.00    -0.288 N 
ATOM     14  C   UNL d   1      60.553  47.552  51.347  0.00  0.00     0.082 A 
ATOM     15  C   UNL d   1      60.305  48.309  51.564  0.00  0.00     0.019 A 
ATOM     16  C   UNL d   1      60.487  48.955  51.089  0.00  0.00     0.003 A 
ATOM     17  C   UNL d   1      60.919  48.844  50.394  0.00  0.00     0.019 A 
ATOM     18  C   UNL d   1      60.236  49.708  51.313  0.00  0.00     0.000 C 
ATOM     19  C   UNL d   1      61.167  48.088  50.177  0.00  0.00     0.082 A 
ENDBRANCH  10  13
ENDBRANCH   1   7
BRANCH   2  20
ATOM     20  N   UNL d   1      62.715  42.145  49.139  0.00  0.00    -0.206 NA
ATOM     21  C   UNL d   1      62.868  41.580  49.716  0.00  0.00     0.302 C 
ATOM     22  O   UNL d   1      63.117  40.819  49.499  0.00  0.00    -0.263 OA
BRANCH  21  23
ATOM     23  C   UNL d   1      62.773  41.771  50.514  0.00  0.00     0.158 A 
ATOM     24  O   UNL d   1      62.197  41.388  50.964  0.00  0.00    -0.300 OA
ATOM     25  C   UNL d   1      62.231  41.690  51.737  0.00  0.00     0.123 A 
ATOM     26  C   UNL d   1      62.828  42.258  51.757  0.00  0.00     0.029 A 
ATOM     27  C   UNL d   1      63.158  42.304  51.007  0.00  0.00     0.032 A 
ENDBRANCH  21  23
ENDBRANCH   2  20
TORSDOF 4
ENDMDL
