MODEL 1
REMARK VINA RESULT:      -2.3      0.000      0.000
REMARK  2 active torsions:
REMARK  status: ('A' for Active; 'I' for Inactive)
REMARK    1  A    between atoms: C_9  and  N_1 
REMARK    2  A    between atoms: C_8  and  N_2 
ROOT
ATOM      1  N   UNL d   1      29.732  17.299 -24.588  0.00  0.00    -0.208 N 
ATOM      2  N   UNL d   1      30.559  17.302 -24.614  0.00  0.00    -0.208 N 
ATOM      3  C   UNL d   1      30.812  18.022 -24.927  0.00  0.00     0.284 A 
ATOM      4  C   UNL d   1      29.469  18.023 -24.888  0.00  0.00     0.284 A 
ATOM      5  C   UNL d   1      30.136  18.469 -25.097  0.00  0.00     0.125 A 
ATOM      6  O   UNL d   1      31.588  18.253 -25.048  0.00  0.00    -0.265 OA
ATOM      7  O   UNL d   1      28.677  18.262 -24.966  0.00  0.00    -0.265 OA
ENDROOT
BRANCH   1   8
ATOM      8  C   UNL d   1      29.256  16.687 -24.315  0.00  0.00     0.085 A 
ATOM      9  C   UNL d   1      29.032  16.660 -23.514  0.00  0.00     0.019 A 
ATOM     10  C   UNL d   1      28.555  16.048 -23.237  0.00  0.00     0.002 A 
ATOM     11  C   UNL d   1      28.296  15.453 -23.763  0.00  0.00     0.000 A 
ATOM     12  C   UNL d   1      28.521  15.483 -24.562  0.00  0.00     0.002 A 
ATOM     13  C   UNL d   1      29.002  16.102 -24.833  0.00  0.00     0.019 A 
ENDBRANCH   1   8
BRANCH   2  14
ATOM     14  C   UNL d   1      31.046  16.685 -24.367  0.00  0.00     0.085 A 
ATOM     15  C   UNL d   1      31.261  16.087 -24.893  0.00  0.00     0.019 A 
ATOM     16  C   UNL d   1      31.746  15.473 -24.647  0.00  0.00     0.002 A 
ATOM     17  C   UNL d   1      32.023  15.453 -23.861  0.00  0.00     0.000 A 
ATOM     18  C   UNL d   1      31.807  16.050 -23.335  0.00  0.00     0.002 A 
ATOM     19  C   UNL d   1      31.321  16.663 -23.590  0.00  0.00     0.019 A 
ENDBRANCH   2  14
TORSDOF 2
ENDMDL
MODEL 2
REMARK VINA RESULT:      -2.0      0.233      2.512
REMARK  2 active torsions:
REMARK  status: ('A' for Active; 'I' for Inactive)
REMARK    1  A    between atoms: C_9  and  N_1 
REMARK    2  A    between atoms: C_8  and  N_2 
ROOT
ATOM      1  N   UNL d   1      30.772  17.324 -24.652  0.00  0.00    -0.208 N 
ATOM      2  N   UNL d   1      29.945  17.328 -24.631  0.00  0.00    -0.208 N 
ATOM      3  C   UNL d   1      29.676  18.058 -24.904  0.00  0.00     0.284 A 
ATOM      4  C   UNL d   1      31.018  18.059 -24.941  0.00  0.00     0.284 A 
ATOM      5  C   UNL d   1      30.341  18.511 -25.097  0.00  0.00     0.125 A 
ATOM      6  O   UNL d   1      28.894  18.293 -24.973  0.00  0.00    -0.265 OA
ATOM      7  O   UNL d   1      31.805  18.301 -25.056  0.00  0.00    -0.265 OA
ENDROOT
BRANCH   1   8
ATOM      8  C   UNL d   1      31.262  16.704 -24.426  0.00  0.00     0.085 A 
ATOM      9  C   UNL d   1      31.547  16.662 -23.646  0.00  0.00     0.019 A 
ATOM     10  C   UNL d   1      32.039  16.041 -23.417  0.00  0.00     0.002 A 
ATOM     11  C   UNL d   1      32.250  15.453 -23.971  0.00  0.00     0.000 A 
ATOM     12  C   UNL d   1      31.963  15.498 -24.750  0.00  0.00     0.002 A 
ATOM     13  C   UNL d   1      31.469  16.126 -24.973  0.00  0.00     0.019 A 
ENDBRANCH   1   8
BRANCH   2  14
ATOM     14  C   UNL d   1      29.472  16.703 -24.377  0.00  0.00     0.085 A 
ATOM     15  C   UNL d   1      29.159  16.169 -24.923  0.00  0.00     0.019 A 
ATOM     16  C   UNL d   1      28.688  15.546 -24.670  0.00  0.00     0.002 A 
ATOM     17  C   UNL d   1      28.525  15.453 -23.858  0.00  0.00     0.000 A 
ATOM     18  C   UNL d   1      28.837  15.987 -23.313  0.00  0.00     0.002 A 
ATOM     19  C   UNL d   1      29.309  16.608 -23.574  0.00  0.00     0.019 A 
ENDBRANCH   2  14
TORSDOF 2
ENDMDL
MODEL 3
REMARK VINA RESULT:      -2.0      1.549      2.989
REMARK  2 active torsions:
REMARK  status: ('A' for Active; 'I' for Inactive)
REMARK    1  A    between atoms: C_9  and  N_1 
REMARK    2  A    between atoms: C_8  and  N_2 
ROOT
ATOM      1  N   UNL d   1      31.315  16.708 -24.352  0.00  0.00    -0.208 N 
ATOM      2  N   UNL d   1      31.299  17.514 -24.537  0.00  0.00    -0.208 N 
ATOM      3  C   UNL d   1      30.555  17.704 -24.837  0.00  0.00     0.284 A 
ATOM      4  C   UNL d   1      30.573  16.395 -24.539  0.00  0.00     0.284 A 
ATOM      5  C   UNL d   1      30.104  17.010 -24.838  0.00  0.00     0.125 A 
ATOM      6  O   UNL d   1      30.306  18.443 -25.087  0.00  0.00    -0.265 OA
ATOM      7  O   UNL d   1      30.338  15.603 -24.445  0.00  0.00    -0.265 OA
ENDROOT
BRANCH   1   8
ATOM      8  C   UNL d   1      31.951  16.292 -24.040  0.00  0.00     0.085 A 
ATOM      9  C   UNL d   1      32.047  16.237 -23.215  0.00  0.00     0.019 A 
ATOM     10  C   UNL d   1      32.684  15.820 -22.899  0.00  0.00     0.002 A 
ATOM     11  C   UNL d   1      33.234  15.453 -23.409  0.00  0.00     0.000 A 
ATOM     12  C   UNL d   1      33.135  15.510 -24.232  0.00  0.00     0.002 A 
ATOM     13  C   UNL d   1      32.492  15.931 -24.542  0.00  0.00     0.019 A 
ENDBRANCH   1   8
BRANCH   2  14
ATOM     14  C   UNL d   1      31.928  18.038 -24.436  0.00  0.00     0.085 A 
ATOM     15  C   UNL d   1      32.037  18.425 -23.715  0.00  0.00     0.019 A 
ATOM     16  C   UNL d   1      32.662  18.946 -23.615  0.00  0.00     0.002 A 
ATOM     17  C   UNL d   1      33.190  19.086 -24.244  0.00  0.00     0.000 A 
ATOM     18  C   UNL d   1      33.081  18.700 -24.965  0.00  0.00     0.002 A 
ATOM     19  C   UNL d   1      32.452  18.178 -25.057  0.00  0.00     0.019 A 
ENDBRANCH   2  14
TORSDOF 2
ENDMDL
MODEL 4
REMARK VINA RESULT:      -1.3      1.616      2.372
REMARK  2 active torsions:
REMARK  status: ('A' for Active; 'I' for Inactive)
REMARK    1  A    between atoms: C_9  and  N_1 
REMARK    2  A    between atoms: C_8  and  N_2 
ROOT
ATOM      1  N   UNL d   1      30.288  16.379 -23.486  0.00  0.00    -0.208 N 
ATOM      2  N   UNL d   1      31.113  16.452 -23.478  0.00  0.00    -0.208 N 
ATOM      3  C   UNL d   1      31.425  15.883 -22.969  0.00  0.00     0.284 A 
ATOM      4  C   UNL d   1      30.088  15.758 -22.977  0.00  0.00     0.284 A 
ATOM      5  C   UNL d   1      30.790  15.453 -22.658  0.00  0.00     0.125 A 
ATOM      6  O   UNL d   1      32.218  15.764 -22.802  0.00  0.00    -0.265 OA
ATOM      7  O   UNL d   1      29.319  15.489 -22.813  0.00  0.00    -0.265 OA
ENDROOT
BRANCH   1   8
ATOM      8  C   UNL d   1      29.763  16.838 -23.919  0.00  0.00     0.085 A 
ATOM      9  C   UNL d   1      29.495  17.563 -23.614  0.00  0.00     0.019 A 
ATOM     10  C   UNL d   1      28.967  18.026 -24.046  0.00  0.00     0.002 A 
ATOM     11  C   UNL d   1      28.702  17.765 -24.794  0.00  0.00     0.000 A 
ATOM     12  C   UNL d   1      28.972  17.039 -25.096  0.00  0.00     0.002 A 
ATOM     13  C   UNL d   1      29.503  16.579 -24.655  0.00  0.00     0.019 A 
ENDBRANCH   1   8
BRANCH   2  14
ATOM     14  C   UNL d   1      31.546  17.004 -23.910  0.00  0.00     0.085 A 
ATOM     15  C   UNL d   1      31.697  17.753 -23.597  0.00  0.00     0.019 A 
ATOM     16  C   UNL d   1      32.128  18.302 -24.026  0.00  0.00     0.002 A 
ATOM     17  C   UNL d   1      32.415  18.104 -24.784  0.00  0.00     0.000 A 
ATOM     18  C   UNL d   1      32.264  17.356 -25.097  0.00  0.00     0.002 A 
ATOM     19  C   UNL d   1      31.831  16.810 -24.659  0.00  0.00     0.019 A 
ENDBRANCH   2  14
TORSDOF 2
ENDMDL
MODEL 5
REMARK VINA RESULT:      -1.2      1.415      3.401
REMARK  2 active torsions:
REMARK  status: ('A' for Active; 'I' for Inactive)
REMARK    1  A    between atoms: C_9  and  N_1 
REMARK    2  A    between atoms: C_8  and  N_2 
ROOT
ATOM      1  N   UNL d   1      31.303  16.736 -24.518  0.00  0.00    -0.208 N 
ATOM      2  N   UNL d   1      30.489  16.607 -24.603  0.00  0.00    -0.208 N 
ATOM      3  C   UNL d   1      30.366  15.817 -24.808  0.00  0.00     0.284 A 
ATOM      4  C   UNL d   1      31.687  16.020 -24.673  0.00  0.00     0.284 A 
ATOM      5  C   UNL d   1      31.108  15.453 -24.851  0.00  0.00     0.125 A 
ATOM      6  O   UNL d   1      29.642  15.459 -24.944  0.00  0.00    -0.265 OA
ATOM      7  O   UNL d   1      32.507  15.890 -24.652  0.00  0.00    -0.265 OA
ENDROOT
BRANCH   1   8
ATOM      8  C   UNL d   1      31.665  17.445 -24.318  0.00  0.00     0.085 A 
ATOM      9  C   UNL d   1      31.848  18.001 -24.909  0.00  0.00     0.019 A 
ATOM     10  C   UNL d   1      32.211  18.714 -24.711  0.00  0.00     0.002 A 
ATOM     11  C   UNL d   1      32.395  18.878 -23.913  0.00  0.00     0.000 A 
ATOM     12  C   UNL d   1      32.211  18.321 -23.325  0.00  0.00     0.002 A 
ATOM     13  C   UNL d   1      31.846  17.606 -23.532  0.00  0.00     0.019 A 
ENDBRANCH   1   8
BRANCH   2  14
ATOM     14  C   UNL d   1      29.903  17.176 -24.498  0.00  0.00     0.085 A 
ATOM     15  C   UNL d   1      29.741  17.723 -25.095  0.00  0.00     0.019 A 
ATOM     16  C   UNL d   1      29.158  18.290 -24.990  0.00  0.00     0.002 A 
ATOM     17  C   UNL d   1      28.726  18.314 -24.278  0.00  0.00     0.000 A 
ATOM     18  C   UNL d   1      28.888  17.768 -23.681  0.00  0.00     0.002 A 
ATOM     19  C   UNL d   1      29.475  17.202 -23.794  0.00  0.00     0.019 A 
ENDBRANCH   2  14
TORSDOF 2
ENDMDL
