MODEL 1
REMARK VINA RESULT:       8.0      0.000      0.000
REMARK  6 active torsions:
REMARK  status: ('A' for Active; 'I' for Inactive)
REMARK    1  A    between atoms: N_8  and  S_1 
REMARK    2  A    between atoms: C_10  and  S_1 
REMARK    3  A    between atoms: C_2  and  N_6 
REMARK       I    between atoms: N_6  and  C_9 
REMARK    4  A    between atoms: C_9  and  C_15 
REMARK    5  A    between atoms: O_26  and  C_13 
REMARK    6  A    between atoms: O_27  and  C_14 
ROOT
ATOM      1  N   UNL d   1      60.443  -0.747  28.455  0.00  0.00    -0.183 NA
ATOM      2  C   UNL d   1      60.061  -0.077  28.760  0.00  0.00     0.281 C 
ATOM      3  O   UNL d   1      60.275   0.669  28.485  0.00  0.00    -0.265 OA
ENDROOT
BRANCH   2   4
ATOM      4  C   UNL d   1      59.486  -0.171  29.323  0.00  0.00     0.058 A 
ATOM      5  C   UNL d   1      59.681  -0.294  30.110  0.00  0.00     0.005 A 
ATOM      6  C   UNL d   1      59.095  -0.389  30.680  0.00  0.00     0.013 A 
ATOM      7  C   UNL d   1      58.297  -0.361  30.458  0.00  0.00     0.104 A 
ATOM      8  C   UNL d   1      58.093  -0.237  29.665  0.00  0.00     0.013 A 
ATOM      9  C   UNL d   1      58.687  -0.142  29.100  0.00  0.00     0.005 A 
BRANCH   7  10
ATOM     10  S   UNL d   1      57.707  -0.457  31.028  0.00  0.00     0.272 S 
ATOM     11  O   UNL d   1      57.398  -1.093  30.596  0.00  0.00    -0.200 OA
ATOM     12  O   UNL d   1      58.020   0.176  31.453  0.00  0.00    -0.200 OA
BRANCH  10  13
ATOM     13  N   UNL d   1      57.121  -0.549  31.599  0.00  0.00    -0.225 N 
ATOM     14  C   UNL d   1      56.887  -1.299  31.829  0.00  0.00     0.118 A 
ATOM     15  C   UNL d   1      56.297  -1.382  32.402  0.00  0.00     0.142 A 
ATOM     16  O   UNL d   1      55.952  -0.721  32.734  0.00  0.00    -0.300 OA
ATOM     17  C   UNL d   1      56.189   0.031  32.501  0.00  0.00     0.142 A 
ATOM     18  C   UNL d   1      56.771   0.118  31.935  0.00  0.00     0.118 A 
ENDBRANCH  10  13
ENDBRANCH   7  10
ENDBRANCH   2   4
BRANCH   1  19
ATOM     19  C   UNL d   1      60.233  -1.509  28.728  0.00  0.00     0.197 A 
ATOM     20  N   UNL d   1      59.559  -1.934  28.514  0.00  0.00    -0.218 NA
ATOM     21  C   UNL d   1      59.577  -2.652  28.912  0.00  0.00     0.114 A 
ATOM     22  C   UNL d   1      59.065  -3.295  28.921  0.00  0.00     0.112 A 
ATOM     23  C   UNL d   1      60.262  -2.669  29.371  0.00  0.00     0.074 A 
ATOM     24  C   UNL d   1      59.229  -3.956  29.386  0.00  0.00     0.028 A 
ATOM     25  C   UNL d   1      59.922  -3.967  29.847  0.00  0.00     0.027 A 
ATOM     26  C   UNL d   1      60.434  -3.328  29.839  0.00  0.00     0.102 A 
ATOM     27  S   UNL d   1      60.664  -1.954  29.251  0.00  0.00    -0.045 SA
BRANCH  22  28
ATOM     28  O   UNL d   1      58.368  -3.285  28.458  0.00  0.00    -0.327 OA
ATOM     29  C   UNL d   1      57.735  -3.776  28.655  0.00  0.00     0.181 C 
ENDBRANCH  22  28
BRANCH  26  30
ATOM     30  O   UNL d   1      61.130  -3.338  30.302  0.00  0.00    -0.328 OA
ATOM     31  C   UNL d   1      61.126  -3.701  31.041  0.00  0.00     0.181 C 
ENDBRANCH  26  30
ENDBRANCH   1  19
TORSDOF 6
ENDMDL
MODEL 2
REMARK VINA RESULT:       9.5      1.549      2.546
REMARK  6 active torsions:
REMARK  status: ('A' for Active; 'I' for Inactive)
REMARK    1  A    between atoms: N_8  and  S_1 
REMARK    2  A    between atoms: C_10  and  S_1 
REMARK    3  A    between atoms: C_2  and  N_6 
REMARK       I    between atoms: N_6  and  C_9 
REMARK    4  A    between atoms: C_9  and  C_15 
REMARK    5  A    between atoms: O_26  and  C_13 
REMARK    6  A    between atoms: O_27  and  C_14 
ROOT
ATOM      1  N   UNL d   1      60.671   0.080  30.728  0.00  0.00    -0.183 NA
ATOM      2  C   UNL d   1      60.494   0.362  31.488  0.00  0.00     0.281 C 
ATOM      3  O   UNL d   1      61.096   0.681  31.950  0.00  0.00    -0.265 OA
ENDROOT
BRANCH   2   4
ATOM      4  C   UNL d   1      59.732   0.318  31.758  0.00  0.00     0.058 A 
ATOM      5  C   UNL d   1      59.118   0.682  31.355  0.00  0.00     0.005 A 
ATOM      6  C   UNL d   1      58.344   0.636  31.631  0.00  0.00     0.013 A 
ATOM      7  C   UNL d   1      58.181   0.217  32.327  0.00  0.00     0.104 A 
ATOM      8  C   UNL d   1      58.796  -0.153  32.740  0.00  0.00     0.013 A 
ATOM      9  C   UNL d   1      59.569  -0.102  32.455  0.00  0.00     0.005 A 
BRANCH   7  10
ATOM     10  S   UNL d   1      57.406   0.169  32.607  0.00  0.00     0.272 S 
ATOM     11  O   UNL d   1      57.656   0.465  33.341  0.00  0.00    -0.200 OA
ATOM     12  O   UNL d   1      57.163  -0.124  31.877  0.00  0.00    -0.200 OA
BRANCH  10  13
ATOM     13  N   UNL d   1      56.631   0.121  32.883  0.00  0.00    -0.225 N 
ATOM     14  C   UNL d   1      56.373   0.627  33.472  0.00  0.00     0.118 A 
ATOM     15  C   UNL d   1      55.594   0.571  33.743  0.00  0.00     0.142 A 
ATOM     16  O   UNL d   1      55.089   0.015  33.425  0.00  0.00    -0.300 OA
ATOM     17  C   UNL d   1      55.351  -0.492  32.833  0.00  0.00     0.142 A 
ATOM     18  C   UNL d   1      56.119  -0.441  32.562  0.00  0.00     0.118 A 
ENDBRANCH  10  13
ENDBRANCH   7  10
ENDBRANCH   2   4
BRANCH   1  19
ATOM     19  C   UNL d   1      60.066  -0.246  30.250  0.00  0.00     0.197 A 
ATOM     20  N   UNL d   1      59.508   0.178  29.817  0.00  0.00    -0.218 NA
ATOM     21  C   UNL d   1      59.024  -0.362  29.432  0.00  0.00     0.114 A 
ATOM     22  C   UNL d   1      58.380  -0.272  28.928  0.00  0.00     0.112 A 
ATOM     23  C   UNL d   1      59.285  -1.120  29.628  0.00  0.00     0.074 A 
ATOM     24  C   UNL d   1      57.994  -0.932  28.618  0.00  0.00     0.028 A 
ATOM     25  C   UNL d   1      58.263  -1.693  28.821  0.00  0.00     0.027 A 
ATOM     26  C   UNL d   1      58.903  -1.786  29.322  0.00  0.00     0.102 A 
ATOM     27  S   UNL d   1      59.934  -1.038  30.138  0.00  0.00    -0.045 SA
BRANCH  22  28
ATOM     28  O   UNL d   1      58.109   0.492  28.724  0.00  0.00    -0.327 OA
ATOM     29  C   UNL d   1      57.336   0.598  28.456  0.00  0.00     0.181 C 
ENDBRANCH  22  28
BRANCH  26  30
ATOM     30  O   UNL d   1      59.174  -2.550  29.526  0.00  0.00    -0.328 OA
ATOM     31  C   UNL d   1      58.758  -3.213  29.274  0.00  0.00     0.181 C 
ENDBRANCH  26  30
ENDBRANCH   1  19
TORSDOF 6
ENDMDL
MODEL 3
REMARK VINA RESULT:      10.1      1.597      2.336
REMARK  6 active torsions:
REMARK  status: ('A' for Active; 'I' for Inactive)
REMARK    1  A    between atoms: N_8  and  S_1 
REMARK    2  A    between atoms: C_10  and  S_1 
REMARK    3  A    between atoms: C_2  and  N_6 
REMARK       I    between atoms: N_6  and  C_9 
REMARK    4  A    between atoms: C_9  and  C_15 
REMARK    5  A    between atoms: O_26  and  C_13 
REMARK    6  A    between atoms: O_27  and  C_14 
ROOT
ATOM      1  N   UNL d   1      58.577  -0.256  28.596  0.00  0.00    -0.183 NA
ATOM      2  C   UNL d   1      57.999   0.229  28.941  0.00  0.00     0.281 C 
ATOM      3  O   UNL d   1      57.500   0.669  28.456  0.00  0.00    -0.265 OA
ENDROOT
BRANCH   2   4
ATOM      4  C   UNL d   1      57.939   0.261  29.748  0.00  0.00     0.058 A 
ATOM      5  C   UNL d   1      58.501   0.651  30.199  0.00  0.00     0.005 A 
ATOM      6  C   UNL d   1      58.438   0.681  31.019  0.00  0.00     0.013 A 
ATOM      7  C   UNL d   1      57.798   0.314  31.396  0.00  0.00     0.104 A 
ATOM      8  C   UNL d   1      57.226  -0.082  30.947  0.00  0.00     0.013 A 
ATOM      9  C   UNL d   1      57.298  -0.108  30.125  0.00  0.00     0.005 A 
BRANCH   7  10
ATOM     10  S   UNL d   1      57.733   0.343  32.219  0.00  0.00     0.272 S 
ATOM     11  O   UNL d   1      56.922   0.180  32.156  0.00  0.00    -0.200 OA
ATOM     12  O   UNL d   1      58.538   0.504  32.274  0.00  0.00    -0.200 OA
BRANCH  10  13
ATOM     13  N   UNL d   1      57.670   0.373  33.039  0.00  0.00    -0.225 N 
ATOM     14  C   UNL d   1      58.337   0.493  33.498  0.00  0.00     0.118 A 
ATOM     15  C   UNL d   1      58.265   0.521  34.320  0.00  0.00     0.142 A 
ATOM     16  O   UNL d   1      57.534   0.431  34.671  0.00  0.00    -0.300 OA
ATOM     17  C   UNL d   1      56.865   0.311  34.208  0.00  0.00     0.142 A 
ATOM     18  C   UNL d   1      56.932   0.282  33.395  0.00  0.00     0.118 A 
ENDBRANCH  10  13
ENDBRANCH   7  10
ENDBRANCH   2   4
BRANCH   1  19
ATOM     19  C   UNL d   1      59.089  -0.707  29.080  0.00  0.00     0.197 A 
ATOM     20  N   UNL d   1      59.719  -0.415  29.526  0.00  0.00    -0.218 NA
ATOM     21  C   UNL d   1      60.068  -1.048  29.914  0.00  0.00     0.114 A 
ATOM     22  C   UNL d   1      60.707  -1.101  30.428  0.00  0.00     0.112 A 
ATOM     23  C   UNL d   1      59.653  -1.731  29.707  0.00  0.00     0.074 A 
ATOM     24  C   UNL d   1      60.938  -1.830  30.739  0.00  0.00     0.028 A 
ATOM     25  C   UNL d   1      60.515  -2.514  30.526  0.00  0.00     0.027 A 
ATOM     26  C   UNL d   1      59.878  -2.465  30.014  0.00  0.00     0.102 A 
ATOM     27  S   UNL d   1      59.046  -1.509  29.188  0.00  0.00    -0.045 SA
BRANCH  22  28
ATOM     28  O   UNL d   1      61.133  -0.414  30.643  0.00  0.00    -0.327 OA
ATOM     29  C   UNL d   1      61.114  -0.143  31.422  0.00  0.00     0.181 C 
ENDBRANCH  22  28
BRANCH  26  30
ATOM     30  O   UNL d   1      59.452  -3.152  29.800  0.00  0.00    -0.328 OA
ATOM     31  C   UNL d   1      59.852  -3.803  29.496  0.00  0.00     0.181 C 
ENDBRANCH  26  30
ENDBRANCH   1  19
TORSDOF 6
ENDMDL
