MODEL 1
REMARK VINA RESULT:      -9.6      0.000      0.000
REMARK  4 active torsions:
REMARK  status: ('A' for Active; 'I' for Inactive)
REMARK    1  A    between atoms: S_11  and  C_7 
REMARK    2  A    between atoms: C_17  and  C_10 
REMARK    3  A    between atoms: C_16  and  S_11 
REMARK    4  A    between atoms: C_20  and  C_17 
ROOT
ATOM      1  N   UNL d   1      54.515  33.690  54.803  0.00  0.00    -0.224 N 
ATOM      2  N   UNL d   1      53.289  34.424  54.657  0.00  0.00    -0.241 N 
ATOM      3  C   UNL d   1      54.047  34.360  54.972  0.00  0.00     0.343 A 
ATOM      4  C   UNL d   1      52.997  33.818  54.173  0.00  0.00     0.160 A 
ATOM      5  C   UNL d   1      54.219  33.091  54.321  0.00  0.00     0.273 A 
ATOM      6  C   UNL d   1      53.460  33.155  54.006  0.00  0.00     0.115 A 
ATOM      7  C   UNL d   1      53.164  32.555  53.524  0.00  0.00     0.120 A 
ATOM      8  N   UNL d   1      52.232  33.879  53.853  0.00  0.00    -0.209 NA
ATOM      9  N   UNL d   1      52.408  32.616  53.208  0.00  0.00    -0.220 NA
ATOM     10  C   UNL d   1      51.936  33.279  53.371  0.00  0.00     0.165 A 
ATOM     11  O   UNL d   1      54.347  34.961  55.457  0.00  0.00    -0.245 OA
ATOM     12  O   UNL d   1      54.685  32.429  54.156  0.00  0.00    -0.266 OA
ATOM     13  C   UNL d   1      55.270  33.633  55.121  0.00  0.00     0.107 C 
ATOM     14  C   UNL d   1      52.826  35.087  54.824  0.00  0.00     0.105 C 
ENDROOT
BRANCH   7  15
ATOM     15  S   UNL d   1      53.630  31.893  53.359  0.00  0.00    -0.068 SA
BRANCH  15  16
ATOM     16  C   UNL d   1      53.281  31.147  53.295  0.00  0.00     0.031 A 
ATOM     17  C   UNL d   1      53.183  30.603  53.906  0.00  0.00     0.006 A 
ATOM     18  C   UNL d   1      52.812  29.929  53.611  0.00  0.00     0.001 A 
ATOM     19  C   UNL d   1      52.678  30.063  52.802  0.00  0.00     0.001 A 
ATOM     20  C   UNL d   1      52.970  30.818  52.609  0.00  0.00     0.006 A 
ENDBRANCH  15  16
ENDBRANCH   7  15
BRANCH  10  21
ATOM     21  C   UNL d   1      51.176  33.338  53.053  0.00  0.00     0.039 C 
BRANCH  21  22
ATOM     22  C   UNL d   1      50.997  33.954  52.529  0.00  0.00     0.003 C 
ATOM     23  C   UNL d   1      50.228  34.085  52.287  0.00  0.00     0.000 C 
ENDBRANCH  21  22
ENDBRANCH  10  21
TORSDOF 4
ENDMDL
MODEL 2
REMARK VINA RESULT:      -9.4      1.314      2.773
REMARK  4 active torsions:
REMARK  status: ('A' for Active; 'I' for Inactive)
REMARK    1  A    between atoms: S_11  and  C_7 
REMARK    2  A    between atoms: C_17  and  C_10 
REMARK    3  A    between atoms: C_16  and  S_11 
REMARK    4  A    between atoms: C_20  and  C_17 
ROOT
ATOM      1  N   UNL d   1      51.503  33.860  52.670  0.00  0.00    -0.224 N 
ATOM      2  N   UNL d   1      52.225  34.489  53.741  0.00  0.00    -0.241 N 
ATOM      3  C   UNL d   1      51.635  34.518  53.166  0.00  0.00     0.343 A 
ATOM      4  C   UNL d   1      52.683  33.804  53.820  0.00  0.00     0.160 A 
ATOM      5  C   UNL d   1      51.963  33.181  52.754  0.00  0.00     0.273 A 
ATOM      6  C   UNL d   1      52.552  33.153  53.329  0.00  0.00     0.115 A 
ATOM      7  C   UNL d   1      53.012  32.473  53.412  0.00  0.00     0.120 A 
ATOM      8  N   UNL d   1      53.279  33.771  54.399  0.00  0.00    -0.209 NA
ATOM      9  N   UNL d   1      53.601  32.442  53.985  0.00  0.00    -0.220 NA
ATOM     10  C   UNL d   1      53.738  33.092  54.482  0.00  0.00     0.165 A 
ATOM     11  O   UNL d   1      51.172  35.199  53.081  0.00  0.00    -0.245 OA
ATOM     12  O   UNL d   1      51.829  32.532  52.260  0.00  0.00    -0.266 OA
ATOM     13  C   UNL d   1      50.914  33.895  52.100  0.00  0.00     0.107 C 
ATOM     14  C   UNL d   1      52.355  35.140  54.233  0.00  0.00     0.105 C 
ENDROOT
BRANCH   7  15
ATOM     15  S   UNL d   1      52.879  31.824  52.919  0.00  0.00    -0.068 SA
BRANCH  15  16
ATOM     16  C   UNL d   1      53.054  31.062  53.183  0.00  0.00     0.031 A 
ATOM     17  C   UNL d   1      52.542  30.558  53.587  0.00  0.00     0.006 A 
ATOM     18  C   UNL d   1      52.931  29.850  53.749  0.00  0.00     0.001 A 
ATOM     19  C   UNL d   1      53.698  29.920  53.437  0.00  0.00     0.001 A 
ATOM     20  C   UNL d   1      53.771  30.672  53.087  0.00  0.00     0.006 A 
ENDBRANCH  15  16
ENDBRANCH   7  15
BRANCH  10  21
ATOM     21  C   UNL d   1      54.331  33.058  55.057  0.00  0.00     0.039 C 
BRANCH  21  22
ATOM     22  C   UNL d   1      54.985  33.563  55.002  0.00  0.00     0.003 C 
ATOM     23  C   UNL d   1      55.448  33.717  55.658  0.00  0.00     0.000 C 
ENDBRANCH  21  22
ENDBRANCH  10  21
TORSDOF 4
ENDMDL
MODEL 3
REMARK VINA RESULT:      -9.1      1.069      2.875
REMARK  4 active torsions:
REMARK  status: ('A' for Active; 'I' for Inactive)
REMARK    1  A    between atoms: S_11  and  C_7 
REMARK    2  A    between atoms: C_17  and  C_10 
REMARK    3  A    between atoms: C_16  and  S_11 
REMARK    4  A    between atoms: C_20  and  C_17 
ROOT
ATOM      1  N   UNL d   1      53.553  34.694  54.799  0.00  0.00    -0.224 N 
ATOM      2  N   UNL d   1      53.947  33.314  54.721  0.00  0.00    -0.241 N 
ATOM      3  C   UNL d   1      54.010  34.054  55.078  0.00  0.00     0.343 A 
ATOM      4  C   UNL d   1      53.426  33.214  54.085  0.00  0.00     0.160 A 
ATOM      5  C   UNL d   1      53.037  34.587  54.165  0.00  0.00     0.273 A 
ATOM      6  C   UNL d   1      52.973  33.847  53.808  0.00  0.00     0.115 A 
ATOM      7  C   UNL d   1      52.457  33.740  53.174  0.00  0.00     0.120 A 
ATOM      8  N   UNL d   1      53.359  32.469  53.722  0.00  0.00    -0.209 NA
ATOM      9  N   UNL d   1      52.391  33.003  52.816  0.00  0.00    -0.220 NA
ATOM     10  C   UNL d   1      52.842  32.362  53.088  0.00  0.00     0.165 A 
ATOM     11  O   UNL d   1      54.529  34.164  55.714  0.00  0.00    -0.245 OA
ATOM     12  O   UNL d   1      52.586  35.223  53.892  0.00  0.00    -0.266 OA
ATOM     13  C   UNL d   1      53.622  35.428  55.159  0.00  0.00     0.107 C 
ATOM     14  C   UNL d   1      54.399  32.681  54.997  0.00  0.00     0.105 C 
ENDROOT
BRANCH   7  15
ATOM     15  S   UNL d   1      52.006  34.376  52.901  0.00  0.00    -0.068 SA
BRANCH  15  16
ATOM     16  C   UNL d   1      51.259  34.243  52.575  0.00  0.00     0.031 A 
ATOM     17  C   UNL d   1      50.559  34.131  52.994  0.00  0.00     0.006 A 
ATOM     18  C   UNL d   1      49.940  34.016  52.462  0.00  0.00     0.001 A 
ATOM     19  C   UNL d   1      50.267  34.059  51.699  0.00  0.00     0.001 A 
ATOM     20  C   UNL d   1      51.085  34.200  51.773  0.00  0.00     0.006 A 
ENDBRANCH  15  16
ENDBRANCH   7  15
BRANCH  10  21
ATOM     21  C   UNL d   1      52.774  31.622  52.727  0.00  0.00     0.039 C 
BRANCH  21  22
ATOM     22  C   UNL d   1      52.567  30.961  53.180  0.00  0.00     0.003 C 
ATOM     23  C   UNL d   1      52.625  30.208  52.869  0.00  0.00     0.000 C 
ENDBRANCH  21  22
ENDBRANCH  10  21
TORSDOF 4
ENDMDL
MODEL 4
REMARK VINA RESULT:      -8.5      1.644      3.819
REMARK  4 active torsions:
REMARK  status: ('A' for Active; 'I' for Inactive)
REMARK    1  A    between atoms: S_11  and  C_7 
REMARK    2  A    between atoms: C_17  and  C_10 
REMARK    3  A    between atoms: C_16  and  S_11 
REMARK    4  A    between atoms: C_20  and  C_17 
ROOT
ATOM      1  N   UNL d   1      52.773  30.310  53.037  0.00  0.00    -0.224 N 
ATOM      2  N   UNL d   1      53.522  30.505  54.248  0.00  0.00    -0.241 N 
ATOM      3  C   UNL d   1      53.176  29.998  53.698  0.00  0.00     0.343 A 
ATOM      4  C   UNL d   1      53.465  31.324  54.137  0.00  0.00     0.160 A 
ATOM      5  C   UNL d   1      52.721  31.126  52.933  0.00  0.00     0.273 A 
ATOM      6  C   UNL d   1      53.066  31.633  53.483  0.00  0.00     0.115 A 
ATOM      7  C   UNL d   1      53.014  32.449  53.379  0.00  0.00     0.120 A 
ATOM      8  N   UNL d   1      53.813  31.839  54.690  0.00  0.00    -0.209 NA
ATOM      9  N   UNL d   1      53.358  32.958  53.925  0.00  0.00    -0.220 NA
ATOM     10  C   UNL d   1      53.760  32.655  54.585  0.00  0.00     0.165 A 
ATOM     11  O   UNL d   1      53.228  29.178  53.801  0.00  0.00    -0.245 OA
ATOM     12  O   UNL d   1      52.321  31.430  52.278  0.00  0.00    -0.266 OA
ATOM     13  C   UNL d   1      52.431  29.799  52.494  0.00  0.00     0.107 C 
ATOM     14  C   UNL d   1      53.921  30.197  54.902  0.00  0.00     0.105 C 
ENDROOT
BRANCH   7  15
ATOM     15  S   UNL d   1      52.614  32.754  52.723  0.00  0.00    -0.068 SA
BRANCH  15  16
ATOM     16  C   UNL d   1      52.173  33.449  52.794  0.00  0.00     0.031 A 
ATOM     17  C   UNL d   1      51.405  33.509  53.085  0.00  0.00     0.006 A 
ATOM     18  C   UNL d   1      51.168  34.297  53.063  0.00  0.00     0.001 A 
ATOM     19  C   UNL d   1      51.805  34.732  52.751  0.00  0.00     0.001 A 
ATOM     20  C   UNL d   1      52.426  34.203  52.586  0.00  0.00     0.006 A 
ENDBRANCH  15  16
ENDBRANCH   7  15
BRANCH  10  21
ATOM     21  C   UNL d   1      54.105  33.168  55.133  0.00  0.00     0.039 C 
BRANCH  21  22
ATOM     22  C   UNL d   1      54.888  33.416  55.027  0.00  0.00     0.003 C 
ATOM     23  C   UNL d   1      55.203  34.010  55.491  0.00  0.00     0.000 C 
ENDBRANCH  21  22
ENDBRANCH  10  21
TORSDOF 4
ENDMDL
MODEL 5
REMARK VINA RESULT:      -8.5      1.410      3.375
REMARK  4 active torsions:
REMARK  status: ('A' for Active; 'I' for Inactive)
REMARK    1  A    between atoms: S_11  and  C_7 
REMARK    2  A    between atoms: C_17  and  C_10 
REMARK    3  A    between atoms: C_16  and  S_11 
REMARK    4  A    between atoms: C_20  and  C_17 
ROOT
ATOM      1  N   UNL d   1      52.983  31.489  53.172  0.00  0.00    -0.224 N 
ATOM      2  N   UNL d   1      53.935  32.488  53.570  0.00  0.00    -0.241 N 
ATOM      3  C   UNL d   1      53.758  31.703  53.393  0.00  0.00     0.343 A 
ATOM      4  C   UNL d   1      53.336  33.059  53.526  0.00  0.00     0.160 A 
ATOM      5  C   UNL d   1      52.392  32.061  53.131  0.00  0.00     0.273 A 
ATOM      6  C   UNL d   1      52.569  32.846  53.308  0.00  0.00     0.115 A 
ATOM      7  C   UNL d   1      51.977  33.420  53.266  0.00  0.00     0.120 A 
ATOM      8  N   UNL d   1      53.510  33.852  53.704  0.00  0.00    -0.209 NA
ATOM      9  N   UNL d   1      52.150  34.204  53.442  0.00  0.00    -0.220 NA
ATOM     10  C   UNL d   1      52.920  34.425  53.662  0.00  0.00     0.165 A 
ATOM     11  O   UNL d   1      54.350  31.125  53.434  0.00  0.00    -0.245 OA
ATOM     12  O   UNL d   1      51.625  31.845  52.912  0.00  0.00    -0.266 OA
ATOM     13  C   UNL d   1      52.813  30.705  52.998  0.00  0.00     0.107 C 
ATOM     14  C   UNL d   1      54.702  32.700  53.789  0.00  0.00     0.105 C 
ENDROOT
BRANCH   7  15
ATOM     15  S   UNL d   1      51.211  33.204  53.047  0.00  0.00    -0.068 SA
BRANCH  15  16
ATOM     16  C   UNL d   1      50.685  33.775  52.763  0.00  0.00     0.031 A 
ATOM     17  C   UNL d   1      50.132  34.190  53.210  0.00  0.00     0.006 A 
ATOM     18  C   UNL d   1      49.719  34.706  52.718  0.00  0.00     0.001 A 
ATOM     19  C   UNL d   1      50.025  34.605  51.952  0.00  0.00     0.001 A 
ATOM     20  C   UNL d   1      50.624  34.027  51.984  0.00  0.00     0.006 A 
ENDBRANCH  15  16
ENDBRANCH   7  15
BRANCH  10  21
ATOM     21  C   UNL d   1      53.091  35.214  53.839  0.00  0.00     0.039 C 
BRANCH  21  22
ATOM     22  C   UNL d   1      53.052  35.477  54.623  0.00  0.00     0.003 C 
ATOM     23  C   UNL d   1      53.177  36.264  54.805  0.00  0.00     0.000 C 
ENDBRANCH  21  22
ENDBRANCH  10  21
TORSDOF 4
ENDMDL
MODEL 6
REMARK VINA RESULT:      -7.9      1.380      3.229
REMARK  4 active torsions:
REMARK  status: ('A' for Active; 'I' for Inactive)
REMARK    1  A    between atoms: S_11  and  C_7 
REMARK    2  A    between atoms: C_17  and  C_10 
REMARK    3  A    between atoms: C_16  and  S_11 
REMARK    4  A    between atoms: C_20  and  C_17 
ROOT
ATOM      1  N   UNL d   1      53.319  30.268  53.505  0.00  0.00    -0.224 N 
ATOM      2  N   UNL d   1      52.040  30.871  53.252  0.00  0.00    -0.241 N 
ATOM      3  C   UNL d   1      52.506  30.196  53.332  0.00  0.00     0.343 A 
ATOM      4  C   UNL d   1      52.386  31.617  53.345  0.00  0.00     0.160 A 
ATOM      5  C   UNL d   1      53.657  31.014  53.596  0.00  0.00     0.273 A 
ATOM      6  C   UNL d   1      53.191  31.688  53.516  0.00  0.00     0.115 A 
ATOM      7  C   UNL d   1      53.530  32.435  53.607  0.00  0.00     0.120 A 
ATOM      8  N   UNL d   1      51.919  32.301  53.265  0.00  0.00    -0.209 NA
ATOM      9  N   UNL d   1      53.067  33.110  53.528  0.00  0.00    -0.220 NA
ATOM     10  C   UNL d   1      52.258  33.047  53.357  0.00  0.00     0.165 A 
ATOM     11  O   UNL d   1      52.168  29.446  53.240  0.00  0.00    -0.245 OA
ATOM     12  O   UNL d   1      54.463  31.080  53.767  0.00  0.00    -0.266 OA
ATOM     13  C   UNL d   1      53.777  29.592  53.583  0.00  0.00     0.107 C 
ATOM     14  C   UNL d   1      51.235  30.800  53.081  0.00  0.00     0.105 C 
ENDROOT
BRANCH   7  15
ATOM     15  S   UNL d   1      54.335  32.502  53.779  0.00  0.00    -0.068 SA
BRANCH  15  16
ATOM     16  C   UNL d   1      54.594  33.043  54.347  0.00  0.00     0.031 A 
ATOM     17  C   UNL d   1      54.440  33.009  55.155  0.00  0.00     0.006 A 
ATOM     18  C   UNL d   1      54.797  33.652  55.526  0.00  0.00     0.001 A 
ATOM     19  C   UNL d   1      55.179  34.091  54.932  0.00  0.00     0.001 A 
ATOM     20  C   UNL d   1      55.051  33.710  54.203  0.00  0.00     0.006 A 
ENDBRANCH  15  16
ENDBRANCH   7  15
BRANCH  10  21
ATOM     21  C   UNL d   1      51.795  33.727  53.278  0.00  0.00     0.039 C 
BRANCH  21  22
ATOM     22  C   UNL d   1      51.631  34.026  52.523  0.00  0.00     0.003 C 
ATOM     23  C   UNL d   1      50.992  34.521  52.401  0.00  0.00     0.000 C 
ENDBRANCH  21  22
ENDBRANCH  10  21
TORSDOF 4
ENDMDL
MODEL 7
REMARK VINA RESULT:      -7.9      1.451      3.487
REMARK  4 active torsions:
REMARK  status: ('A' for Active; 'I' for Inactive)
REMARK    1  A    between atoms: S_11  and  C_7 
REMARK    2  A    between atoms: C_17  and  C_10 
REMARK    3  A    between atoms: C_16  and  S_11 
REMARK    4  A    between atoms: C_20  and  C_17 
ROOT
ATOM      1  N   UNL d   1      51.387  34.410  53.340  0.00  0.00    -0.224 N 
ATOM      2  N   UNL d   1      51.204  33.033  52.974  0.00  0.00    -0.241 N 
ATOM      3  C   UNL d   1      50.900  33.794  53.059  0.00  0.00     0.343 A 
ATOM      4  C   UNL d   1      51.995  32.888  53.170  0.00  0.00     0.160 A 
ATOM      5  C   UNL d   1      52.174  34.259  53.534  0.00  0.00     0.273 A 
ATOM      6  C   UNL d   1      52.478  33.497  53.449  0.00  0.00     0.115 A 
ATOM      7  C   UNL d   1      53.265  33.346  53.643  0.00  0.00     0.120 A 
ATOM      8  N   UNL d   1      52.306  32.121  53.086  0.00  0.00    -0.209 NA
ATOM      9  N   UNL d   1      53.571  32.587  53.560  0.00  0.00    -0.220 NA
ATOM     10  C   UNL d   1      53.093  31.969  53.280  0.00  0.00     0.165 A 
ATOM     11  O   UNL d   1      50.110  33.948  52.864  0.00  0.00    -0.245 OA
ATOM     12  O   UNL d   1      52.653  34.871  53.812  0.00  0.00    -0.266 OA
ATOM     13  C   UNL d   1      51.078  35.166  53.422  0.00  0.00     0.107 C 
ATOM     14  C   UNL d   1      50.722  32.423  52.695  0.00  0.00     0.105 C 
ENDROOT
BRANCH   7  15
ATOM     15  S   UNL d   1      53.744  33.958  53.921  0.00  0.00    -0.068 SA
BRANCH  15  16
ATOM     16  C   UNL d   1      54.316  33.806  54.497  0.00  0.00     0.031 A 
ATOM     17  C   UNL d   1      55.127  33.741  54.371  0.00  0.00     0.006 A 
ATOM     18  C   UNL d   1      55.502  33.588  55.088  0.00  0.00     0.001 A 
ATOM     19  C   UNL d   1      54.907  33.558  55.669  0.00  0.00     0.001 A 
ATOM     20  C   UNL d   1      54.174  33.694  55.299  0.00  0.00     0.006 A 
ENDBRANCH  15  16
ENDBRANCH   7  15
BRANCH  10  21
ATOM     21  C   UNL d   1      53.403  31.208  53.197  0.00  0.00     0.039 C 
BRANCH  21  22
ATOM     22  C   UNL d   1      53.157  30.606  53.711  0.00  0.00     0.003 C 
ATOM     23  C   UNL d   1      53.458  29.850  53.640  0.00  0.00     0.000 C 
ENDBRANCH  21  22
ENDBRANCH  10  21
TORSDOF 4
ENDMDL
