MODEL 1
REMARK VINA RESULT:      15.6      0.000      0.000
REMARK  2 active torsions:
REMARK  status: ('A' for Active; 'I' for Inactive)
REMARK    1  A    between atoms: C_5  and  C_1 
REMARK    2  A    between atoms: O_15  and  C_12 
ROOT
ATOM      1  C   UNL d   1     -58.329 -98.768 -44.053  0.00  0.00     0.042 A 
ATOM      2  C   UNL d   1     -58.630 -98.765 -43.283  0.00  0.00     0.045 A 
ATOM      3  C   UNL d   1     -58.843 -98.764 -44.698  0.00  0.00     0.196 A 
ATOM      4  C   UNL d   1     -59.658 -98.758 -44.575  0.00  0.00     0.045 A 
ATOM      5  C   UNL d   1     -59.446 -98.759 -43.160  0.00  0.00     0.196 A 
ATOM      6  C   UNL d   1     -59.960 -98.755 -43.805  0.00  0.00     0.045 A 
ATOM      7  O   UNL d   1     -58.541 -98.766 -45.468  0.00  0.00    -0.287 OA
ATOM      8  O   UNL d   1     -59.748 -98.757 -42.390  0.00  0.00    -0.287 OA
ENDROOT
BRANCH   1   9
ATOM      9  C   UNL d   1     -57.513 -98.774 -44.177  0.00  0.00     0.003 A 
ATOM     10  C   UNL d   1     -57.219 -98.798 -44.952  0.00  0.00     0.002 A 
ATOM     11  C   UNL d   1     -56.406 -98.804 -45.079  0.00  0.00     0.024 A 
ATOM     12  C   UNL d   1     -55.883 -98.786 -44.439  0.00  0.00     0.094 A 
ATOM     13  C   UNL d   1     -56.186 -98.762 -43.662  0.00  0.00     0.024 A 
ATOM     14  C   UNL d   1     -57.001 -98.756 -43.538  0.00  0.00     0.002 A 
BRANCH  12  15
ATOM     15  O   UNL d   1     -55.064 -98.792 -44.565  0.00  0.00    -0.328 OA
ATOM     16  C   UNL d   1     -54.714 -99.424 -44.968  0.00  0.00     0.181 C 
ENDBRANCH  12  15
ENDBRANCH   1   9
TORSDOF 2
ENDMDL
