MODEL 1
REMARK VINA RESULT:       3.4      0.000      0.000
REMARK  11 active torsions:
REMARK  status: ('A' for Active; 'I' for Inactive)
REMARK    1  A    between atoms: C_8  and  C_1 
REMARK    2  A    between atoms: C_6  and  N_7 
REMARK    3  A    between atoms: N_19  and  C_6 
REMARK    4  A    between atoms: N_7  and  C_14 
REMARK    5  A    between atoms: C_11  and  N_7 
REMARK    6  A    between atoms: C_14  and  C_8 
REMARK    7  A    between atoms: C_9  and  C_11 
REMARK    8  A    between atoms: C_25  and  N_19 
REMARK    9  A    between atoms: O_23  and  C_20 
REMARK   10  A    between atoms: O_24  and  C_26 
REMARK   11  A    between atoms: C_26  and  C_25 
ROOT
ATOM      1  N   UNL d   1     -41.733-122.523 -52.054  0.00  0.00    -0.279 N 
ENDROOT
BRANCH   1   2
ATOM      2  C   UNL d   1     -41.780-122.749 -52.844  0.00  0.00     0.206 C 
ATOM      3  S   UNL d   1     -41.530-123.506 -53.071  0.00  0.00    -0.038 SA
BRANCH   2   4
ATOM      4  N   UNL d   1     -42.076-122.224 -53.410  0.00  0.00    -0.215 NA
BRANCH   4   5
ATOM      5  C   UNL d   1     -42.191-122.486 -54.184  0.00  0.00     0.128 C 
BRANCH   5   6
ATOM      6  C   UNL d   1     -41.824-122.101 -54.811  0.00  0.00     0.137 C 
BRANCH   6   7
ATOM      7  O   UNL d   1     -42.191-122.080 -55.548  0.00  0.00    -0.325 OA
ATOM      8  C   UNL d   1     -42.042-121.459 -56.059  0.00  0.00     0.182 C 
ENDBRANCH   6   7
ENDBRANCH   5   6
ENDBRANCH   4   5
ENDBRANCH   2   4
ENDBRANCH   1   2
BRANCH   1   9
ATOM      9  C   UNL d   1     -42.306-122.791 -51.508  0.00  0.00     0.082 C 
BRANCH   9  10
ATOM     10  C   UNL d   1     -42.104-122.901 -50.712  0.00  0.00     0.021 C 
BRANCH  10  11
ATOM     11  C   UNL d   1     -42.682-123.086 -50.159  0.00  0.00     0.021 A 
ATOM     12  C   UNL d   1     -43.510-123.075 -50.286  0.00  0.00     0.082 A 
ATOM     13  N   UNL d   1     -43.875-123.298 -49.582  0.00  0.00    -0.246 NA
ATOM     14  C   UNL d   1     -43.885-122.874 -50.995  0.00  0.00     0.021 C 
ATOM     15  C   UNL d   1     -43.292-123.449 -49.018  0.00  0.00     0.082 A 
ATOM     16  C   UNL d   1     -42.556-123.317 -49.379  0.00  0.00     0.021 A 
ATOM     17  C   UNL d   1     -43.329-123.687 -48.231  0.00  0.00     0.021 A 
ATOM     18  C   UNL d   1     -41.869-123.426 -48.943  0.00  0.00     0.026 A 
ATOM     19  C   UNL d   1     -41.904-123.665 -48.152  0.00  0.00     0.094 A 
ATOM     20  C   UNL d   1     -42.642-123.793 -47.802  0.00  0.00     0.026 A 
BRANCH  19  21
ATOM     21  O   UNL d   1     -41.212-123.773 -47.716  0.00  0.00    -0.328 OA
ATOM     22  C   UNL d   1     -41.151-123.446 -46.956  0.00  0.00     0.181 C 
ENDBRANCH  19  21
ENDBRANCH  10  11
ENDBRANCH   9  10
ENDBRANCH   1   9
BRANCH   1  23
ATOM     23  C   UNL d   1     -41.123-122.034 -51.804  0.00  0.00     0.107 C 
BRANCH  23  24
ATOM     24  C   UNL d   1     -41.242-121.211 -51.757  0.00  0.00     0.118 A 
ATOM     25  O   UNL d   1     -41.175-120.746 -51.073  0.00  0.00    -0.304 OA
ATOM     26  C   UNL d   1     -41.340-119.962 -51.281  0.00  0.00     0.123 A 
ATOM     27  C   UNL d   1     -41.507-119.947 -52.080  0.00  0.00     0.029 A 
ATOM     28  C   UNL d   1     -41.444-120.723 -52.369  0.00  0.00     0.028 A 
ENDBRANCH  23  24
ENDBRANCH   1  23
TORSDOF 11
ENDMDL
MODEL 2
REMARK VINA RESULT:       3.6      1.487      5.096
REMARK  11 active torsions:
REMARK  status: ('A' for Active; 'I' for Inactive)
REMARK    1  A    between atoms: C_8  and  C_1 
REMARK    2  A    between atoms: C_6  and  N_7 
REMARK    3  A    between atoms: N_19  and  C_6 
REMARK    4  A    between atoms: N_7  and  C_14 
REMARK    5  A    between atoms: C_11  and  N_7 
REMARK    6  A    between atoms: C_14  and  C_8 
REMARK    7  A    between atoms: C_9  and  C_11 
REMARK    8  A    between atoms: C_25  and  N_19 
REMARK    9  A    between atoms: O_23  and  C_20 
REMARK   10  A    between atoms: O_24  and  C_26 
REMARK   11  A    between atoms: C_26  and  C_25 
ROOT
ATOM      1  N   UNL d   1     -42.083-122.701 -49.941  0.00  0.00    -0.279 N 
ENDROOT
BRANCH   1   2
ATOM      2  C   UNL d   1     -41.450-123.171 -49.706  0.00  0.00     0.206 C 
ATOM      3  S   UNL d   1     -41.135-123.730 -50.230  0.00  0.00    -0.038 SA
BRANCH   2   4
ATOM      4  N   UNL d   1     -41.126-123.087 -48.950  0.00  0.00    -0.215 NA
BRANCH   4   5
ATOM      5  C   UNL d   1     -41.165-123.719 -48.420  0.00  0.00     0.128 C 
BRANCH   5   6
ATOM      6  C   UNL d   1     -41.494-123.614 -47.674  0.00  0.00     0.137 C 
BRANCH   6   7
ATOM      7  O   UNL d   1     -41.126-123.114 -47.132  0.00  0.00    -0.325 OA
ATOM      8  C   UNL d   1     -41.570-122.572 -46.712  0.00  0.00     0.182 C 
ENDBRANCH   6   7
ENDBRANCH   5   6
ENDBRANCH   4   5
ENDBRANCH   2   4
ENDBRANCH   1   2
BRANCH   1   9
ATOM      9  C   UNL d   1     -42.050-122.289 -50.667  0.00  0.00     0.082 C 
BRANCH   9  10
ATOM     10  C   UNL d   1     -41.355-122.292 -51.117  0.00  0.00     0.021 C 
BRANCH  10  11
ATOM     11  C   UNL d   1     -41.298-121.832 -51.795  0.00  0.00     0.021 A 
ATOM     12  C   UNL d   1     -41.194-121.002 -51.823  0.00  0.00     0.082 A 
ATOM     13  N   UNL d   1     -41.166-120.779 -52.616  0.00  0.00    -0.246 NA
ATOM     14  C   UNL d   1     -41.131-120.503 -51.167  0.00  0.00     0.021 C 
ATOM     15  C   UNL d   1     -41.251-121.454 -53.084  0.00  0.00     0.082 A 
ATOM     16  C   UNL d   1     -41.332-122.102 -52.572  0.00  0.00     0.021 A 
ATOM     17  C   UNL d   1     -41.265-121.565 -53.899  0.00  0.00     0.021 A 
ATOM     18  C   UNL d   1     -41.427-122.855 -52.889  0.00  0.00     0.026 A 
ATOM     19  C   UNL d   1     -41.441-122.969 -53.708  0.00  0.00     0.094 A 
ATOM     20  C   UNL d   1     -41.360-122.316 -54.208  0.00  0.00     0.026 A 
BRANCH  19  21
ATOM     21  O   UNL d   1     -41.536-123.726 -54.023  0.00  0.00    -0.328 OA
ATOM     22  C   UNL d   1     -41.778-123.813 -54.812  0.00  0.00     0.181 C 
ENDBRANCH  19  21
ENDBRANCH  10  11
ENDBRANCH   9  10
ENDBRANCH   1   9
BRANCH   1  23
ATOM     23  C   UNL d   1     -42.745-122.637 -49.460  0.00  0.00     0.107 C 
BRANCH  23  24
ATOM     24  C   UNL d   1     -43.482-122.921 -49.727  0.00  0.00     0.118 A 
ATOM     25  O   UNL d   1     -43.748-123.705 -49.683  0.00  0.00    -0.304 OA
ATOM     26  C   UNL d   1     -44.506-123.736 -50.012  0.00  0.00     0.123 A 
ATOM     27  C   UNL d   1     -44.702-122.981 -50.255  0.00  0.00     0.029 A 
ATOM     28  C   UNL d   1     -44.063-122.481 -50.075  0.00  0.00     0.028 A 
ENDBRANCH  23  24
ENDBRANCH   1  23
TORSDOF 11
ENDMDL
