MODEL 1
REMARK VINA RESULT:       0.6      0.000      0.000
REMARK  7 active torsions:
REMARK  status: ('A' for Active; 'I' for Inactive)
REMARK    1  A    between atoms: C_6  and  C_1 
REMARK    2  A    between atoms: O_18  and  C_6 
REMARK    3  A    between atoms: C_7  and  C_11 
REMARK    4  A    between atoms: O_19  and  C_7 
REMARK    5  A    between atoms: O_10  and  C_12 
REMARK    6  A    between atoms: C_11  and  O_10 
REMARK    7  A    between atoms: C_21  and  O_18 
ROOT
ATOM      1  C   UNL d   1     -41.571-122.378 -53.100  0.00  0.00     0.081 A 
ATOM      2  C   UNL d   1     -41.489-121.578 -53.290  0.00  0.00     0.069 A 
ATOM      3  N   UNL d   1     -41.390-121.164 -52.589  0.00  0.00    -0.304 N 
ATOM      4  C   UNL d   1     -41.523-122.454 -52.288  0.00  0.00     0.025 A 
ATOM      5  C   UNL d   1     -41.411-121.703 -51.972  0.00  0.00     0.064 A 
ATOM      6  C   UNL d   1     -41.341-121.604 -51.159  0.00  0.00     0.020 A 
ATOM      7  C   UNL d   1     -41.565-123.107 -51.791  0.00  0.00     0.026 A 
ATOM      8  C   UNL d   1     -41.495-123.005 -50.968  0.00  0.00     0.100 A 
ATOM      9  C   UNL d   1     -41.384-122.261 -50.655  0.00  0.00     0.026 A 
ATOM     10  C   UNL d   1     -41.504-121.253 -54.046  0.00  0.00     0.019 C 
ATOM     11  C   UNL d   1     -41.287-120.342 -52.522  0.00  0.00     0.099 C 
ENDROOT
BRANCH   8  12
ATOM     12  O   UNL d   1     -41.538-123.666 -50.471  0.00  0.00    -0.302 OA
BRANCH  12  13
ATOM     13  C   UNL d   1     -42.127-123.696 -49.894  0.00  0.00     0.163 C 
ATOM     14  C   UNL d   1     -42.925-123.660 -50.110  0.00  0.00     0.032 C 
BRANCH  13  15
ATOM     15  C   UNL d   1     -41.919-123.762 -49.097  0.00  0.00     0.319 C 
ATOM     16  O   UNL d   1     -41.124-123.772 -48.871  0.00  0.00    -0.257 OA
BRANCH  15  17
ATOM     17  O   UNL d   1     -42.501-123.817 -48.519  0.00  0.00    -0.294 OA
ATOM     18  C   UNL d   1     -42.370-123.497 -47.770  0.00  0.00     0.185 C 
ENDBRANCH  15  17
ENDBRANCH  13  15
ENDBRANCH  12  13
ENDBRANCH   8  12
BRANCH   1  19
ATOM     19  C   UNL d   1     -41.683-122.996 -53.638  0.00  0.00     0.302 C 
ATOM     20  O   UNL d   1     -41.123-123.601 -53.686  0.00  0.00    -0.259 OA
BRANCH  19  21
ATOM     21  O   UNL d   1     -42.346-123.009 -54.122  0.00  0.00    -0.271 OA
BRANCH  21  22
ATOM     22  C   UNL d   1     -42.302-123.354 -54.870  0.00  0.00     0.126 C 
ATOM     23  C   UNL d   1     -42.970-123.373 -55.353  0.00  0.00     0.029 C 
ENDBRANCH  21  22
ENDBRANCH  19  21
ENDBRANCH   1  19
TORSDOF 7
ENDMDL
MODEL 2
REMARK VINA RESULT:       0.9      1.263      2.262
REMARK  7 active torsions:
REMARK  status: ('A' for Active; 'I' for Inactive)
REMARK    1  A    between atoms: C_6  and  C_1 
REMARK    2  A    between atoms: O_18  and  C_6 
REMARK    3  A    between atoms: C_7  and  C_11 
REMARK    4  A    between atoms: O_19  and  C_7 
REMARK    5  A    between atoms: O_10  and  C_12 
REMARK    6  A    between atoms: C_11  and  O_10 
REMARK    7  A    between atoms: C_21  and  O_18 
ROOT
ATOM      1  C   UNL d   1     -41.676-121.907 -53.424  0.00  0.00     0.081 A 
ATOM      2  C   UNL d   1     -41.645-122.343 -54.126  0.00  0.00     0.069 A 
ATOM      3  N   UNL d   1     -41.452-123.116 -53.931  0.00  0.00    -0.304 N 
ATOM      4  C   UNL d   1     -41.503-122.409 -52.803  0.00  0.00     0.025 A 
ATOM      5  C   UNL d   1     -41.365-123.157 -53.117  0.00  0.00     0.064 A 
ATOM      6  C   UNL d   1     -41.176-123.784 -52.620  0.00  0.00     0.020 A 
ATOM      7  C   UNL d   1     -41.452-122.288 -51.993  0.00  0.00     0.026 A 
ATOM      8  C   UNL d   1     -41.261-122.924 -51.491  0.00  0.00     0.100 A 
ATOM      9  C   UNL d   1     -41.124-123.665 -51.802  0.00  0.00     0.026 A 
ATOM     10  C   UNL d   1     -41.783-122.055 -54.885  0.00  0.00     0.019 C 
ATOM     11  C   UNL d   1     -41.363-123.743 -54.469  0.00  0.00     0.099 C 
ENDROOT
BRANCH   8  12
ATOM     12  O   UNL d   1     -41.211-122.796 -50.674  0.00  0.00    -0.302 OA
BRANCH  12  13
ATOM     13  C   UNL d   1     -41.806-123.091 -50.185  0.00  0.00     0.163 C 
ATOM     14  C   UNL d   1     -42.292-123.710 -50.446  0.00  0.00     0.032 C 
BRANCH  13  15
ATOM     15  C   UNL d   1     -41.919-122.770 -49.433  0.00  0.00     0.319 C 
ATOM     16  O   UNL d   1     -42.540-122.242 -49.292  0.00  0.00    -0.257 OA
BRANCH  15  17
ATOM     17  O   UNL d   1     -41.416-122.971 -48.815  0.00  0.00    -0.294 OA
ATOM     18  C   UNL d   1     -41.604-122.749 -48.042  0.00  0.00     0.185 C 
ENDBRANCH  15  17
ENDBRANCH  13  15
ENDBRANCH  12  13
ENDBRANCH   8  12
BRANCH   1  19
ATOM     19  C   UNL d   1     -41.851-121.101 -53.361  0.00  0.00     0.302 C 
ATOM     20  O   UNL d   1     -42.465-120.781 -53.812  0.00  0.00    -0.259 OA
BRANCH  19  21
ATOM     21  O   UNL d   1     -41.419-120.622 -52.854  0.00  0.00    -0.271 OA
BRANCH  21  22
ATOM     22  C   UNL d   1     -41.600-119.819 -52.793  0.00  0.00     0.126 C 
ATOM     23  C   UNL d   1     -41.124-119.324 -52.337  0.00  0.00     0.029 C 
ENDBRANCH  21  22
ENDBRANCH  19  21
ENDBRANCH   1  19
TORSDOF 7
ENDMDL
