MODEL 1
REMARK VINA RESULT:      76.2      0.000      0.000
REMARK  4 active torsions:
REMARK  status: ('A' for Active; 'I' for Inactive)
REMARK    1  A    between atoms: C_3  and  C_1 
REMARK    2  A    between atoms: N_5  and  C_3 
REMARK    3  A    between atoms: C_10  and  C_3 
REMARK    4  A    between atoms: C_7  and  N_5 
ROOT
ATOM      1  C   UNL d   1     -50.459  26.409  33.789  0.00  0.00     0.086 C 
ENDROOT
BRANCH   1   2
ATOM      2  C   UNL d   1     -50.111  26.833  34.427  0.00  0.00     0.058 A 
ATOM      3  C   UNL d   1     -49.469  27.332  34.250  0.00  0.00     0.214 A 
ATOM      4  C   UNL d   1     -49.134  27.744  34.881  0.00  0.00     0.120 A 
ATOM      5  O   UNL d   1     -49.182  27.409  33.480  0.00  0.00    -0.285 OA
ATOM      6  N   UNL d   1     -48.478  28.256  34.710  0.00  0.00    -0.241 NA
ATOM      7  C   UNL d   1     -49.421  27.668  35.651  0.00  0.00     0.021 A 
ATOM      8  C   UNL d   1     -48.144  28.668  35.342  0.00  0.00     0.099 A 
ATOM      9  C   UNL d   1     -48.430  28.591  36.111  0.00  0.00     0.021 A 
ATOM     10  C   UNL d   1     -49.051  28.102  36.250  0.00  0.00     0.003 A 
ATOM     11  C   UNL d   1     -50.041  27.179  35.790  0.00  0.00     0.002 A 
ATOM     12  C   UNL d   1     -50.398  26.757  35.197  0.00  0.00     0.005 A 
ENDBRANCH   1   2
BRANCH   1  13
ATOM     13  N   UNL d   1     -49.989  25.923  33.306  0.00  0.00    -0.227 NA
BRANCH  13  14
ATOM     14  C   UNL d   1     -49.968  25.122  33.404  0.00  0.00     0.162 A 
ATOM     15  N   UNL d   1     -50.667  24.687  33.362  0.00  0.00    -0.225 NA
ATOM     16  C   UNL d   1     -50.664  23.865  33.459  0.00  0.00     0.101 A 
ATOM     17  C   UNL d   1     -49.942  23.499  33.599  0.00  0.00     0.021 A 
ATOM     18  C   UNL d   1     -49.243  23.934  33.641  0.00  0.00     0.005 A 
ATOM     19  C   UNL d   1     -49.265  24.735  33.543  0.00  0.00     0.039 A 
ENDBRANCH  13  14
ENDBRANCH   1  13
BRANCH   1  20
ATOM     20  C   UNL d   1     -51.253  26.463  33.633  0.00  0.00     0.018 A 
ATOM     21  C   UNL d   1     -51.713  25.798  33.643  0.00  0.00     0.002 A 
ATOM     22  C   UNL d   1     -52.521  25.853  33.484  0.00  0.00     0.000 A 
ATOM     23  C   UNL d   1     -52.868  26.574  33.314  0.00  0.00     0.000 A 
ATOM     24  C   UNL d   1     -52.390  27.247  33.306  0.00  0.00     0.000 A 
ATOM     25  C   UNL d   1     -51.583  27.191  33.465  0.00  0.00     0.002 A 
ENDBRANCH   1  20
TORSDOF 4
ENDMDL
MODEL 2
REMARK VINA RESULT:      78.1      1.946      4.310
REMARK  4 active torsions:
REMARK  status: ('A' for Active; 'I' for Inactive)
REMARK    1  A    between atoms: C_3  and  C_1 
REMARK    2  A    between atoms: N_5  and  C_3 
REMARK    3  A    between atoms: C_10  and  C_3 
REMARK    4  A    between atoms: C_7  and  N_5 
ROOT
ATOM      1  C   UNL d   1     -51.462  26.172  34.590  0.00  0.00     0.086 C 
ENDROOT
BRANCH   1   2
ATOM      2  C   UNL d   1     -51.781  25.418  34.396  0.00  0.00     0.058 A 
ATOM      3  C   UNL d   1     -52.535  25.402  34.042  0.00  0.00     0.214 A 
ATOM      4  C   UNL d   1     -52.840  24.658  33.855  0.00  0.00     0.120 A 
ATOM      5  O   UNL d   1     -52.954  26.095  33.888  0.00  0.00    -0.285 OA
ATOM      6  N   UNL d   1     -53.608  24.632  33.494  0.00  0.00    -0.241 NA
ATOM      7  C   UNL d   1     -52.421  23.965  34.010  0.00  0.00     0.021 A 
ATOM      8  C   UNL d   1     -53.913  23.889  33.307  0.00  0.00     0.099 A 
ATOM      9  C   UNL d   1     -53.494  23.195  33.461  0.00  0.00     0.021 A 
ATOM     10  C   UNL d   1     -52.770  23.244  33.803  0.00  0.00     0.003 A 
ATOM     11  C   UNL d   1     -51.697  24.014  34.351  0.00  0.00     0.002 A 
ATOM     12  C   UNL d   1     -51.362  24.724  34.550  0.00  0.00     0.005 A 
ENDBRANCH   1   2
BRANCH   1  13
ATOM     13  N   UNL d   1     -51.775  26.607  35.225  0.00  0.00    -0.227 NA
BRANCH  13  14
ATOM     14  C   UNL d   1     -51.476  26.542  35.972  0.00  0.00     0.162 A 
ATOM     15  N   UNL d   1     -50.719  26.826  36.134  0.00  0.00    -0.225 NA
ATOM     16  C   UNL d   1     -50.397  26.768  36.895  0.00  0.00     0.101 A 
ATOM     17  C   UNL d   1     -50.855  26.417  37.479  0.00  0.00     0.021 A 
ATOM     18  C   UNL d   1     -51.612  26.133  37.316  0.00  0.00     0.005 A 
ATOM     19  C   UNL d   1     -51.911  26.198  36.569  0.00  0.00     0.039 A 
ENDBRANCH  13  14
ENDBRANCH   1  13
BRANCH   1  20
ATOM     20  C   UNL d   1     -50.846  26.488  34.167  0.00  0.00     0.018 A 
ATOM     21  C   UNL d   1     -50.896  27.246  33.887  0.00  0.00     0.002 A 
ATOM     22  C   UNL d   1     -50.270  27.568  33.457  0.00  0.00     0.000 A 
ATOM     23  C   UNL d   1     -49.595  27.132  33.306  0.00  0.00     0.000 A 
ATOM     24  C   UNL d   1     -49.553  26.360  33.596  0.00  0.00     0.000 A 
ATOM     25  C   UNL d   1     -50.179  26.038  34.026  0.00  0.00     0.002 A 
ENDBRANCH   1  20
TORSDOF 4
ENDMDL
