MODEL 1
REMARK VINA RESULT:      -2.4      0.000      0.000
REMARK  3 active torsions:
REMARK  status: ('A' for Active; 'I' for Inactive)
REMARK    1  A    between atoms: S_3  and  C_1 
REMARK    2  A    between atoms: C_7  and  N_2 
REMARK    3  A    between atoms: C_13  and  C_7 
ROOT
ATOM      1  C   UNL d   1      31.337  16.197 -23.852  0.00  0.00     0.255 A 
ATOM      2  N   UNL d   1      31.305  16.847 -24.363  0.00  0.00    -0.278 N 
ATOM      3  N   UNL d   1      30.595  15.985 -23.621  0.00  0.00    -0.215 NA
ATOM      4  C   UNL d   1      30.502  17.052 -24.458  0.00  0.00     0.084 A 
ATOM      5  C   UNL d   1      30.064  16.520 -24.001  0.00  0.00     0.100 A 
ATOM      6  C   UNL d   1      30.112  17.638 -24.890  0.00  0.00     0.019 A 
ATOM      7  C   UNL d   1      29.239  16.577 -23.977  0.00  0.00     0.021 A 
ATOM      8  C   UNL d   1      29.290  17.697 -24.868  0.00  0.00     0.002 A 
ATOM      9  C   UNL d   1      28.852  17.166 -24.411  0.00  0.00     0.002 A 
ENDROOT
BRANCH   1  10
ATOM     10  S   UNL d   1      32.037  15.825 -23.615  0.00  0.00     0.174 S 
ATOM     11  O   UNL d   1      32.122  15.503 -24.372  0.00  0.00    -0.589 OA
ATOM     12  O   UNL d   1      32.735  15.453 -23.379  0.00  0.00    -0.589 OA
ATOM     13  O   UNL d   1      31.952  16.145 -22.860  0.00  0.00    -0.589 OA
ENDBRANCH   1  10
BRANCH   2  14
ATOM     14  C   UNL d   1      31.927  17.234 -24.721  0.00  0.00     0.082 C 
BRANCH  14  15
ATOM     15  C   UNL d   1      32.036  18.021 -24.525  0.00  0.00     0.018 C 
ATOM     16  C   UNL d   1      31.997  18.614 -25.097  0.00  0.00     0.002 C 
ATOM     17  C   UNL d   1      32.190  18.255 -23.755  0.00  0.00     0.002 C 
ENDBRANCH  14  15
ENDBRANCH   2  14
TORSDOF 3
ENDMDL
MODEL 2
REMARK VINA RESULT:      -2.4      5.772      6.668
REMARK  3 active torsions:
REMARK  status: ('A' for Active; 'I' for Inactive)
REMARK    1  A    between atoms: S_3  and  C_1 
REMARK    2  A    between atoms: C_7  and  N_2 
REMARK    3  A    between atoms: C_13  and  C_7 
ROOT
ATOM      1  C   UNL d   1      32.496  22.445 -20.625  0.00  0.00     0.255 A 
ATOM      2  N   UNL d   1      32.879  22.526 -21.354  0.00  0.00    -0.278 N 
ATOM      3  N   UNL d   1      32.303  21.674 -20.493  0.00  0.00    -0.215 NA
ATOM      4  C   UNL d   1      32.928  21.767 -21.697  0.00  0.00     0.084 A 
ATOM      5  C   UNL d   1      32.573  21.241 -21.166  0.00  0.00     0.100 A 
ATOM      6  C   UNL d   1      33.240  21.482 -22.406  0.00  0.00     0.019 A 
ATOM      7  C   UNL d   1      32.532  20.435 -21.347  0.00  0.00     0.021 A 
ATOM      8  C   UNL d   1      33.201  20.679 -22.590  0.00  0.00     0.002 A 
ATOM      9  C   UNL d   1      32.846  20.154 -22.058  0.00  0.00     0.002 A 
ENDROOT
BRANCH   1  10
ATOM     10  S   UNL d   1      32.339  23.073 -20.109  0.00  0.00     0.174 S 
ATOM     11  O   UNL d   1      31.531  23.006 -20.275  0.00  0.00    -0.589 OA
ATOM     12  O   UNL d   1      32.181  23.699 -19.595  0.00  0.00    -0.589 OA
ATOM     13  O   UNL d   1      33.144  23.139 -19.944  0.00  0.00    -0.589 OA
ENDBRANCH   1  10
BRANCH   2  14
ATOM     14  C   UNL d   1      33.164  23.208 -21.698  0.00  0.00     0.082 C 
BRANCH  14  15
ATOM     15  C   UNL d   1      32.818  23.442 -22.401  0.00  0.00     0.018 C 
ATOM     16  C   UNL d   1      33.241  23.438 -23.109  0.00  0.00     0.002 C 
ATOM     17  C   UNL d   1      32.037  23.691 -22.435  0.00  0.00     0.002 C 
ENDBRANCH  14  15
ENDBRANCH   2  14
TORSDOF 3
ENDMDL
MODEL 3
REMARK VINA RESULT:      -2.2      6.279      7.420
REMARK  3 active torsions:
REMARK  status: ('A' for Active; 'I' for Inactive)
REMARK    1  A    between atoms: S_3  and  C_1 
REMARK    2  A    between atoms: C_7  and  N_2 
REMARK    3  A    between atoms: C_13  and  C_7 
ROOT
ATOM      1  C   UNL d   1      32.566  23.212 -21.246  0.00  0.00     0.255 A 
ATOM      2  N   UNL d   1      32.904  22.507 -20.975  0.00  0.00    -0.278 N 
ATOM      3  N   UNL d   1      32.407  23.702 -20.627  0.00  0.00    -0.215 NA
ATOM      4  C   UNL d   1      32.959  22.558 -20.144  0.00  0.00     0.084 A 
ATOM      5  C   UNL d   1      32.653  23.296 -19.929  0.00  0.00     0.100 A 
ATOM      6  C   UNL d   1      33.241  22.047 -19.560  0.00  0.00     0.019 A 
ATOM      7  C   UNL d   1      32.630  23.517 -19.132  0.00  0.00     0.021 A 
ATOM      8  C   UNL d   1      33.219  22.265 -18.765  0.00  0.00     0.002 A 
ATOM      9  C   UNL d   1      32.913  23.003 -18.551  0.00  0.00     0.002 A 
ENDROOT
BRANCH   1  10
ATOM     10  S   UNL d   1      32.416  23.381 -22.041  0.00  0.00     0.174 S 
ATOM     11  O   UNL d   1      33.214  23.568 -22.152  0.00  0.00    -0.589 OA
ATOM     12  O   UNL d   1      32.266  23.550 -22.836  0.00  0.00    -0.589 OA
ATOM     13  O   UNL d   1      31.620  23.195 -21.931  0.00  0.00    -0.589 OA
ENDBRANCH   1  10
BRANCH   2  14
ATOM     14  C   UNL d   1      33.146  21.865 -21.416  0.00  0.00     0.082 C 
BRANCH  14  15
ATOM     15  C   UNL d   1      32.780  21.150 -21.262  0.00  0.00     0.018 C 
ATOM     16  C   UNL d   1      33.212  20.449 -21.214  0.00  0.00     0.002 C 
ATOM     17  C   UNL d   1      31.970  21.096 -21.151  0.00  0.00     0.002 C 
ENDBRANCH  14  15
ENDBRANCH   2  14
TORSDOF 3
ENDMDL
MODEL 4
REMARK VINA RESULT:      -1.8      1.570      2.766
REMARK  3 active torsions:
REMARK  status: ('A' for Active; 'I' for Inactive)
REMARK    1  A    between atoms: S_3  and  C_1 
REMARK    2  A    between atoms: C_7  and  N_2 
REMARK    3  A    between atoms: C_13  and  C_7 
ROOT
ATOM      1  C   UNL d   1      30.704  17.220 -24.464  0.00  0.00     0.255 A 
ATOM      2  N   UNL d   1      31.384  16.986 -24.053  0.00  0.00    -0.278 N 
ATOM      3  N   UNL d   1      30.851  17.886 -24.893  0.00  0.00    -0.215 NA
ATOM      4  C   UNL d   1      31.987  17.533 -24.235  0.00  0.00     0.084 A 
ATOM      5  C   UNL d   1      31.658  18.088 -24.753  0.00  0.00     0.100 A 
ATOM      6  C   UNL d   1      32.777  17.605 -24.006  0.00  0.00     0.019 A 
ATOM      7  C   UNL d   1      32.122  18.711 -25.039  0.00  0.00     0.021 A 
ATOM      8  C   UNL d   1      33.241  18.225 -24.290  0.00  0.00     0.002 A 
ATOM      9  C   UNL d   1      32.912  18.780 -24.808  0.00  0.00     0.002 A 
ENDROOT
BRANCH   1  10
ATOM     10  S   UNL d   1      29.980  16.821 -24.432  0.00  0.00     0.174 S 
ATOM     11  O   UNL d   1      30.195  16.379 -25.097  0.00  0.00    -0.589 OA
ATOM     12  O   UNL d   1      29.258  16.422 -24.400  0.00  0.00    -0.589 OA
ATOM     13  O   UNL d   1      29.766  17.262 -23.769  0.00  0.00    -0.589 OA
ENDBRANCH   1  10
BRANCH   2  14
ATOM     14  C   UNL d   1      31.474  16.345 -23.558  0.00  0.00     0.082 C 
BRANCH  14  15
ATOM     15  C   UNL d   1      32.079  15.823 -23.734  0.00  0.00     0.018 C 
ATOM     16  C   UNL d   1      32.125  15.453 -24.470  0.00  0.00     0.002 C 
ATOM     17  C   UNL d   1      32.665  15.644 -23.190  0.00  0.00     0.002 C 
ENDBRANCH  14  15
ENDBRANCH   2  14
TORSDOF 3
ENDMDL
MODEL 5
REMARK VINA RESULT:      -1.5      1.638      2.586
REMARK  3 active torsions:
REMARK  status: ('A' for Active; 'I' for Inactive)
REMARK    1  A    between atoms: S_3  and  C_1 
REMARK    2  A    between atoms: C_7  and  N_2 
REMARK    3  A    between atoms: C_13  and  C_7 
ROOT
ATOM      1  C   UNL d   1      30.230  15.899 -23.974  0.00  0.00     0.255 A 
ATOM      2  N   UNL d   1      30.745  16.407 -24.376  0.00  0.00    -0.278 N 
ATOM      3  N   UNL d   1      30.632  15.466 -23.427  0.00  0.00    -0.215 NA
ATOM      4  C   UNL d   1      31.510  16.285 -24.064  0.00  0.00     0.084 A 
ATOM      5  C   UNL d   1      31.440  15.705 -23.479  0.00  0.00     0.100 A 
ATOM      6  C   UNL d   1      32.249  16.615 -24.227  0.00  0.00     0.019 A 
ATOM      7  C   UNL d   1      32.109  15.458 -23.060  0.00  0.00     0.021 A 
ATOM      8  C   UNL d   1      32.918  16.371 -23.811  0.00  0.00     0.002 A 
ATOM      9  C   UNL d   1      32.848  15.791 -23.226  0.00  0.00     0.002 A 
ENDROOT
BRANCH   1  10
ATOM     10  S   UNL d   1      29.417  15.849 -24.120  0.00  0.00     0.174 S 
ATOM     11  O   UNL d   1      29.265  16.224 -23.398  0.00  0.00    -0.589 OA
ATOM     12  O   UNL d   1      28.606  15.800 -24.266  0.00  0.00    -0.589 OA
ATOM     13  O   UNL d   1      29.569  15.476 -24.840  0.00  0.00    -0.589 OA
ENDBRANCH   1  10
BRANCH   2  14
ATOM     14  C   UNL d   1      30.566  16.936 -24.969  0.00  0.00     0.082 C 
BRANCH  14  15
ATOM     15  C   UNL d   1      30.702  17.728 -24.813  0.00  0.00     0.018 C 
ATOM     16  C   UNL d   1      30.174  18.172 -24.362  0.00  0.00     0.002 C 
ATOM     17  C   UNL d   1      31.367  18.114 -25.097  0.00  0.00     0.002 C 
ENDBRANCH  14  15
ENDBRANCH   2  14
TORSDOF 3
ENDMDL
MODEL 6
REMARK VINA RESULT:      -1.3      1.875      3.061
REMARK  3 active torsions:
REMARK  status: ('A' for Active; 'I' for Inactive)
REMARK    1  A    between atoms: S_3  and  C_1 
REMARK    2  A    between atoms: C_7  and  N_2 
REMARK    3  A    between atoms: C_13  and  C_7 
ROOT
ATOM      1  C   UNL d   1      30.107  17.074 -24.487  0.00  0.00     0.255 A 
ATOM      2  N   UNL d   1      30.517  16.484 -24.076  0.00  0.00    -0.278 N 
ATOM      3  N   UNL d   1      30.590  17.702 -24.634  0.00  0.00    -0.215 NA
ATOM      4  C   UNL d   1      31.297  16.757 -23.959  0.00  0.00     0.084 A 
ATOM      5  C   UNL d   1      31.342  17.508 -24.303  0.00  0.00     0.100 A 
ATOM      6  C   UNL d   1      31.963  16.434 -23.594  0.00  0.00     0.019 A 
ATOM      7  C   UNL d   1      32.053  17.931 -24.280  0.00  0.00     0.021 A 
ATOM      8  C   UNL d   1      32.673  16.854 -23.569  0.00  0.00     0.002 A 
ATOM      9  C   UNL d   1      32.718  17.604 -23.913  0.00  0.00     0.002 A 
ENDROOT
BRANCH   1  10
ATOM     10  S   UNL d   1      29.313  17.018 -24.712  0.00  0.00     0.174 S 
ATOM     11  O   UNL d   1      29.472  16.304 -25.097  0.00  0.00    -0.589 OA
ATOM     12  O   UNL d   1      28.520  16.962 -24.937  0.00  0.00    -0.589 OA
ATOM     13  O   UNL d   1      29.154  17.731 -24.328  0.00  0.00    -0.589 OA
ENDBRANCH   1  10
BRANCH   2  14
ATOM     14  C   UNL d   1      30.236  15.763 -23.821  0.00  0.00     0.082 C 
BRANCH  14  15
ATOM     15  C   UNL d   1      30.148  15.664 -23.013  0.00  0.00     0.018 C 
ATOM     16  C   UNL d   1      29.418  15.774 -22.645  0.00  0.00     0.002 C 
ATOM     17  C   UNL d   1      30.778  15.453 -22.534  0.00  0.00     0.002 C 
ENDBRANCH  14  15
ENDBRANCH   2  14
TORSDOF 3
ENDMDL
MODEL 7
REMARK VINA RESULT:      -1.1      2.054      3.045
REMARK  3 active torsions:
REMARK  status: ('A' for Active; 'I' for Inactive)
REMARK    1  A    between atoms: S_3  and  C_1 
REMARK    2  A    between atoms: C_7  and  N_2 
REMARK    3  A    between atoms: C_13  and  C_7 
ROOT
ATOM      1  C   UNL d   1      32.821  18.167 -23.887  0.00  0.00     0.255 A 
ATOM      2  N   UNL d   1      32.304  17.644 -24.267  0.00  0.00    -0.278 N 
ATOM      3  N   UNL d   1      33.237  17.783 -23.314  0.00  0.00    -0.215 NA
ATOM      4  C   UNL d   1      32.401  16.894 -23.914  0.00  0.00     0.084 A 
ATOM      5  C   UNL d   1      32.976  16.980 -23.326  0.00  0.00     0.100 A 
ATOM      6  C   UNL d   1      32.053  16.157 -24.042  0.00  0.00     0.019 A 
ATOM      7  C   UNL d   1      33.200  16.327 -22.869  0.00  0.00     0.021 A 
ATOM      8  C   UNL d   1      32.274  15.505 -23.588  0.00  0.00     0.002 A 
ATOM      9  C   UNL d   1      32.850  15.590 -23.000  0.00  0.00     0.002 A 
ENDROOT
BRANCH   1  10
ATOM     10  S   UNL d   1      32.895  18.969 -24.075  0.00  0.00     0.174 S 
ATOM     11  O   UNL d   1      32.576  19.171 -23.339  0.00  0.00    -0.589 OA
ATOM     12  O   UNL d   1      32.968  19.770 -24.263  0.00  0.00    -0.589 OA
ATOM     13  O   UNL d   1      33.213  18.767 -24.809  0.00  0.00    -0.589 OA
ENDBRANCH   1  10
BRANCH   2  14
ATOM     14  C   UNL d   1      31.787  17.805 -24.876  0.00  0.00     0.082 C 
BRANCH  14  15
ATOM     15  C   UNL d   1      31.013  17.558 -24.780  0.00  0.00     0.018 C 
ATOM     16  C   UNL d   1      30.749  16.844 -25.097  0.00  0.00     0.002 C 
ATOM     17  C   UNL d   1      30.466  18.007 -24.366  0.00  0.00     0.002 C 
ENDBRANCH  14  15
ENDBRANCH   2  14
TORSDOF 3
ENDMDL
MODEL 8
REMARK VINA RESULT:      -0.0      5.811      6.811
REMARK  3 active torsions:
REMARK  status: ('A' for Active; 'I' for Inactive)
REMARK    1  A    between atoms: S_3  and  C_1 
REMARK    2  A    between atoms: C_7  and  N_2 
REMARK    3  A    between atoms: C_13  and  C_7 
ROOT
ATOM      1  C   UNL d   1      32.539  21.558 -20.990  0.00  0.00     0.255 A 
ATOM      2  N   UNL d   1      32.920  22.280 -21.125  0.00  0.00    -0.278 N 
ATOM      3  N   UNL d   1      32.305  21.504 -20.221  0.00  0.00    -0.215 NA
ATOM      4  C   UNL d   1      32.925  22.700 -20.403  0.00  0.00     0.084 A 
ATOM      5  C   UNL d   1      32.545  22.221 -19.846  0.00  0.00     0.100 A 
ATOM      6  C   UNL d   1      33.216  23.438 -20.177  0.00  0.00     0.019 A 
ATOM      7  C   UNL d   1      32.459  22.483 -19.066  0.00  0.00     0.021 A 
ATOM      8  C   UNL d   1      33.132  23.702 -19.401  0.00  0.00     0.002 A 
ATOM      9  C   UNL d   1      32.752  23.224 -18.843  0.00  0.00     0.002 A 
ENDROOT
BRANCH   1  10
ATOM     10  S   UNL d   1      32.420  20.979 -21.569  0.00  0.00     0.174 S 
ATOM     11  O   UNL d   1      33.221  21.017 -21.771  0.00  0.00    -0.589 OA
ATOM     12  O   UNL d   1      32.300  20.402 -22.146  0.00  0.00    -0.589 OA
ATOM     13  O   UNL d   1      31.621  20.942 -21.366  0.00  0.00    -0.589 OA
ENDBRANCH   1  10
BRANCH   2  14
ATOM     14  C   UNL d   1      33.241  22.555 -21.822  0.00  0.00     0.082 C 
BRANCH  14  15
ATOM     15  C   UNL d   1      32.839  23.158 -22.202  0.00  0.00     0.018 C 
ATOM     16  C   UNL d   1      32.047  23.316 -22.036  0.00  0.00     0.002 C 
ATOM     17  C   UNL d   1      33.203  23.631 -22.764  0.00  0.00     0.002 C 
ENDBRANCH  14  15
ENDBRANCH   2  14
TORSDOF 3
ENDMDL
