MODEL 1
REMARK VINA RESULT:      19.5      0.000      0.000
REMARK  4 active torsions:
REMARK  status: ('A' for Active; 'I' for Inactive)
REMARK    1  A    between atoms: C_2  and  C_1 
REMARK    2  A    between atoms: C_4  and  C_2 
REMARK       I    between atoms: C_3  and  N_6 
REMARK    3  A    between atoms: C_7  and  C_3 
REMARK    4  A    between atoms: N_6  and  C_5 
ROOT
ATOM      1  C   UNL d   1      46.363 -18.465  43.377  0.00  0.00     0.058 A 
ATOM      2  C   UNL d   1      46.265 -17.888  43.988  0.00  0.00     0.088 A 
ATOM      3  C   UNL d   1      46.390 -19.244  43.564  0.00  0.00     0.016 A 
ATOM      4  C   UNL d   1      46.200 -18.166  44.763  0.00  0.00     0.020 A 
ATOM      5  C   UNL d   1      46.323 -19.495  44.347  0.00  0.00     0.058 A 
ATOM      6  C   UNL d   1      46.229 -18.968  44.942  0.00  0.00     0.013 A 
ATOM      7 CL   UNL d   1      46.355 -20.323  44.518  0.00  0.00    -0.082 Cl
ENDROOT
BRANCH   1   8
ATOM      8  C   UNL d   1      46.433 -18.241  42.586  0.00  0.00     0.198 C 
ATOM      9  O   UNL d   1      46.432 -17.433  42.411  0.00  0.00    -0.286 OA
BRANCH   8  10
ATOM     10  C   UNL d   1      46.501 -18.792  41.981  0.00  0.00     0.050 A 
ATOM     11  C   UNL d   1      46.524 -18.543  41.195  0.00  0.00     0.061 A 
ATOM     12 CL   UNL d   1      46.479 -17.732  40.982  0.00  0.00    -0.082 Cl
ATOM     13  C   UNL d   1      46.593 -19.104  40.586  0.00  0.00     0.011 A 
ATOM     14  C   UNL d   1      46.640 -19.909  40.765  0.00  0.00     0.001 A 
ATOM     15  C   UNL d   1      46.615 -20.132  41.559  0.00  0.00     0.000 A 
ATOM     16  C   UNL d   1      46.545 -19.570  42.168  0.00  0.00     0.004 A 
ENDBRANCH   8  10
ENDBRANCH   1   8
BRANCH   2  17
ATOM     17  N   UNL d   1      46.232 -17.055  43.819  0.00  0.00    -0.206 NA
ATOM     18  C   UNL d   1      45.815 -16.564  44.295  0.00  0.00     0.302 C 
ATOM     19  O   UNL d   1      45.412 -16.853  44.954  0.00  0.00    -0.263 OA
BRANCH  18  20
ATOM     20  C   UNL d   1      45.792 -15.757  44.120  0.00  0.00     0.158 A 
ATOM     21  O   UNL d   1      46.071 -15.325  43.492  0.00  0.00    -0.300 OA
ATOM     22  C   UNL d   1      45.884 -14.553  43.626  0.00  0.00     0.123 A 
ATOM     23  C   UNL d   1      45.502 -14.465  44.302  0.00  0.00     0.029 A 
ATOM     24  C   UNL d   1      45.429 -15.232  44.643  0.00  0.00     0.032 A 
ENDBRANCH  18  20
ENDBRANCH   2  17
TORSDOF 4
ENDMDL
