MODEL 1
REMARK VINA RESULT:       9.7      0.000      0.000
REMARK  6 active torsions:
REMARK  status: ('A' for Active; 'I' for Inactive)
REMARK    1  A    between atoms: C_7  and  C_1 
REMARK    2  A    between atoms: C_10  and  C_2 
REMARK    3  A    between atoms: C_8  and  C_7 
REMARK    4  A    between atoms: C_9  and  C_8 
REMARK    5  A    between atoms: C_13  and  C_9 
REMARK    6  A    between atoms: O_20  and  C_16 
ROOT
ATOM      1  C   UNL d   1     -41.483-122.579 -52.760  0.00  0.00     0.097 A 
ATOM      2  C   UNL d   1     -41.699-122.124 -53.413  0.00  0.00     0.009 A 
ATOM      3  C   UNL d   1     -41.341-123.383 -52.844  0.00  0.00     0.282 A 
ATOM      4  C   UNL d   1     -41.771-122.484 -54.152  0.00  0.00     0.019 A 
ATOM      5  N   UNL d   1     -41.414-123.739 -53.582  0.00  0.00    -0.208 NA
ATOM      6  C   UNL d   1     -41.630-123.288 -54.236  0.00  0.00     0.085 A 
ATOM      7  C   UNL d   1     -41.987-122.029 -54.805  0.00  0.00     0.013 A 
ATOM      8  O   UNL d   1     -41.123-123.817 -52.155  0.00  0.00    -0.265 OA
ATOM      9  C   UNL d   1     -41.702-123.644 -54.974  0.00  0.00     0.020 A 
ATOM     10  C   UNL d   1     -42.059-122.389 -55.544  0.00  0.00     0.058 A 
ATOM     11  C   UNL d   1     -41.918-123.193 -55.628  0.00  0.00     0.013 A 
ATOM     12 CL   UNL d   1     -42.277-121.947 -56.221  0.00  0.00    -0.082 Cl
ENDROOT
BRANCH   1  13
ATOM     13  C   UNL d   1     -41.401-122.236 -51.990  0.00  0.00     0.200 C 
ATOM     14  O   UNL d   1     -41.123-121.472 -51.916  0.00  0.00    -0.286 OA
BRANCH  13  15
ATOM     15  C   UNL d   1     -41.604-122.680 -51.324  0.00  0.00     0.042 C 
BRANCH  15  16
ATOM     16  C   UNL d   1     -41.727-122.310 -50.605  0.00  0.00     0.005 C 
BRANCH  16  17
ATOM     17  C   UNL d   1     -41.795-122.763 -49.924  0.00  0.00     0.022 A 
ATOM     18  C   UNL d   1     -42.529-122.827 -49.545  0.00  0.00     0.094 A 
ATOM     19  C   UNL d   1     -42.604-123.284 -48.853  0.00  0.00     0.024 A 
ATOM     20  C   UNL d   1     -41.945-123.666 -48.559  0.00  0.00     0.002 A 
ATOM     21  C   UNL d   1     -41.188-123.610 -48.935  0.00  0.00     0.000 A 
ATOM     22  C   UNL d   1     -41.128-123.159 -49.611  0.00  0.00     0.002 A 
BRANCH  18  23
ATOM     23  O   UNL d   1     -43.203-122.436 -49.846  0.00  0.00    -0.328 OA
ATOM     24  C   UNL d   1     -43.927-122.542 -49.500  0.00  0.00     0.181 C 
ENDBRANCH  18  23
ENDBRANCH  16  17
ENDBRANCH  15  16
ENDBRANCH  13  15
ENDBRANCH   1  13
BRANCH   2  25
ATOM     25  C   UNL d   1     -41.842-121.310 -53.327  0.00  0.00     0.000 A 
ATOM     26  C   UNL d   1     -41.216-120.787 -53.365  0.00  0.00     0.000 A 
ATOM     27  C   UNL d   1     -41.362-119.957 -53.278  0.00  0.00     0.000 A 
ATOM     28  C   UNL d   1     -42.126-119.696 -53.158  0.00  0.00     0.000 A 
ATOM     29  C   UNL d   1     -42.736-120.212 -53.122  0.00  0.00     0.000 A 
ATOM     30  C   UNL d   1     -42.610-121.034 -53.206  0.00  0.00     0.000 A 
ENDBRANCH   2  25
TORSDOF 6
ENDMDL
