MODEL 1
REMARK VINA RESULT:      45.4      0.000      0.000
REMARK  4 active torsions:
REMARK  status: ('A' for Active; 'I' for Inactive)
REMARK    1  A    between atoms: C_2  and  S_1 
REMARK    2  A    between atoms: N_4  and  S_1 
REMARK    3  A    between atoms: O_12  and  C_5 
REMARK    4  A    between atoms: O_13  and  C_7 
ROOT
ATOM      1  C   UNL d   1      59.184  49.572  50.776  0.00  0.00     0.128 A 
ATOM      2  C   UNL d   1      58.404  49.640  51.036  0.00  0.00     0.040 A 
ATOM      3  C   UNL d   1      59.348  49.492  49.975  0.00  0.00     0.107 A 
ATOM      4  C   UNL d   1      58.733  49.478  49.429  0.00  0.00     0.034 A 
ATOM      5  C   UNL d   1      57.789  49.626  50.490  0.00  0.00     0.101 A 
ATOM      6  C   UNL d   1      57.949  49.545  49.680  0.00  0.00     0.059 A 
ATOM      7 BR   UNL d   1      57.336  49.532  49.136  0.00  0.00    -0.047 Br
ENDROOT
BRANCH   1   8
ATOM      8  S   UNL d   1      59.804  49.586  51.325  0.00  0.00     0.273 S 
ATOM      9  O   UNL d   1      59.260  49.517  51.940  0.00  0.00    -0.200 OA
ATOM     10  O   UNL d   1      60.350  49.654  50.707  0.00  0.00    -0.200 OA
BRANCH   8  11
ATOM     11  N   UNL d   1      60.420  49.599  51.872  0.00  0.00    -0.229 N 
ATOM     12  C   UNL d   1      60.200  49.544  52.664  0.00  0.00     0.092 A 
ATOM     13  C   UNL d   1      60.678  49.542  53.335  0.00  0.00     0.020 A 
ATOM     14  C   UNL d   1      61.501  49.594  53.386  0.00  0.00     0.002 A 
ATOM     15  C   UNL d   1      62.044  49.662  52.766  0.00  0.00     0.002 A 
ATOM     16  C   UNL d   1      61.903  49.693  51.957  0.00  0.00     0.020 A 
ATOM     17  C   UNL d   1      61.184  49.666  51.551  0.00  0.00     0.092 A 
ENDBRANCH   8  11
ENDBRANCH   1   8
BRANCH   3  18
ATOM     18  O   UNL d   1      60.123  49.425  49.720  0.00  0.00    -0.327 OA
ATOM     19  C   UNL d   1      60.335  49.681  48.966  0.00  0.00     0.181 C 
ENDBRANCH   3  18
BRANCH   5  20
ATOM     20  O   UNL d   1      57.014  49.693  50.744  0.00  0.00    -0.328 OA
ATOM     21  C   UNL d   1      56.666  49.083  51.164  0.00  0.00     0.181 C 
ENDBRANCH   5  20
TORSDOF 4
ENDMDL
