MODEL 1
REMARK VINA RESULT:      -2.7      0.000      0.000
REMARK  5 active torsions:
REMARK  status: ('A' for Active; 'I' for Inactive)
REMARK    1  A    between atoms: N_3  and  S_1 
REMARK    2  A    between atoms: C_5  and  S_1 
REMARK    3  A    between atoms: C_2  and  C_6 
REMARK       I    between atoms: N_4  and  C_2 
REMARK    4  A    between atoms: C_11  and  N_3 
REMARK    5  A    between atoms: O_18  and  C_14 
ROOT
ATOM      1  C   UNL d   1      31.477  16.938 -24.003  0.00  0.00     0.058 A 
ATOM      2  C   UNL d   1      32.161  17.225 -23.650  0.00  0.00     0.025 A 
ATOM      3  C   UNL d   1      32.553  17.882 -23.962  0.00  0.00     0.094 A 
ATOM      4  C   UNL d   1      31.174  17.315 -24.683  0.00  0.00     0.005 A 
ATOM      5  C   UNL d   1      31.565  17.972 -24.994  0.00  0.00     0.002 A 
ATOM      6  C   UNL d   1      32.252  18.258 -24.639  0.00  0.00     0.020 A 
ENDROOT
BRANCH   3   7
ATOM      7  N   UNL d   1      33.237  18.167 -23.609  0.00  0.00    -0.158 NA
BRANCH   7   8
ATOM      8  S   UNL d   1      33.208  18.808 -23.096  0.00  0.00     0.285 S 
ATOM      9  O   UNL d   1      33.178  18.291 -22.454  0.00  0.00    -0.198 OA
ATOM     10  O   UNL d   1      33.237  19.328 -23.726  0.00  0.00    -0.198 OA
BRANCH   8  11
ATOM     11  C   UNL d   1      33.178  19.447 -22.577  0.00  0.00     0.107 A 
ATOM     12  C   UNL d   1      33.176  20.225 -22.873  0.00  0.00     0.037 A 
ATOM     13  C   UNL d   1      33.147  20.855 -22.353  0.00  0.00     0.095 A 
ATOM     14  C   UNL d   1      33.120  20.721 -21.541  0.00  0.00     0.024 A 
ATOM     15  C   UNL d   1      33.122  19.961 -21.244  0.00  0.00     0.003 A 
ATOM     16  C   UNL d   1      33.151  19.321 -21.763  0.00  0.00     0.013 A 
BRANCH  13  17
ATOM     17  O   UNL d   1      33.144  21.637 -22.647  0.00  0.00    -0.328 OA
ATOM     18  C   UNL d   1      33.045  22.285 -22.122  0.00  0.00     0.181 C 
ENDBRANCH  13  17
ENDBRANCH   8  11
ENDBRANCH   7   8
ENDBRANCH   3   7
BRANCH   1  19
ATOM     19  C   UNL d   1      31.093  16.283 -23.686  0.00  0.00     0.265 C 
ATOM     20  N   UNL d   1      30.274  16.307 -23.563  0.00  0.00    -0.268 N 
ATOM     21  C   UNL d   1      29.887  15.650 -23.245  0.00  0.00     0.110 A 
ATOM     22  C   UNL d   1      29.850  16.983 -23.757  0.00  0.00     0.110 A 
ATOM     23  C   UNL d   1      29.073  15.677 -23.124  0.00  0.00     0.142 A 
ATOM     24  O   UNL d   1      28.650  16.354 -23.318  0.00  0.00    -0.300 OA
ATOM     25  C   UNL d   1      29.028  17.010 -23.634  0.00  0.00     0.142 A 
ATOM     26  O   UNL d   1      31.516  15.607 -23.493  0.00  0.00    -0.267 OA
ENDBRANCH   1  19
TORSDOF 5
ENDMDL
MODEL 2
REMARK VINA RESULT:      -1.8      1.351      4.800
REMARK  5 active torsions:
REMARK  status: ('A' for Active; 'I' for Inactive)
REMARK    1  A    between atoms: N_3  and  S_1 
REMARK    2  A    between atoms: C_5  and  S_1 
REMARK    3  A    between atoms: C_2  and  C_6 
REMARK       I    between atoms: N_4  and  C_2 
REMARK    4  A    between atoms: C_11  and  N_3 
REMARK    5  A    between atoms: O_18  and  C_14 
ROOT
ATOM      1  C   UNL d   1      33.050  20.209 -22.585  0.00  0.00     0.058 A 
ATOM      2  C   UNL d   1      33.015  19.774 -23.280  0.00  0.00     0.025 A 
ATOM      3  C   UNL d   1      33.091  18.952 -23.268  0.00  0.00     0.094 A 
ATOM      4  C   UNL d   1      33.164  19.817 -21.857  0.00  0.00     0.005 A 
ATOM      5  C   UNL d   1      33.241  18.995 -21.844  0.00  0.00     0.002 A 
ATOM      6  C   UNL d   1      33.205  18.559 -22.544  0.00  0.00     0.020 A 
ENDROOT
BRANCH   3   7
ATOM      7  N   UNL d   1      33.056  18.518 -23.964  0.00  0.00    -0.158 NA
BRANCH   7   8
ATOM      8  S   UNL d   1      32.414  18.032 -24.122  0.00  0.00     0.285 S 
ATOM      9  O   UNL d   1      32.111  18.602 -24.636  0.00  0.00    -0.198 OA
ATOM     10  O   UNL d   1      32.706  17.461 -23.615  0.00  0.00    -0.198 OA
BRANCH   8  11
ATOM     11  C   UNL d   1      31.767  17.547 -24.284  0.00  0.00     0.107 A 
ATOM     12  C   UNL d   1      31.035  17.884 -24.490  0.00  0.00     0.037 A 
ATOM     13  C   UNL d   1      30.398  17.398 -24.650  0.00  0.00     0.095 A 
ATOM     14  C   UNL d   1      30.479  16.580 -24.607  0.00  0.00     0.024 A 
ATOM     15  C   UNL d   1      31.195  16.243 -24.406  0.00  0.00     0.003 A 
ATOM     16  C   UNL d   1      31.841  16.727 -24.244  0.00  0.00     0.013 A 
BRANCH  13  17
ATOM     17  O   UNL d   1      29.661  17.733 -24.857  0.00  0.00    -0.328 OA
ATOM     18  C   UNL d   1      29.024  17.725 -24.310  0.00  0.00     0.181 C 
ENDBRANCH  13  17
ENDBRANCH   8  11
ENDBRANCH   7   8
ENDBRANCH   3   7
BRANCH   1  19
ATOM     19  C   UNL d   1      32.973  21.028 -22.606  0.00  0.00     0.265 C 
ATOM     20  N   UNL d   1      32.624  21.425 -21.967  0.00  0.00    -0.268 N 
ATOM     21  C   UNL d   1      32.546  22.247 -21.987  0.00  0.00     0.110 A 
ATOM     22  C   UNL d   1      32.356  20.999 -21.318  0.00  0.00     0.110 A 
ATOM     23  C   UNL d   1      32.198  22.637 -21.351  0.00  0.00     0.142 A 
ATOM     24  O   UNL d   1      31.931  22.211 -20.703  0.00  0.00    -0.300 OA
ATOM     25  C   UNL d   1      32.005  21.394 -20.676  0.00  0.00     0.142 A 
ATOM     26  O   UNL d   1      33.241  21.454 -23.255  0.00  0.00    -0.267 OA
ENDBRANCH   1  19
TORSDOF 5
ENDMDL
MODEL 3
REMARK VINA RESULT:      -1.8      1.364      4.833
REMARK  5 active torsions:
REMARK  status: ('A' for Active; 'I' for Inactive)
REMARK    1  A    between atoms: N_3  and  S_1 
REMARK    2  A    between atoms: C_5  and  S_1 
REMARK    3  A    between atoms: C_2  and  C_6 
REMARK       I    between atoms: N_4  and  C_2 
REMARK    4  A    between atoms: C_11  and  N_3 
REMARK    5  A    between atoms: O_18  and  C_14 
ROOT
ATOM      1  C   UNL d   1      32.587  18.284 -24.095  0.00  0.00     0.058 A 
ATOM      2  C   UNL d   1      31.928  18.151 -24.567  0.00  0.00     0.025 A 
ATOM      3  C   UNL d   1      31.594  17.398 -24.623  0.00  0.00     0.094 A 
ATOM      4  C   UNL d   1      32.923  17.650 -23.667  0.00  0.00     0.005 A 
ATOM      5  C   UNL d   1      32.589  16.897 -23.723  0.00  0.00     0.002 A 
ATOM      6  C   UNL d   1      31.927  16.766 -24.198  0.00  0.00     0.020 A 
ENDROOT
BRANCH   3   7
ATOM      7  N   UNL d   1      30.935  17.267 -25.095  0.00  0.00    -0.158 NA
BRANCH   7   8
ATOM      8  S   UNL d   1      30.255  16.929 -24.782  0.00  0.00     0.285 S 
ATOM      9  O   UNL d   1      29.984  17.678 -24.565  0.00  0.00    -0.198 OA
ATOM     10  O   UNL d   1      30.515  16.183 -24.992  0.00  0.00    -0.198 OA
BRANCH   8  11
ATOM     11  C   UNL d   1      29.572  16.595 -24.466  0.00  0.00     0.107 A 
ATOM     12  C   UNL d   1      29.076  17.046 -23.974  0.00  0.00     0.037 A 
ATOM     13  C   UNL d   1      28.399  16.708 -23.664  0.00  0.00     0.095 A 
ATOM     14  C   UNL d   1      28.209  15.926 -23.837  0.00  0.00     0.024 A 
ATOM     15  C   UNL d   1      28.691  15.477 -24.319  0.00  0.00     0.003 A 
ATOM     16  C   UNL d   1      29.375  15.812 -24.635  0.00  0.00     0.013 A 
BRANCH  13  17
ATOM     17  O   UNL d   1      27.899  17.159 -23.169  0.00  0.00    -0.328 OA
ATOM     18  C   UNL d   1      27.263  16.790 -22.763  0.00  0.00     0.181 C 
ENDBRANCH  13  17
ENDBRANCH   8  11
ENDBRANCH   7   8
ENDBRANCH   3   7
BRANCH   1  19
ATOM     19  C   UNL d   1      32.914  19.037 -24.044  0.00  0.00     0.265 C 
ATOM     20  N   UNL d   1      32.913  19.437 -23.318  0.00  0.00    -0.268 N 
ATOM     21  C   UNL d   1      33.241  20.194 -23.266  0.00  0.00     0.110 A 
ATOM     22  C   UNL d   1      32.586  19.081 -22.655  0.00  0.00     0.110 A 
ATOM     23  C   UNL d   1      33.238  20.588 -22.543  0.00  0.00     0.142 A 
ATOM     24  O   UNL d   1      32.911  20.231 -21.880  0.00  0.00    -0.300 OA
ATOM     25  C   UNL d   1      32.584  19.480 -21.925  0.00  0.00     0.142 A 
ATOM     26  O   UNL d   1      33.240  19.393 -24.707  0.00  0.00    -0.267 OA
ENDBRANCH   1  19
TORSDOF 5
ENDMDL
MODEL 4
REMARK VINA RESULT:      -1.4      1.323      4.873
REMARK  5 active torsions:
REMARK  status: ('A' for Active; 'I' for Inactive)
REMARK    1  A    between atoms: N_3  and  S_1 
REMARK    2  A    between atoms: C_5  and  S_1 
REMARK    3  A    between atoms: C_2  and  C_6 
REMARK       I    between atoms: N_4  and  C_2 
REMARK    4  A    between atoms: C_11  and  N_3 
REMARK    5  A    between atoms: O_18  and  C_14 
ROOT
ATOM      1  C   UNL d   1      33.025  20.241 -22.214  0.00  0.00     0.058 A 
ATOM      2  C   UNL d   1      33.026  19.442 -22.405  0.00  0.00     0.025 A 
ATOM      3  C   UNL d   1      33.133  19.196 -23.185  0.00  0.00     0.094 A 
ATOM      4  C   UNL d   1      33.133  20.810 -22.815  0.00  0.00     0.005 A 
ATOM      5  C   UNL d   1      33.240  20.563 -23.595  0.00  0.00     0.002 A 
ATOM      6  C   UNL d   1      33.241  19.761 -23.786  0.00  0.00     0.020 A 
ENDROOT
BRANCH   3   7
ATOM      7  N   UNL d   1      33.134  18.397 -23.376  0.00  0.00    -0.158 NA
BRANCH   7   8
ATOM      8  S   UNL d   1      32.466  18.041 -23.694  0.00  0.00     0.285 S 
ATOM      9  O   UNL d   1      32.776  18.139 -24.452  0.00  0.00    -0.198 OA
ATOM     10  O   UNL d   1      32.150  17.939 -22.947  0.00  0.00    -0.198 OA
BRANCH   8  11
ATOM     11  C   UNL d   1      31.798  17.684 -24.018  0.00  0.00     0.107 A 
ATOM     12  C   UNL d   1      31.527  16.957 -23.719  0.00  0.00     0.037 A 
ATOM     13  C   UNL d   1      30.863  16.608 -24.045  0.00  0.00     0.095 A 
ATOM     14  C   UNL d   1      30.464  16.975 -24.665  0.00  0.00     0.024 A 
ATOM     15  C   UNL d   1      30.725  17.689 -24.963  0.00  0.00     0.003 A 
ATOM     16  C   UNL d   1      31.393  18.046 -24.639  0.00  0.00     0.013 A 
BRANCH  13  17
ATOM     17  O   UNL d   1      30.589  15.878 -23.747  0.00  0.00    -0.328 OA
ATOM     18  C   UNL d   1      29.799  15.631 -23.894  0.00  0.00     0.181 C 
ENDBRANCH  13  17
ENDBRANCH   8  11
ENDBRANCH   7   8
ENDBRANCH   3   7
BRANCH   1  19
ATOM     19  C   UNL d   1      32.918  20.478 -21.434  0.00  0.00     0.265 C 
ATOM     20  N   UNL d   1      32.613  21.232 -21.272  0.00  0.00    -0.268 N 
ATOM     21  C   UNL d   1      32.504  21.472 -20.488  0.00  0.00     0.110 A 
ATOM     22  C   UNL d   1      32.419  21.737 -21.890  0.00  0.00     0.110 A 
ATOM     23  C   UNL d   1      32.201  22.221 -20.331  0.00  0.00     0.142 A 
ATOM     24  O   UNL d   1      32.008  22.725 -20.950  0.00  0.00    -0.300 OA
ATOM     25  C   UNL d   1      32.113  22.493 -21.730  0.00  0.00     0.142 A 
ATOM     26  O   UNL d   1      33.111  19.974 -20.816  0.00  0.00    -0.267 OA
ENDBRANCH   1  19
TORSDOF 5
ENDMDL
MODEL 5
REMARK VINA RESULT:      -0.4      1.367      2.181
REMARK  5 active torsions:
REMARK  status: ('A' for Active; 'I' for Inactive)
REMARK    1  A    between atoms: N_3  and  S_1 
REMARK    2  A    between atoms: C_5  and  S_1 
REMARK    3  A    between atoms: C_2  and  C_6 
REMARK       I    between atoms: N_4  and  C_2 
REMARK    4  A    between atoms: C_11  and  N_3 
REMARK    5  A    between atoms: O_18  and  C_14 
ROOT
ATOM      1  C   UNL d   1      31.768  18.285 -24.203  0.00  0.00     0.058 A 
ATOM      2  C   UNL d   1      32.294  18.562 -23.636  0.00  0.00     0.025 A 
ATOM      3  C   UNL d   1      32.704  19.269 -23.751  0.00  0.00     0.094 A 
ATOM      4  C   UNL d   1      31.646  18.724 -24.903  0.00  0.00     0.005 A 
ATOM      5  C   UNL d   1      32.056  19.431 -25.017  0.00  0.00     0.002 A 
ATOM      6  C   UNL d   1      32.584  19.708 -24.447  0.00  0.00     0.020 A 
ENDROOT
BRANCH   3   7
ATOM      7  N   UNL d   1      33.230  19.545 -23.184  0.00  0.00    -0.158 NA
BRANCH   7   8
ATOM      8  S   UNL d   1      33.075  20.238 -22.771  0.00  0.00     0.285 S 
ATOM      9  O   UNL d   1      33.220  20.676 -23.454  0.00  0.00    -0.198 OA
ATOM     10  O   UNL d   1      32.930  19.812 -22.088  0.00  0.00    -0.198 OA
BRANCH   8  11
ATOM     11  C   UNL d   1      32.921  20.936 -22.361  0.00  0.00     0.107 A 
ATOM     12  C   UNL d   1      32.482  20.916 -21.655  0.00  0.00     0.037 A 
ATOM     13  C   UNL d   1      32.332  21.612 -21.253  0.00  0.00     0.095 A 
ATOM     14  C   UNL d   1      32.615  22.329 -21.544  0.00  0.00     0.024 A 
ATOM     15  C   UNL d   1      33.047  22.355 -22.237  0.00  0.00     0.003 A 
ATOM     16  C   UNL d   1      33.201  21.657 -22.647  0.00  0.00     0.013 A 
BRANCH  13  17
ATOM     17  O   UNL d   1      31.891  21.596 -20.544  0.00  0.00    -0.328 OA
ATOM     18  C   UNL d   1      31.709  22.312 -20.143  0.00  0.00     0.181 C 
ENDBRANCH  13  17
ENDBRANCH   8  11
ENDBRANCH   7   8
ENDBRANCH   3   7
BRANCH   1  19
ATOM     19  C   UNL d   1      31.364  17.579 -24.082  0.00  0.00     0.265 C 
ATOM     20  N   UNL d   1      31.786  16.867 -24.030  0.00  0.00    -0.268 N 
ATOM     21  C   UNL d   1      31.380  16.158 -23.908  0.00  0.00     0.110 A 
ATOM     22  C   UNL d   1      32.603  16.870 -24.101  0.00  0.00     0.110 A 
ATOM     23  C   UNL d   1      31.802  15.453 -23.858  0.00  0.00     0.142 A 
ATOM     24  O   UNL d   1      32.620  15.457 -23.928  0.00  0.00    -0.300 OA
ATOM     25  C   UNL d   1      33.029  16.158 -24.049  0.00  0.00     0.142 A 
ATOM     26  O   UNL d   1      30.546  17.576 -24.011  0.00  0.00    -0.267 OA
ENDBRANCH   1  19
TORSDOF 5
ENDMDL
MODEL 6
REMARK VINA RESULT:      -0.4      1.459      2.353
REMARK  5 active torsions:
REMARK  status: ('A' for Active; 'I' for Inactive)
REMARK    1  A    between atoms: N_3  and  S_1 
REMARK    2  A    between atoms: C_5  and  S_1 
REMARK    3  A    between atoms: C_2  and  C_6 
REMARK       I    between atoms: N_4  and  C_2 
REMARK    4  A    between atoms: C_11  and  N_3 
REMARK    5  A    between atoms: O_18  and  C_14 
ROOT
ATOM      1  C   UNL d   1      29.154  16.879 -24.707  0.00  0.00     0.058 A 
ATOM      2  C   UNL d   1      29.968  16.848 -24.810  0.00  0.00     0.025 A 
ATOM      3  C   UNL d   1      30.396  17.530 -24.993  0.00  0.00     0.094 A 
ATOM      4  C   UNL d   1      28.754  17.607 -24.787  0.00  0.00     0.005 A 
ATOM      5  C   UNL d   1      29.182  18.289 -24.969  0.00  0.00     0.002 A 
ATOM      6  C   UNL d   1      30.000  18.257 -25.073  0.00  0.00     0.020 A 
ENDROOT
BRANCH   3   7
ATOM      7  N   UNL d   1      31.210  17.499 -25.096  0.00  0.00    -0.158 NA
BRANCH   7   8
ATOM      8  S   UNL d   1      31.719  17.660 -24.472  0.00  0.00     0.285 S 
ATOM      9  O   UNL d   1      31.423  17.007 -24.063  0.00  0.00    -0.198 OA
ATOM     10  O   UNL d   1      32.018  18.309 -24.869  0.00  0.00    -0.198 OA
BRANCH   8  11
ATOM     11  C   UNL d   1      32.227  17.818 -23.843  0.00  0.00     0.107 A 
ATOM     12  C   UNL d   1      32.364  18.603 -23.605  0.00  0.00     0.037 A 
ATOM     13  C   UNL d   1      32.870  18.753 -22.980  0.00  0.00     0.095 A 
ATOM     14  C   UNL d   1      33.241  18.132 -22.589  0.00  0.00     0.024 A 
ATOM     15  C   UNL d   1      33.110  17.359 -22.817  0.00  0.00     0.003 A 
ATOM     16  C   UNL d   1      32.602  17.201 -23.446  0.00  0.00     0.013 A 
BRANCH  13  17
ATOM     17  O   UNL d   1      33.010  19.541 -22.739  0.00  0.00    -0.328 OA
ATOM     18  C   UNL d   1      32.738  19.808 -21.990  0.00  0.00     0.181 C 
ENDBRANCH  13  17
ENDBRANCH   8  11
ENDBRANCH   7   8
ENDBRANCH   3   7
BRANCH   1  19
ATOM     19  C   UNL d   1      28.735  16.195 -24.525  0.00  0.00     0.265 C 
ATOM     20  N   UNL d   1      28.224  16.187 -23.872  0.00  0.00    -0.268 N 
ATOM     21  C   UNL d   1      27.802  15.501 -23.688  0.00  0.00     0.110 A 
ATOM     22  C   UNL d   1      28.139  16.861 -23.411  0.00  0.00     0.110 A 
ATOM     23  C   UNL d   1      27.296  15.497 -23.040  0.00  0.00     0.142 A 
ATOM     24  O   UNL d   1      27.211  16.172 -22.579  0.00  0.00    -0.300 OA
ATOM     25  C   UNL d   1      27.627  16.856 -22.756  0.00  0.00     0.142 A 
ATOM     26  O   UNL d   1      28.820  15.521 -24.986  0.00  0.00    -0.267 OA
ENDBRANCH   1  19
TORSDOF 5
ENDMDL
