MODEL 1
REMARK VINA RESULT:      -6.0      0.000      0.000
REMARK  4 active torsions:
REMARK  status: ('A' for Active; 'I' for Inactive)
REMARK    1  A    between atoms: C_2  and  N_1 
REMARK       I    between atoms: C_3  and  N_1 
REMARK    2  A    between atoms: N_4  and  C_2 
REMARK    3  A    between atoms: C_7  and  C_3 
REMARK    4  A    between atoms: C_8  and  N_4 
ROOT
ATOM      1  C   UNL d   1     -41.253-122.808 -52.197  0.00  0.00     0.179 C 
ATOM      2  S   UNL d   1     -41.123-123.625 -52.168  0.00  0.00    -0.040 SA
ENDROOT
BRANCH   1   3
ATOM      3  N   UNL d   1     -41.514-122.452 -52.894  0.00  0.00    -0.299 N 
ATOM      4  C   UNL d   1     -41.447-122.863 -53.595  0.00  0.00     0.259 C 
ATOM      5  O   UNL d   1     -41.123-123.625 -53.609  0.00  0.00    -0.267 OA
ATOM      6  H   UNL d   1     -41.834-121.701 -52.880  0.00  0.00     0.171 HD
BRANCH   4   7
ATOM      7  C   UNL d   1     -41.710-122.508 -54.304  0.00  0.00     0.056 A 
ATOM      8  C   UNL d   1     -42.490-122.282 -54.382  0.00  0.00     0.005 A 
ATOM      9  C   UNL d   1     -42.755-121.931 -55.080  0.00  0.00     0.000 A 
ATOM     10  C   UNL d   1     -42.222-121.811 -55.698  0.00  0.00     0.000 A 
ATOM     11  C   UNL d   1     -41.442-122.036 -55.620  0.00  0.00     0.000 A 
ATOM     12  C   UNL d   1     -41.177-122.387 -54.922  0.00  0.00     0.005 A 
ENDBRANCH   4   7
ENDBRANCH   1   3
BRANCH   1  13
ATOM     13  N   UNL d   1     -41.124-122.340 -51.529  0.00  0.00    -0.332 N 
ATOM     14  H   UNL d   1     -40.608-121.710 -51.561  0.00  0.00     0.168 HD
BRANCH  13  15
ATOM     15  C   UNL d   1     -41.522-122.519 -50.835  0.00  0.00     0.058 A 
ATOM     16  C   UNL d   1     -41.230-123.096 -50.318  0.00  0.00     0.018 A 
ATOM     17  C   UNL d   1     -41.643-123.260 -49.628  0.00  0.00     0.013 A 
ATOM     18  C   UNL d   1     -42.334-122.869 -49.439  0.00  0.00     0.058 A 
ATOM     19  C   UNL d   1     -42.627-122.292 -49.956  0.00  0.00     0.013 A 
ATOM     20 CL   UNL d   1     -42.743-123.034 -48.752  0.00  0.00    -0.082 Cl
ATOM     21  C   UNL d   1     -42.224-122.114 -50.654  0.00  0.00     0.018 A 
ENDBRANCH  13  15
ENDBRANCH   1  13
TORSDOF 4
ENDMDL
MODEL 2
REMARK VINA RESULT:      -5.3      1.954      4.603
REMARK  4 active torsions:
REMARK  status: ('A' for Active; 'I' for Inactive)
REMARK    1  A    between atoms: C_2  and  N_1 
REMARK       I    between atoms: C_3  and  N_1 
REMARK    2  A    between atoms: N_4  and  C_2 
REMARK    3  A    between atoms: C_7  and  C_3 
REMARK    4  A    between atoms: C_8  and  N_4 
ROOT
ATOM      1  C   UNL d   1     -41.366-122.439 -51.953  0.00  0.00     0.179 C 
ATOM      2  S   UNL d   1     -41.207-121.627 -51.933  0.00  0.00    -0.040 SA
ENDROOT
BRANCH   1   3
ATOM      3  N   UNL d   1     -41.769-122.801 -51.330  0.00  0.00    -0.299 N 
ATOM      4  C   UNL d   1     -41.645-122.529 -50.572  0.00  0.00     0.259 C 
ATOM      5  O   UNL d   1     -41.125-121.901 -50.426  0.00  0.00    -0.267 OA
ATOM      6  H   UNL d   1     -42.281-123.419 -51.474  0.00  0.00     0.171 HD
BRANCH   4   7
ATOM      7  C   UNL d   1     -42.050-122.891 -49.937  0.00  0.00     0.056 A 
ATOM      8  C   UNL d   1     -41.674-123.454 -49.481  0.00  0.00     0.005 A 
ATOM      9  C   UNL d   1     -42.069-123.815 -48.854  0.00  0.00     0.000 A 
ATOM     10  C   UNL d   1     -42.849-123.601 -48.691  0.00  0.00     0.000 A 
ATOM     11  C   UNL d   1     -43.226-123.038 -49.147  0.00  0.00     0.000 A 
ATOM     12  C   UNL d   1     -42.831-122.677 -49.775  0.00  0.00     0.005 A 
ENDBRANCH   4   7
ENDBRANCH   1   3
BRANCH   1  13
ATOM     13  N   UNL d   1     -41.123-122.896 -52.595  0.00  0.00    -0.332 N 
ATOM     14  H   UNL d   1     -40.589-123.504 -52.491  0.00  0.00     0.168 HD
BRANCH  13  15
ATOM     15  C   UNL d   1     -41.425-122.730 -53.339  0.00  0.00     0.058 A 
ATOM     16  C   UNL d   1     -41.842-122.028 -53.477  0.00  0.00     0.018 A 
ATOM     17  C   UNL d   1     -42.136-121.880 -54.230  0.00  0.00     0.013 A 
ATOM     18  C   UNL d   1     -42.028-122.407 -54.844  0.00  0.00     0.058 A 
ATOM     19  C   UNL d   1     -41.611-123.109 -54.705  0.00  0.00     0.013 A 
ATOM     20 CL   UNL d   1     -42.322-122.258 -55.590  0.00  0.00    -0.082 Cl
ATOM     21  C   UNL d   1     -41.309-123.274 -53.956  0.00  0.00     0.018 A 
ENDBRANCH  13  15
ENDBRANCH   1  13
TORSDOF 4
ENDMDL
