MODEL 1
REMARK VINA RESULT:      19.0      0.000      0.000
REMARK  6 active torsions:
REMARK  status: ('A' for Active; 'I' for Inactive)
REMARK    1  A    between atoms: C_10  and  C_3 
REMARK    2  A    between atoms: N_12  and  C_4 
REMARK    3  A    between atoms: N_11  and  C_14 
REMARK    4  A    between atoms: C_19  and  N_12 
REMARK    5  A    between atoms: C_14  and  C_15 
REMARK    6  A    between atoms: C_15  and  C_19 
ROOT
ATOM      1  C   UNL d   1      46.191 -18.434  43.231  0.00  0.00     0.167 A 
ATOM      2  N   UNL d   1      46.115 -17.710  43.620  0.00  0.00    -0.195 N 
ATOM      3  C   UNL d   1      46.312 -18.279  42.434  0.00  0.00     0.057 A 
ATOM      4  C   UNL d   1      45.988 -17.690  44.433  0.00  0.00     0.167 A 
ATOM      5  N   UNL d   1      46.189 -17.115  43.059  0.00  0.00    -0.161 NA
ATOM      6  N   UNL d   1      46.141 -19.138  43.656  0.00  0.00    -0.227 NA
ATOM      7  C   UNL d   1      45.937 -18.400  44.859  0.00  0.00     0.058 A 
ATOM      8  C   UNL d   1      46.309 -17.460  42.335  0.00  0.00     0.124 A 
ATOM      9  C   UNL d   1      46.013 -19.116  44.475  0.00  0.00     0.086 A 
ATOM     10  C   UNL d   1      45.959 -19.810  44.920  0.00  0.00     0.021 C 
ENDROOT
BRANCH   4  11
ATOM     11  N   UNL d   1      45.912 -16.967  44.822  0.00  0.00    -0.225 NA
BRANCH  11  12
ATOM     12  C   UNL d   1      46.470 -16.372  44.701  0.00  0.00     0.102 C 
BRANCH  12  13
ATOM     13  C   UNL d   1      46.298 -15.587  44.922  0.00  0.00     0.040 C 
BRANCH  13  14
ATOM     14  C   UNL d   1      45.544 -15.284  44.801  0.00  0.00     0.082 C 
BRANCH  14  15
ATOM     15  N   UNL d   1      45.449 -14.491  44.579  0.00  0.00    -0.299 N 
ATOM     16  C   UNL d   1      44.760 -14.247  44.187  0.00  0.00     0.107 A 
ATOM     17  C   UNL d   1      44.666 -13.458  43.966  0.00  0.00     0.142 A 
ATOM     18  O   UNL d   1      45.260 -12.909  44.136  0.00  0.00    -0.300 OA
ATOM     19  C   UNL d   1      45.945 -13.149  44.525  0.00  0.00     0.142 A 
ATOM     20  C   UNL d   1      46.039 -13.938  44.746  0.00  0.00     0.107 A 
ENDBRANCH  14  15
ENDBRANCH  13  14
ENDBRANCH  12  13
ENDBRANCH  11  12
ENDBRANCH   4  11
BRANCH   3  21
ATOM     21  C   UNL d   1      46.409 -18.899  41.895  0.00  0.00     0.004 A 
ATOM     22  C   UNL d   1      46.502 -18.738  41.100  0.00  0.00     0.000 A 
ATOM     23  C   UNL d   1      46.600 -19.349  40.559  0.00  0.00     0.000 A 
ATOM     24  C   UNL d   1      46.602 -20.137  40.831  0.00  0.00     0.000 A 
ATOM     25  C   UNL d   1      46.507 -20.289  41.636  0.00  0.00     0.000 A 
ATOM     26  C   UNL d   1      46.412 -19.676  42.162  0.00  0.00     0.000 A 
ENDBRANCH   3  21
TORSDOF 6
ENDMDL
