MODEL 1
REMARK VINA RESULT:      16.2      0.000      0.000
REMARK  1 active torsions:
REMARK  status: ('A' for Active; 'I' for Inactive)
REMARK    1  A    between atoms: C_6  and  C_1 
ROOT
ATOM      1  C   UNL d   1     -51.668  25.160  33.340  0.00  0.00     0.162 A 
ATOM      2  N   UNL d   1     -51.646  24.368  33.376  0.00  0.00    -0.225 NA
ATOM      3  N   UNL d   1     -52.465  25.388  33.306  0.00  0.00    -0.225 NA
ATOM      4  C   UNL d   1     -52.407  24.067  33.367  0.00  0.00     0.101 A 
ATOM      5  C   UNL d   1     -52.923  24.710  33.323  0.00  0.00     0.101 A 
ATOM      6  C   UNL d   1     -52.671  23.315  33.393  0.00  0.00     0.021 A 
ATOM      7  C   UNL d   1     -53.696  24.591  33.306  0.00  0.00     0.021 A 
ATOM      8  C   UNL d   1     -53.497  23.193  33.375  0.00  0.00     0.002 A 
ATOM      9  C   UNL d   1     -54.013  23.836  33.330  0.00  0.00     0.002 A 
ENDROOT
BRANCH   1  10
ATOM     10  C   UNL d   1     -51.102  25.686  33.333  0.00  0.00     0.036 A 
ATOM     11  C   UNL d   1     -50.316  25.437  33.317  0.00  0.00     0.005 A 
ATOM     12  C   UNL d   1     -49.704  26.012  33.309  0.00  0.00     0.021 A 
ATOM     13  C   UNL d   1     -49.926  26.830  33.319  0.00  0.00     0.103 A 
ATOM     14  C   UNL d   1     -50.690  27.057  33.335  0.00  0.00     0.021 A 
ATOM     15  N   UNL d   1     -49.355  27.443  33.312  0.00  0.00    -0.148 N 
ATOM     16  C   UNL d   1     -51.302  26.482  33.342  0.00  0.00     0.005 A 
ENDBRANCH   1  10
TORSDOF 1
ENDMDL
MODEL 2
REMARK VINA RESULT:      16.6      0.884      3.644
REMARK  1 active torsions:
REMARK  status: ('A' for Active; 'I' for Inactive)
REMARK    1  A    between atoms: C_6  and  C_1 
ROOT
ATOM      1  C   UNL d   1     -51.568  25.397  33.334  0.00  0.00     0.162 A 
ATOM      2  N   UNL d   1     -50.777  25.340  33.354  0.00  0.00    -0.225 NA
ATOM      3  N   UNL d   1     -51.761  26.204  33.314  0.00  0.00    -0.225 NA
ATOM      4  C   UNL d   1     -50.443  26.087  33.348  0.00  0.00     0.101 A 
ATOM      5  C   UNL d   1     -51.063  26.632  33.323  0.00  0.00     0.101 A 
ATOM      6  C   UNL d   1     -49.679  26.317  33.362  0.00  0.00     0.021 A 
ATOM      7  C   UNL d   1     -50.910  27.398  33.312  0.00  0.00     0.021 A 
ATOM      8  C   UNL d   1     -49.521  27.136  33.351  0.00  0.00     0.002 A 
ATOM      9  C   UNL d   1     -50.141  27.681  33.325  0.00  0.00     0.002 A 
ENDROOT
BRANCH   1  10
ATOM     10  C   UNL d   1     -52.119  24.856  33.330  0.00  0.00     0.036 A 
ATOM     11  C   UNL d   1     -51.906  24.059  33.341  0.00  0.00     0.005 A 
ATOM     12  C   UNL d   1     -52.508  23.473  33.338  0.00  0.00     0.021 A 
ATOM     13  C   UNL d   1     -53.314  23.732  33.323  0.00  0.00     0.103 A 
ATOM     14  C   UNL d   1     -53.507  24.505  33.313  0.00  0.00     0.021 A 
ATOM     15  N   UNL d   1     -53.953  23.189  33.319  0.00  0.00    -0.148 N 
ATOM     16  C   UNL d   1     -52.905  25.091  33.316  0.00  0.00     0.005 A 
ENDBRANCH   1  10
TORSDOF 1
ENDMDL
