MODEL 1
REMARK VINA RESULT:      -9.5      0.000      0.000
REMARK  2 active torsions:
REMARK  status: ('A' for Active; 'I' for Inactive)
REMARK       I    between atoms: C_9  and  N_1 
REMARK    1  A    between atoms: C_5  and  C_3 
REMARK    2  A    between atoms: C_8  and  C_4 
ROOT
ATOM      1  N   UNL d   1      52.837  32.480  53.395  0.00  0.00    -0.193 N 
ATOM      2  N   UNL d   1      52.174  32.644  52.963  0.00  0.00    -0.162 NA
ATOM      3  C   UNL d   1      53.028  33.152  53.836  0.00  0.00     0.110 A 
ATOM      4  C   UNL d   1      51.938  33.420  53.124  0.00  0.00     0.109 A 
ATOM      5  C   UNL d   1      52.478  33.715  53.664  0.00  0.00     0.043 A 
ATOM      6  C   UNL d   1      53.353  31.691  53.441  0.00  0.00     0.281 C 
ATOM      7  O   UNL d   1      53.990  31.698  53.929  0.00  0.00    -0.265 OA
ATOM      8  C   UNL d   1      53.162  31.019  53.001  0.00  0.00     0.068 C 
ENDROOT
BRANCH   3   9
ATOM      9  C   UNL d   1      53.656  33.211  54.340  0.00  0.00     0.118 A 
ATOM     10  O   UNL d   1      54.349  33.632  54.184  0.00  0.00    -0.306 OA
ATOM     11  C   UNL d   1      54.846  33.546  54.847  0.00  0.00     0.100 A 
ATOM     12  C   UNL d   1      55.607  33.888  54.917  0.00  0.00     0.027 C 
ATOM     13  C   UNL d   1      54.471  33.078  55.413  0.00  0.00     0.027 A 
ATOM     14  C   UNL d   1      53.739  32.874  55.097  0.00  0.00     0.028 A 
ENDBRANCH   3   9
BRANCH   4  15
ATOM     15  C   UNL d   1      51.287  33.815  52.803  0.00  0.00     0.049 A 
ATOM     16  S   UNL d   1      50.605  33.987  53.191  0.00  0.00    -0.085 SA
ATOM     17  C   UNL d   1      50.114  34.374  52.682  0.00  0.00     0.035 A 
ATOM     18  C   UNL d   1      50.511  34.440  51.960  0.00  0.00     0.007 A 
ATOM     19  C   UNL d   1      51.237  34.092  52.041  0.00  0.00     0.009 A 
ENDBRANCH   4  15
TORSDOF 2
ENDMDL
MODEL 2
REMARK VINA RESULT:      -9.2      1.017      2.345
REMARK  2 active torsions:
REMARK  status: ('A' for Active; 'I' for Inactive)
REMARK       I    between atoms: C_9  and  N_1 
REMARK    1  A    between atoms: C_5  and  C_3 
REMARK    2  A    between atoms: C_8  and  C_4 
ROOT
ATOM      1  N   UNL d   1      53.289  32.556  53.389  0.00  0.00    -0.193 N 
ATOM      2  N   UNL d   1      52.875  33.241  53.273  0.00  0.00    -0.162 NA
ATOM      3  C   UNL d   1      52.785  31.922  53.223  0.00  0.00     0.110 A 
ATOM      4  C   UNL d   1      52.108  33.049  53.032  0.00  0.00     0.109 A 
ATOM      5  C   UNL d   1      52.073  32.232  53.007  0.00  0.00     0.043 A 
ATOM      6  C   UNL d   1      54.181  32.423  53.664  0.00  0.00     0.281 C 
ATOM      7  O   UNL d   1      54.436  31.666  53.730  0.00  0.00    -0.265 OA
ATOM      8  C   UNL d   1      54.685  33.057  53.830  0.00  0.00     0.068 C 
ENDROOT
BRANCH   3   9
ATOM      9  C   UNL d   1      52.991  31.142  53.273  0.00  0.00     0.118 A 
ATOM     10  O   UNL d   1      52.936  30.683  53.956  0.00  0.00    -0.306 OA
ATOM     11  C   UNL d   1      53.205  29.918  53.763  0.00  0.00     0.100 A 
ATOM     12  C   UNL d   1      53.240  29.278  54.301  0.00  0.00     0.027 C 
ATOM     13  C   UNL d   1      53.425  29.896  52.968  0.00  0.00     0.027 A 
ATOM     14  C   UNL d   1      53.293  30.652  52.671  0.00  0.00     0.028 A 
ENDBRANCH   3   9
BRANCH   4  15
ATOM     15  C   UNL d   1      51.500  33.579  52.853  0.00  0.00     0.049 A 
ATOM     16  S   UNL d   1      50.850  33.717  53.305  0.00  0.00    -0.085 SA
ATOM     17  C   UNL d   1      50.396  34.271  52.934  0.00  0.00     0.035 A 
ATOM     18  C   UNL d   1      50.782  34.477  52.234  0.00  0.00     0.007 A 
ATOM     19  C   UNL d   1      51.465  34.046  52.189  0.00  0.00     0.009 A 
ENDBRANCH   4  15
TORSDOF 2
ENDMDL
MODEL 3
REMARK VINA RESULT:      -8.9      1.572      3.741
REMARK  2 active torsions:
REMARK  status: ('A' for Active; 'I' for Inactive)
REMARK       I    between atoms: C_9  and  N_1 
REMARK    1  A    between atoms: C_5  and  C_3 
REMARK    2  A    between atoms: C_8  and  C_4 
ROOT
ATOM      1  N   UNL d   1      52.882  33.098  53.738  0.00  0.00    -0.193 N 
ATOM      2  N   UNL d   1      53.264  32.400  53.882  0.00  0.00    -0.162 NA
ATOM      3  C   UNL d   1      52.275  32.950  53.197  0.00  0.00     0.110 A 
ATOM      4  C   UNL d   1      52.905  31.804  53.436  0.00  0.00     0.109 A 
ATOM      5  C   UNL d   1      52.298  32.164  53.021  0.00  0.00     0.043 A 
ATOM      6  C   UNL d   1      53.041  33.961  54.084  0.00  0.00     0.281 C 
ATOM      7  O   UNL d   1      52.560  34.551  53.832  0.00  0.00    -0.265 OA
ATOM      8  C   UNL d   1      53.647  34.109  54.625  0.00  0.00     0.068 C 
ENDROOT
BRANCH   3   9
ATOM      9  C   UNL d   1      51.765  33.507  52.911  0.00  0.00     0.118 A 
ATOM     10  O   UNL d   1      51.001  33.637  53.196  0.00  0.00    -0.306 OA
ATOM     11  C   UNL d   1      50.672  34.258  52.747  0.00  0.00     0.100 A 
ATOM     12  C   UNL d   1      49.902  34.565  52.856  0.00  0.00     0.027 C 
ATOM     13  C   UNL d   1      51.222  34.514  52.188  0.00  0.00     0.027 A 
ATOM     14  C   UNL d   1      51.893  34.050  52.292  0.00  0.00     0.028 A 
ENDBRANCH   3   9
BRANCH   4  15
ATOM     15  C   UNL d   1      53.119  31.006  53.415  0.00  0.00     0.049 A 
ATOM     16  S   UNL d   1      52.681  30.412  53.097  0.00  0.00    -0.085 SA
ATOM     17  C   UNL d   1      53.085  29.721  53.190  0.00  0.00     0.035 A 
ATOM     18  C   UNL d   1      53.792  29.900  53.577  0.00  0.00     0.007 A 
ATOM     19  C   UNL d   1      53.807  30.697  53.714  0.00  0.00     0.009 A 
ENDBRANCH   4  15
TORSDOF 2
ENDMDL
MODEL 4
REMARK VINA RESULT:      -8.8      1.495      3.617
REMARK  2 active torsions:
REMARK  status: ('A' for Active; 'I' for Inactive)
REMARK       I    between atoms: C_9  and  N_1 
REMARK    1  A    between atoms: C_5  and  C_3 
REMARK    2  A    between atoms: C_8  and  C_4 
ROOT
ATOM      1  N   UNL d   1      52.900  32.617  53.377  0.00  0.00    -0.193 N 
ATOM      2  N   UNL d   1      53.552  32.542  53.850  0.00  0.00    -0.162 NA
ATOM      3  C   UNL d   1      52.655  33.405  53.403  0.00  0.00     0.110 A 
ATOM      4  C   UNL d   1      53.726  33.280  54.179  0.00  0.00     0.109 A 
ATOM      5  C   UNL d   1      53.161  33.798  53.891  0.00  0.00     0.043 A 
ATOM      6  C   UNL d   1      52.447  31.971  52.861  0.00  0.00     0.281 C 
ATOM      7  O   UNL d   1      51.808  32.217  52.444  0.00  0.00    -0.265 OA
ATOM      8  C   UNL d   1      52.692  31.183  52.835  0.00  0.00     0.068 C 
ENDROOT
BRANCH   3   9
ATOM      9  C   UNL d   1      52.020  33.705  53.004  0.00  0.00     0.118 A 
ATOM     10  O   UNL d   1      51.270  33.819  53.328  0.00  0.00    -0.306 OA
ATOM     11  C   UNL d   1      50.786  34.136  52.728  0.00  0.00     0.100 A 
ATOM     12  C   UNL d   1      49.979  34.335  52.824  0.00  0.00     0.027 C 
ATOM     13  C   UNL d   1      51.226  34.220  52.035  0.00  0.00     0.027 A 
ATOM     14  C   UNL d   1      51.985  33.953  52.209  0.00  0.00     0.028 A 
ENDBRANCH   3   9
BRANCH   4  15
ATOM     15  C   UNL d   1      54.347  33.456  54.696  0.00  0.00     0.049 A 
ATOM     16  S   UNL d   1      54.312  33.425  55.498  0.00  0.00    -0.085 SA
ATOM     17  C   UNL d   1      55.032  33.637  55.791  0.00  0.00     0.035 A 
ATOM     18  C   UNL d   1      55.521  33.803  55.147  0.00  0.00     0.007 A 
ATOM     19  C   UNL d   1      55.091  33.690  54.471  0.00  0.00     0.009 A 
ENDBRANCH   4  15
TORSDOF 2
ENDMDL
MODEL 5
REMARK VINA RESULT:      -8.4      1.472      2.819
REMARK  2 active torsions:
REMARK  status: ('A' for Active; 'I' for Inactive)
REMARK       I    between atoms: C_9  and  N_1 
REMARK    1  A    between atoms: C_5  and  C_3 
REMARK    2  A    between atoms: C_8  and  C_4 
ROOT
ATOM      1  N   UNL d   1      53.075  32.727  53.573  0.00  0.00    -0.193 N 
ATOM      2  N   UNL d   1      52.750  32.064  53.244  0.00  0.00    -0.162 NA
ATOM      3  C   UNL d   1      53.706  32.492  54.051  0.00  0.00     0.110 A 
ATOM      4  C   UNL d   1      53.172  31.403  53.508  0.00  0.00     0.109 A 
ATOM      5  C   UNL d   1      53.757  31.689  54.004  0.00  0.00     0.043 A 
ATOM      6  C   UNL d   1      52.832  33.633  53.479  0.00  0.00     0.281 C 
ATOM      7  O   UNL d   1      53.267  34.173  53.883  0.00  0.00    -0.265 OA
ATOM      8  C   UNL d   1      52.201  33.869  53.001  0.00  0.00     0.068 C 
ENDROOT
BRANCH   3   9
ATOM      9  C   UNL d   1      54.174  32.993  54.478  0.00  0.00     0.118 A 
ATOM     10  O   UNL d   1      54.915  33.267  54.237  0.00  0.00    -0.306 OA
ATOM     11  C   UNL d   1      55.202  33.767  54.839  0.00  0.00     0.100 A 
ATOM     12  C   UNL d   1      55.939  34.163  54.816  0.00  0.00     0.027 C 
ATOM     13  C   UNL d   1      54.649  33.808  55.450  0.00  0.00     0.027 A 
ATOM     14  C   UNL d   1      54.018  33.330  55.224  0.00  0.00     0.028 A 
ENDBRANCH   3   9
BRANCH   4  15
ATOM     15  C   UNL d   1      53.028  30.614  53.309  0.00  0.00     0.049 A 
ATOM     16  S   UNL d   1      53.005  29.997  53.823  0.00  0.00    -0.085 SA
ATOM     17  C   UNL d   1      52.851  29.325  53.407  0.00  0.00     0.035 A 
ATOM     18  C   UNL d   1      52.777  29.539  52.613  0.00  0.00     0.007 A 
ATOM     19  C   UNL d   1      52.888  30.338  52.558  0.00  0.00     0.009 A 
ENDBRANCH   4  15
TORSDOF 2
ENDMDL
MODEL 6
REMARK VINA RESULT:      -8.1      1.656      3.689
REMARK  2 active torsions:
REMARK  status: ('A' for Active; 'I' for Inactive)
REMARK       I    between atoms: C_9  and  N_1 
REMARK    1  A    between atoms: C_5  and  C_3 
REMARK    2  A    between atoms: C_8  and  C_4 
ROOT
ATOM      1  N   UNL d   1      53.033  32.489  53.460  0.00  0.00    -0.193 N 
ATOM      2  N   UNL d   1      53.398  33.121  53.809  0.00  0.00    -0.162 NA
ATOM      3  C   UNL d   1      53.460  31.809  53.653  0.00  0.00     0.110 A 
ATOM      4  C   UNL d   1      54.058  32.849  54.225  0.00  0.00     0.109 A 
ATOM      5  C   UNL d   1      54.079  32.038  54.116  0.00  0.00     0.043 A 
ATOM      6  C   UNL d   1      52.260  32.456  52.921  0.00  0.00     0.281 C 
ATOM      7  O   UNL d   1      52.031  31.735  52.653  0.00  0.00    -0.265 OA
ATOM      8  C   UNL d   1      51.832  33.136  52.728  0.00  0.00     0.068 C 
ENDROOT
BRANCH   3   9
ATOM      9  C   UNL d   1      53.273  31.062  53.410  0.00  0.00     0.118 A 
ATOM     10  O   UNL d   1      52.976  30.467  53.900  0.00  0.00    -0.306 OA
ATOM     11  C   UNL d   1      52.862  29.791  53.426  0.00  0.00     0.100 A 
ATOM     12  C   UNL d   1      52.567  29.060  53.707  0.00  0.00     0.027 C 
ATOM     13  C   UNL d   1      53.084  29.958  52.649  0.00  0.00     0.027 A 
ATOM     14  C   UNL d   1      53.336  30.741  52.644  0.00  0.00     0.028 A 
ENDBRANCH   3   9
BRANCH   4  15
ATOM     15  C   UNL d   1      54.589  33.307  54.661  0.00  0.00     0.049 A 
ATOM     16  S   UNL d   1      54.528  33.476  55.445  0.00  0.00    -0.085 SA
ATOM     17  C   UNL d   1      55.156  33.936  55.655  0.00  0.00     0.035 A 
ATOM     18  C   UNL d   1      55.615  34.050  54.977  0.00  0.00     0.007 A 
ATOM     19  C   UNL d   1      55.259  33.659  54.366  0.00  0.00     0.009 A 
ENDBRANCH   4  15
TORSDOF 2
ENDMDL
