MODEL 1
REMARK VINA RESULT:      41.9      0.000      0.000
REMARK  7 active torsions:
REMARK  status: ('A' for Active; 'I' for Inactive)
REMARK    1  A    between atoms: N_4  and  C_1 
REMARK       I    between atoms: C_3  and  N_4 
REMARK    2  A    between atoms: C_8  and  C_3 
REMARK    3  A    between atoms: S_10  and  C_5 
REMARK    4  A    between atoms: C_9  and  C_15 
REMARK       I    between atoms: N_12  and  C_9 
REMARK    5  A    between atoms: C_15  and  S_10 
REMARK    6  A    between atoms: C_17  and  N_12 
REMARK    7  A    between atoms: O_18  and  C_13 
ROOT
ATOM      1  C   UNL d   1     -55.022-101.985 -41.570  0.00  0.00     0.219 A 
ATOM      2  S   UNL d   1     -54.711-101.659 -40.879  0.00  0.00    -0.019 SA
ATOM      3  C   UNL d   1     -54.987-102.091 -40.236  0.00  0.00     0.165 A 
ATOM      4  N   UNL d   1     -55.497-102.627 -41.350  0.00  0.00    -0.120 NA
ATOM      5  N   UNL d   1     -55.475-102.693 -40.526  0.00  0.00    -0.133 NA
ENDROOT
BRANCH   1   6
ATOM      6  N   UNL d   1     -54.882-101.715 -42.342  0.00  0.00    -0.181 NA
ATOM      7  C   UNL d   1     -55.384-101.962 -42.954  0.00  0.00     0.283 C 
ATOM      8  O   UNL d   1     -56.013-102.467 -42.797  0.00  0.00    -0.265 OA
BRANCH   7   9
ATOM      9  C   UNL d   1     -55.247-101.695 -43.726  0.00  0.00     0.080 A 
ATOM     10  C   UNL d   1     -55.112-100.905 -43.861  0.00  0.00     0.099 A 
ATOM     11  C   UNL d   1     -54.975-100.633 -44.633  0.00  0.00     0.024 A 
ATOM     12  C   UNL d   1     -54.977-101.164 -45.255  0.00  0.00     0.002 A 
ATOM     13  C   UNL d   1     -55.116-101.971 -45.113  0.00  0.00     0.000 A 
ATOM     14  C   UNL d   1     -55.250-102.230 -44.344  0.00  0.00     0.007 A 
BRANCH  10  15
ATOM     15  O   UNL d   1     -55.109-100.361 -43.235  0.00  0.00    -0.328 OA
ATOM     16  C   UNL d   1     -54.749 -99.628 -43.315  0.00  0.00     0.181 C 
ENDBRANCH  10  15
ENDBRANCH   7   9
ENDBRANCH   1   6
BRANCH   3  17
ATOM     17  S   UNL d   1     -54.806-101.946 -39.444  0.00  0.00    -0.054 SA
BRANCH  17  18
ATOM     18  C   UNL d   1     -55.384-102.084 -38.862  0.00  0.00     0.100 C 
BRANCH  18  19
ATOM     19  C   UNL d   1     -55.157-102.205 -38.080  0.00  0.00     0.286 C 
ATOM     20  N   UNL d   1     -55.363-101.654 -37.498  0.00  0.00    -0.208 NA
ATOM     21  O   UNL d   1     -54.720-102.879 -37.864  0.00  0.00    -0.265 OA
BRANCH  20  22
ATOM     22  C   UNL d   1     -55.143-101.764 -36.719  0.00  0.00     0.085 A 
ATOM     23  C   UNL d   1     -55.032-101.169 -36.149  0.00  0.00     0.019 A 
ATOM     24  C   UNL d   1     -54.813-101.530 -35.444  0.00  0.00     0.002 A 
ATOM     25  C   UNL d   1     -54.786-102.350 -35.566  0.00  0.00     0.002 A 
ATOM     26  C   UNL d   1     -54.991-102.489 -36.357  0.00  0.00     0.019 A 
ENDBRANCH  20  22
ENDBRANCH  18  19
ENDBRANCH  17  18
ENDBRANCH   3  17
TORSDOF 7
ENDMDL
