MODEL 1
REMARK VINA RESULT:      81.3      0.000      0.000
REMARK  3 active torsions:
REMARK  status: ('A' for Active; 'I' for Inactive)
REMARK    1  A    between atoms: C_4  and  C_1 
REMARK    2  A    between atoms: C_11  and  C_10 
REMARK    3  A    between atoms: O_20  and  C_11 
ROOT
ATOM      1  C   UNL d   1      59.878  49.339  50.929  0.00  0.00     0.004 A 
ATOM      2  C   UNL d   1      58.554  49.613  51.389  0.00  0.00     0.102 A 
ATOM      3  C   UNL d   1      59.074  49.430  50.775  0.00  0.00     0.023 A 
ATOM      4  O   UNL d   1      58.838  49.705  52.157  0.00  0.00    -0.307 OA
ATOM      5  C   UNL d   1      59.642  49.614  52.310  0.00  0.00     0.102 A 
ATOM      6  C   UNL d   1      60.162  49.431  51.696  0.00  0.00     0.023 A 
ATOM      7  C   UNL d   1      57.751  49.704  51.236  0.00  0.00     0.046 A 
ATOM      8  C   UNL d   1      58.790  49.339  50.008  0.00  0.00     0.004 A 
ATOM      9  C   UNL d   1      59.926  49.706  53.078  0.00  0.00     0.046 A 
ATOM     10  C   UNL d   1      57.464  49.612  50.466  0.00  0.00     0.105 A 
ATOM     11  C   UNL d   1      57.983  49.430  49.852  0.00  0.00     0.021 A 
ATOM     12  C   UNL d   1      60.966  49.340  51.850  0.00  0.00     0.004 A 
ATOM     13  N   UNL d   1      56.653  49.704  50.307  0.00  0.00    -0.148 N 
ATOM     14  C   UNL d   1      60.736  49.615  53.235  0.00  0.00     0.105 A 
ATOM     15  C   UNL d   1      61.256  49.432  52.621  0.00  0.00     0.021 A 
ATOM     16  N   UNL d   1      61.023  49.707  54.006  0.00  0.00    -0.148 N 
ENDROOT
BRANCH   1  17
ATOM     17  C   UNL d   1      60.398  49.157  50.315  0.00  0.00     0.005 A 
ATOM     18  C   UNL d   1      60.783  48.429  50.303  0.00  0.00     0.063 A 
ATOM     19  C   UNL d   1      61.306  48.246  49.686  0.00  0.00     0.005 A 
ATOM     20  C   UNL d   1      61.441  48.790  49.083  0.00  0.00     0.000 A 
ATOM     21  C   UNL d   1      61.054  49.521  49.093  0.00  0.00     0.000 A 
ATOM     22  C   UNL d   1      60.532  49.705  49.710  0.00  0.00     0.000 A 
BRANCH  18  23
ATOM     23  C   UNL d   1      60.909  47.679  50.684  0.00  0.00     0.296 C 
ATOM     24  O   UNL d   1      61.777  47.388  50.578  0.00  0.00    -0.259 OA
BRANCH  23  25
ATOM     25  O   UNL d   1      60.763  46.974  51.124  0.00  0.00    -0.296 OA
ATOM     26  C   UNL d   1      60.254  46.196  50.876  0.00  0.00     0.185 C 
ENDBRANCH  23  25
ENDBRANCH  18  23
ENDBRANCH   1  17
TORSDOF 3
ENDMDL
