MODEL 1
REMARK VINA RESULT:      10.3      0.000      0.000
REMARK  10 active torsions:
REMARK  status: ('A' for Active; 'I' for Inactive)
REMARK    1  A    between atoms: C_14  and  N_1 
REMARK    2  A    between atoms: C_7  and  N_3 
REMARK    3  A    between atoms: C_9  and  C_7 
REMARK       I    between atoms: N_18  and  C_9 
REMARK    4  A    between atoms: C_11  and  C_24 
REMARK       I    between atoms: N_12  and  C_11 
REMARK    5  A    between atoms: C_21  and  N_12 
REMARK    6  A    between atoms: C_13  and  C_25 
REMARK    7  A    between atoms: C_23  and  C_14 
REMARK    8  A    between atoms: C_22  and  N_18 
REMARK    9  A    between atoms: C_25  and  C_22 
REMARK   10  A    between atoms: C_24  and  C_23 
ROOT
ATOM      1  N   UNL d   1     -41.559-123.075 -51.616  0.00  0.00    -0.226 N 
ATOM      2  C   UNL d   1     -41.415-123.093 -52.428  0.00  0.00     0.342 A 
ATOM      3  N   UNL d   1     -41.270-122.387 -52.837  0.00  0.00    -0.254 N 
ATOM      4  C   UNL d   1     -41.558-122.349 -51.213  0.00  0.00     0.270 A 
ATOM      5  C   UNL d   1     -41.413-121.649 -51.623  0.00  0.00     0.073 A 
ATOM      6  C   UNL d   1     -41.269-121.668 -52.435  0.00  0.00     0.073 A 
ATOM      7  O   UNL d   1     -41.415-123.816 -52.835  0.00  0.00    -0.245 OA
ATOM      8  O   UNL d   1     -41.702-122.330 -50.401  0.00  0.00    -0.266 OA
ATOM      9  C   UNL d   1     -41.413-120.931 -51.220  0.00  0.00     0.006 A 
ATOM     10  C   UNL d   1     -41.125-120.969 -52.844  0.00  0.00     0.018 A 
ATOM     11  C   UNL d   1     -41.268-120.232 -51.630  0.00  0.00     0.000 A 
ATOM     12  C   UNL d   1     -41.124-120.250 -52.442  0.00  0.00     0.002 A 
ENDROOT
BRANCH   3  13
ATOM     13  C   UNL d   1     -41.126-122.405 -53.650  0.00  0.00     0.147 C 
BRANCH  13  14
ATOM     14  C   UNL d   1     -41.731-122.635 -54.163  0.00  0.00     0.297 C 
ATOM     15  O   UNL d   1     -41.960-123.425 -54.215  0.00  0.00    -0.264 OA
ATOM     16  N   UNL d   1     -42.119-122.068 -54.634  0.00  0.00    -0.205 NA
BRANCH  16  17
ATOM     17  C   UNL d   1     -42.726-122.289 -55.151  0.00  0.00     0.102 C 
BRANCH  17  18
ATOM     18  C   UNL d   1     -42.615-122.233 -55.966  0.00  0.00     0.021 C 
BRANCH  18  19
ATOM     19  C   UNL d   1     -42.167-121.618 -56.284  0.00  0.00     0.002 A 
ATOM     20  C   UNL d   1     -41.572-121.777 -56.833  0.00  0.00     0.000 A 
ATOM     21  C   UNL d   1     -41.126-121.164 -57.148  0.00  0.00     0.000 A 
ATOM     22  C   UNL d   1     -41.275-120.385 -56.914  0.00  0.00     0.000 A 
ATOM     23  C   UNL d   1     -41.870-120.227 -56.365  0.00  0.00     0.000 A 
ATOM     24  C   UNL d   1     -42.318-120.842 -56.047  0.00  0.00     0.000 A 
ENDBRANCH  18  19
ENDBRANCH  17  18
ENDBRANCH  16  17
ENDBRANCH  13  14
ENDBRANCH   3  13
BRANCH   1  25
ATOM     25  C   UNL d   1     -41.704-123.779 -51.206  0.00  0.00     0.088 C 
BRANCH  25  26
ATOM     26  C   UNL d   1     -41.833-123.770 -50.391  0.00  0.00     0.024 C 
BRANCH  26  27
ATOM     27  C   UNL d   1     -42.586-123.644 -50.086  0.00  0.00     0.064 C 
BRANCH  27  28
ATOM     28  C   UNL d   1     -42.697-123.626 -49.261  0.00  0.00     0.279 C 
ATOM     29  N   UNL d   1     -42.069-123.417 -48.767  0.00  0.00    -0.208 NA
ATOM     30  O   UNL d   1     -43.428-123.814 -48.931  0.00  0.00    -0.265 OA
BRANCH  29  31
ATOM     31  C   UNL d   1     -42.163-123.394 -47.948  0.00  0.00     0.085 A 
ATOM     32  C   UNL d   1     -42.797-123.187 -47.457  0.00  0.00     0.019 A 
ATOM     33  C   UNL d   1     -42.557-123.276 -46.676  0.00  0.00     0.002 A 
ATOM     34  C   UNL d   1     -41.774-123.538 -46.676  0.00  0.00     0.002 A 
ATOM     35  C   UNL d   1     -41.527-123.612 -47.453  0.00  0.00     0.019 A 
ENDBRANCH  29  31
ENDBRANCH  27  28
ENDBRANCH  26  27
ENDBRANCH  25  26
ENDBRANCH   1  25
TORSDOF 10
ENDMDL
