MODEL 1
REMARK VINA RESULT:      -7.0      0.000      0.000
REMARK  8 active torsions:
REMARK  status: ('A' for Active; 'I' for Inactive)
REMARK    1  A    between atoms: N_3  and  C_1 
REMARK    2  A    between atoms: C_20  and  N_2 
REMARK       I    between atoms: C_7  and  N_3 
REMARK    3  A    between atoms: C_10  and  C_7 
REMARK    4  A    between atoms: C_9  and  C_10 
REMARK    5  A    between atoms: C_15  and  C_9 
REMARK       I    between atoms: C_12  and  N_13 
REMARK    6  A    between atoms: N_13  and  C_14 
REMARK    7  A    between atoms: C_26  and  C_20 
REMARK    8  A    between atoms: O_22  and  C_26 
ROOT
ATOM      1  C   UNL d   1     -47.503  12.209  23.327  0.00  0.00     0.182 A 
ATOM      2  N   UNL d   1     -46.847  12.537  22.959  0.00  0.00    -0.283 N 
ATOM      3  S   UNL d   1     -47.273  11.492  23.665  0.00  0.00    -0.048 SA
ATOM      4  C   UNL d   1     -46.468  11.379  23.502  0.00  0.00     0.050 A 
ATOM      5  C   UNL d   1     -46.204  12.028  23.064  0.00  0.00     0.072 A 
ATOM      6  C   UNL d   1     -45.945  10.772  23.697  0.00  0.00     0.027 A 
ATOM      7  C   UNL d   1     -45.417  12.069  22.821  0.00  0.00     0.020 A 
ATOM      8  C   UNL d   1     -45.159  10.813  23.453  0.00  0.00     0.085 A 
ATOM      9  C   UNL d   1     -44.895  11.462  23.015  0.00  0.00     0.021 A 
ENDROOT
BRANCH   1  10
ATOM     10  N   UNL d   1     -48.258  12.543  23.351  0.00  0.00    -0.184 NA
ATOM     11  C   UNL d   1     -48.920  12.052  23.338  0.00  0.00     0.281 C 
ATOM     12  O   UNL d   1     -48.824  11.234  23.301  0.00  0.00    -0.265 OA
BRANCH  11  13
ATOM     13  C   UNL d   1     -49.678  12.379  23.362  0.00  0.00     0.063 C 
BRANCH  13  14
ATOM     14  C   UNL d   1     -50.099  12.496  22.667  0.00  0.00     0.006 C 
BRANCH  14  15
ATOM     15  C   UNL d   1     -50.416  13.228  22.484  0.00  0.00     0.011 A 
ATOM     16  C   UNL d   1     -50.607  13.412  21.697  0.00  0.00     0.058 A 
ATOM     17 CL   UNL d   1     -50.474  12.846  21.097  0.00  0.00    -0.082 Cl
ATOM     18  C   UNL d   1     -50.932  14.162  21.509  0.00  0.00     0.011 A 
ATOM     19  C   UNL d   1     -51.064  14.719  22.090  0.00  0.00     0.001 A 
ATOM     20  C   UNL d   1     -50.875  14.539  22.876  0.00  0.00     0.000 A 
ATOM     21  C   UNL d   1     -50.553  13.796  23.065  0.00  0.00     0.001 A 
ENDBRANCH  14  15
ENDBRANCH  13  14
ENDBRANCH  11  13
ENDBRANCH   1  10
BRANCH   2  22
ATOM     22  C   UNL d   1     -46.824  13.256  22.549  0.00  0.00     0.108 C 
BRANCH  22  23
ATOM     23  C   UNL d   1     -46.829  13.971  22.958  0.00  0.00     0.135 C 
BRANCH  23  24
ATOM     24  O   UNL d   1     -46.580  14.661  22.587  0.00  0.00    -0.325 OA
ATOM     25  C   UNL d   1     -47.050  15.344  22.605  0.00  0.00     0.182 C 
ENDBRANCH  23  24
ENDBRANCH  22  23
ENDBRANCH   2  22
BRANCH   8  26
ATOM     26  N   UNL d   1     -44.627  10.197  23.650  0.00  0.00    -0.208 NA
ATOM     27  C   UNL d   1     -43.848  10.243  23.409  0.00  0.00     0.279 C 
ATOM     28  O   UNL d   1     -43.325   9.635  23.604  0.00  0.00    -0.265 OA
ATOM     29  C   UNL d   1     -43.574  10.889  22.974  0.00  0.00     0.068 C 
ENDBRANCH   8  26
TORSDOF 8
ENDMDL
MODEL 2
REMARK VINA RESULT:      -6.9      1.047      2.156
REMARK  8 active torsions:
REMARK  status: ('A' for Active; 'I' for Inactive)
REMARK    1  A    between atoms: N_3  and  C_1 
REMARK    2  A    between atoms: C_20  and  N_2 
REMARK       I    between atoms: C_7  and  N_3 
REMARK    3  A    between atoms: C_10  and  C_7 
REMARK    4  A    between atoms: C_9  and  C_10 
REMARK    5  A    between atoms: C_15  and  C_9 
REMARK       I    between atoms: C_12  and  N_13 
REMARK    6  A    between atoms: N_13  and  C_14 
REMARK    7  A    between atoms: C_26  and  C_20 
REMARK    8  A    between atoms: O_22  and  C_26 
ROOT
ATOM      1  C   UNL d   1     -47.131  13.062  23.144  0.00  0.00     0.182 A 
ATOM      2  N   UNL d   1     -47.223  12.282  23.382  0.00  0.00    -0.283 N 
ATOM      3  S   UNL d   1     -46.340  13.173  22.934  0.00  0.00    -0.048 SA
ATOM      4  C   UNL d   1     -45.944  12.454  23.045  0.00  0.00     0.050 A 
ATOM      5  C   UNL d   1     -46.491  11.901  23.323  0.00  0.00     0.072 A 
ATOM      6  C   UNL d   1     -45.158  12.233  22.929  0.00  0.00     0.027 A 
ATOM      7  C   UNL d   1     -46.253  11.129  23.484  0.00  0.00     0.020 A 
ATOM      8  C   UNL d   1     -44.920  11.461  23.090  0.00  0.00     0.085 A 
ATOM      9  C   UNL d   1     -45.467  10.909  23.368  0.00  0.00     0.021 A 
ENDROOT
BRANCH   1  10
ATOM     10  N   UNL d   1     -47.729  13.632  23.121  0.00  0.00    -0.184 NA
ATOM     11  C   UNL d   1     -47.573  14.371  22.793  0.00  0.00     0.281 C 
ATOM     12  O   UNL d   1     -46.823  14.538  22.492  0.00  0.00    -0.265 OA
BRANCH  11  13
ATOM     13  C   UNL d   1     -48.166  14.946  22.766  0.00  0.00     0.063 C 
BRANCH  13  14
ATOM     14  C   UNL d   1     -48.858  14.805  22.348  0.00  0.00     0.006 C 
BRANCH  14  15
ATOM     15  C   UNL d   1     -49.574  15.106  22.604  0.00  0.00     0.011 A 
ATOM     16  C   UNL d   1     -50.273  14.919  22.196  0.00  0.00     0.058 A 
ATOM     17 CL   UNL d   1     -50.238  14.422  21.526  0.00  0.00    -0.082 Cl
ATOM     18  C   UNL d   1     -51.007  15.228  22.459  0.00  0.00     0.011 A 
ATOM     19  C   UNL d   1     -51.048  15.713  23.113  0.00  0.00     0.001 A 
ATOM     20  C   UNL d   1     -50.353  15.902  23.522  0.00  0.00     0.000 A 
ATOM     21  C   UNL d   1     -49.624  15.598  23.264  0.00  0.00     0.001 A 
ENDBRANCH  14  15
ENDBRANCH  13  14
ENDBRANCH  11  13
ENDBRANCH   1  10
BRANCH   2  22
ATOM     22  C   UNL d   1     -47.925  11.929  23.640  0.00  0.00     0.108 C 
BRANCH  22  23
ATOM     23  C   UNL d   1     -48.473  11.642  23.096  0.00  0.00     0.135 C 
BRANCH  23  24
ATOM     24  O   UNL d   1     -49.216  11.396  23.348  0.00  0.00    -0.325 OA
ATOM     25  C   UNL d   1     -49.824  11.257  22.800  0.00  0.00     0.182 C 
ENDBRANCH  23  24
ENDBRANCH  22  23
ENDBRANCH   2  22
BRANCH   8  26
ATOM     26  N   UNL d   1     -44.121  11.236  22.972  0.00  0.00    -0.208 NA
ATOM     27  C   UNL d   1     -43.897  10.460  23.097  0.00  0.00     0.279 C 
ATOM     28  O   UNL d   1     -43.111  10.240  22.981  0.00  0.00    -0.265 OA
ATOM     29  C   UNL d   1     -44.446   9.892  23.338  0.00  0.00     0.068 C 
ENDBRANCH   8  26
TORSDOF 8
ENDMDL
MODEL 3
REMARK VINA RESULT:      -5.8      6.025      7.692
REMARK  8 active torsions:
REMARK  status: ('A' for Active; 'I' for Inactive)
REMARK    1  A    between atoms: N_3  and  C_1 
REMARK    2  A    between atoms: C_20  and  N_2 
REMARK       I    between atoms: C_7  and  N_3 
REMARK    3  A    between atoms: C_10  and  C_7 
REMARK    4  A    between atoms: C_9  and  C_10 
REMARK    5  A    between atoms: C_15  and  C_9 
REMARK       I    between atoms: C_12  and  N_13 
REMARK    6  A    between atoms: N_13  and  C_14 
REMARK    7  A    between atoms: C_26  and  C_20 
REMARK    8  A    between atoms: O_22  and  C_26 
ROOT
ATOM      1  C   UNL d   1     -40.881  14.237  20.312  0.00  0.00     0.182 A 
ATOM      2  N   UNL d   1     -40.085  14.357  20.474  0.00  0.00    -0.283 N 
ATOM      3  S   UNL d   1     -40.975  14.224  19.493  0.00  0.00    -0.048 SA
ATOM      4  C   UNL d   1     -40.230  14.337  19.148  0.00  0.00     0.050 A 
ATOM      5  C   UNL d   1     -39.678  14.419  19.757  0.00  0.00     0.072 A 
ATOM      6  C   UNL d   1     -39.986  14.376  18.361  0.00  0.00     0.027 A 
ATOM      7  C   UNL d   1     -38.882  14.540  19.579  0.00  0.00     0.020 A 
ATOM      8  C   UNL d   1     -39.190  14.496  18.184  0.00  0.00     0.085 A 
ATOM      9  C   UNL d   1     -38.638  14.578  18.793  0.00  0.00     0.021 A 
ENDROOT
BRANCH   1  10
ATOM     10  N   UNL d   1     -41.478  14.146  20.876  0.00  0.00    -0.184 NA
ATOM     11  C   UNL d   1     -42.087  13.609  20.740  0.00  0.00     0.281 C 
ATOM     12  O   UNL d   1     -42.097  13.167  20.043  0.00  0.00    -0.265 OA
BRANCH  11  13
ATOM     13  C   UNL d   1     -42.687  13.512  21.299  0.00  0.00     0.063 C 
BRANCH  13  14
ATOM     14  C   UNL d   1     -43.082  12.795  21.362  0.00  0.00     0.006 C 
BRANCH  14  15
ATOM     15  C   UNL d   1     -43.804  12.742  21.744  0.00  0.00     0.011 A 
ATOM     16  C   UNL d   1     -43.949  12.118  22.271  0.00  0.00     0.058 A 
ATOM     17 CL   UNL d   1     -43.356  11.546  22.407  0.00  0.00    -0.082 Cl
ATOM     18  C   UNL d   1     -44.689  12.064  22.662  0.00  0.00     0.011 A 
ATOM     19  C   UNL d   1     -45.273  12.618  22.534  0.00  0.00     0.001 A 
ATOM     20  C   UNL d   1     -45.131  13.243  22.008  0.00  0.00     0.000 A 
ATOM     21  C   UNL d   1     -44.399  13.299  21.619  0.00  0.00     0.001 A 
ENDBRANCH  14  15
ENDBRANCH  13  14
ENDBRANCH  11  13
ENDBRANCH   1  10
BRANCH   2  22
ATOM     22  C   UNL d   1     -39.740  14.407  21.225  0.00  0.00     0.108 C 
BRANCH  22  23
ATOM     23  C   UNL d   1     -39.617  15.140  21.580  0.00  0.00     0.135 C 
BRANCH  23  24
ATOM     24  O   UNL d   1     -39.243  15.188  22.310  0.00  0.00    -0.325 OA
ATOM     25  C   UNL d   1     -39.161  15.918  22.696  0.00  0.00     0.182 C 
ENDBRANCH  23  24
ENDBRANCH  22  23
ENDBRANCH   2  22
BRANCH   8  26
ATOM     26  N   UNL d   1     -38.941  14.535  17.385  0.00  0.00    -0.208 NA
ATOM     27  C   UNL d   1     -38.637  13.868  17.023  0.00  0.00     0.279 C 
ATOM     28  O   UNL d   1     -38.392  13.909  16.236  0.00  0.00    -0.265 OA
ATOM     29  C   UNL d   1     -38.573  13.154  17.432  0.00  0.00     0.068 C 
ENDBRANCH   8  26
TORSDOF 8
ENDMDL
MODEL 4
REMARK VINA RESULT:      -5.6      3.542      6.624
REMARK  8 active torsions:
REMARK  status: ('A' for Active; 'I' for Inactive)
REMARK    1  A    between atoms: N_3  and  C_1 
REMARK    2  A    between atoms: C_20  and  N_2 
REMARK       I    between atoms: C_7  and  N_3 
REMARK    3  A    between atoms: C_10  and  C_7 
REMARK    4  A    between atoms: C_9  and  C_10 
REMARK    5  A    between atoms: C_15  and  C_9 
REMARK       I    between atoms: C_12  and  N_13 
REMARK    6  A    between atoms: N_13  and  C_14 
REMARK    7  A    between atoms: C_26  and  C_20 
REMARK    8  A    between atoms: O_22  and  C_26 
ROOT
ATOM      1  C   UNL d   1     -44.299  12.671  21.893  0.00  0.00     0.182 A 
ATOM      2  N   UNL d   1     -44.541  12.245  22.552  0.00  0.00    -0.283 N 
ATOM      3  S   UNL d   1     -44.927  13.148  21.654  0.00  0.00    -0.048 SA
ATOM      4  C   UNL d   1     -45.561  13.014  22.170  0.00  0.00     0.050 A 
ATOM      5  C   UNL d   1     -45.321  12.454  22.728  0.00  0.00     0.072 A 
ATOM      6  C   UNL d   1     -46.322  13.330  22.203  0.00  0.00     0.027 A 
ATOM      7  C   UNL d   1     -45.842  12.209  23.318  0.00  0.00     0.020 A 
ATOM      8  C   UNL d   1     -46.843  13.085  22.793  0.00  0.00     0.085 A 
ATOM      9  C   UNL d   1     -46.603  12.525  23.351  0.00  0.00     0.021 A 
ENDROOT
BRANCH   1  10
ATOM     10  N   UNL d   1     -43.554  12.624  21.538  0.00  0.00    -0.184 NA
ATOM     11  C   UNL d   1     -43.149  13.317  21.352  0.00  0.00     0.281 C 
ATOM     12  O   UNL d   1     -43.488  14.049  21.522  0.00  0.00    -0.265 OA
BRANCH  11  13
ATOM     13  C   UNL d   1     -42.404  13.278  20.997  0.00  0.00     0.063 C 
BRANCH  13  14
ATOM     14  C   UNL d   1     -41.804  13.783  21.240  0.00  0.00     0.006 C 
BRANCH  14  15
ATOM     15  C   UNL d   1     -41.180  13.967  20.744  0.00  0.00     0.011 A 
ATOM     16  C   UNL d   1     -40.432  14.134  21.062  0.00  0.00     0.058 A 
ATOM     17 CL   UNL d   1     -40.322  14.113  21.890  0.00  0.00    -0.082 Cl
ATOM     18  C   UNL d   1     -39.792  14.323  20.553  0.00  0.00     0.011 A 
ATOM     19  C   UNL d   1     -39.893  14.346  19.745  0.00  0.00     0.001 A 
ATOM     20  C   UNL d   1     -40.639  14.179  19.423  0.00  0.00     0.000 A 
ATOM     21  C   UNL d   1     -41.274  13.992  19.925  0.00  0.00     0.001 A 
ENDBRANCH  14  15
ENDBRANCH  13  14
ENDBRANCH  11  13
ENDBRANCH   1  10
BRANCH   2  22
ATOM     22  C   UNL d   1     -44.087  11.698  22.976  0.00  0.00     0.108 C 
BRANCH  22  23
ATOM     23  C   UNL d   1     -44.271  10.895  22.953  0.00  0.00     0.135 C 
BRANCH  23  24
ATOM     24  O   UNL d   1     -43.764  10.345  23.294  0.00  0.00    -0.325 OA
ATOM     25  C   UNL d   1     -44.065   9.685  23.697  0.00  0.00     0.182 C 
ENDBRANCH  23  24
ENDBRANCH  22  23
ENDBRANCH   2  22
BRANCH   8  26
ATOM     26  N   UNL d   1     -47.616  13.405  22.828  0.00  0.00    -0.208 NA
ATOM     27  C   UNL d   1     -48.262  12.916  22.719  0.00  0.00     0.279 C 
ATOM     28  O   UNL d   1     -49.023  13.232  22.754  0.00  0.00    -0.265 OA
ATOM     29  C   UNL d   1     -48.164  12.108  22.574  0.00  0.00     0.068 C 
ENDBRANCH   8  26
TORSDOF 8
ENDMDL
MODEL 5
REMARK VINA RESULT:      -4.9      2.348      3.451
REMARK  8 active torsions:
REMARK  status: ('A' for Active; 'I' for Inactive)
REMARK    1  A    between atoms: N_3  and  C_1 
REMARK    2  A    between atoms: C_20  and  N_2 
REMARK       I    between atoms: C_7  and  N_3 
REMARK    3  A    between atoms: C_10  and  C_7 
REMARK    4  A    between atoms: C_9  and  C_10 
REMARK    5  A    between atoms: C_15  and  C_9 
REMARK       I    between atoms: C_12  and  N_13 
REMARK    6  A    between atoms: N_13  and  C_14 
REMARK    7  A    between atoms: C_26  and  C_20 
REMARK    8  A    between atoms: O_22  and  C_26 
ROOT
ATOM      1  C   UNL d   1     -45.310  12.641  22.392  0.00  0.00     0.182 A 
ATOM      2  N   UNL d   1     -44.681  12.175  22.638  0.00  0.00    -0.283 N 
ATOM      3  S   UNL d   1     -45.048  13.115  21.770  0.00  0.00    -0.048 SA
ATOM      4  C   UNL d   1     -44.250  12.938  21.632  0.00  0.00     0.050 A 
ATOM      5  C   UNL d   1     -44.023  12.355  22.171  0.00  0.00     0.072 A 
ATOM      6  C   UNL d   1     -43.705  13.233  21.088  0.00  0.00     0.027 A 
ATOM      7  C   UNL d   1     -43.250  12.066  22.165  0.00  0.00     0.020 A 
ATOM      8  C   UNL d   1     -42.934  12.944  21.082  0.00  0.00     0.085 A 
ATOM      9  C   UNL d   1     -42.706  12.360  21.621  0.00  0.00     0.021 A 
ENDROOT
BRANCH   1  10
ATOM     10  N   UNL d   1     -46.070  12.632  22.716  0.00  0.00    -0.184 NA
ATOM     11  C   UNL d   1     -46.505  13.331  22.750  0.00  0.00     0.281 C 
ATOM     12  O   UNL d   1     -46.180  14.032  22.461  0.00  0.00    -0.265 OA
BRANCH  11  13
ATOM     13  C   UNL d   1     -47.266  13.330  23.072  0.00  0.00     0.063 C 
BRANCH  13  14
ATOM     14  C   UNL d   1     -47.794  13.931  22.886  0.00  0.00     0.006 C 
BRANCH  14  15
ATOM     15  C   UNL d   1     -48.592  13.857  23.050  0.00  0.00     0.011 A 
ATOM     16  C   UNL d   1     -49.107  14.489  22.896  0.00  0.00     0.058 A 
ATOM     17 CL   UNL d   1     -48.805  15.198  22.573  0.00  0.00    -0.082 Cl
ATOM     18  C   UNL d   1     -49.926  14.413  23.064  0.00  0.00     0.011 A 
ATOM     19  C   UNL d   1     -50.227  13.724  23.378  0.00  0.00     0.001 A 
ATOM     20  C   UNL d   1     -49.715  13.091  23.533  0.00  0.00     0.000 A 
ATOM     21  C   UNL d   1     -48.904  13.163  23.368  0.00  0.00     0.001 A 
ENDBRANCH  14  15
ENDBRANCH  13  14
ENDBRANCH  11  13
ENDBRANCH   1  10
BRANCH   2  22
ATOM     22  C   UNL d   1     -44.694  11.617  23.249  0.00  0.00     0.108 C 
BRANCH  22  23
ATOM     23  C   UNL d   1     -44.727  10.812  23.079  0.00  0.00     0.135 C 
BRANCH  23  24
ATOM     24  O   UNL d   1     -44.808  10.264  23.687  0.00  0.00    -0.325 OA
ATOM     25  C   UNL d   1     -44.348   9.574  23.698  0.00  0.00     0.182 C 
ENDBRANCH  23  24
ENDBRANCH  22  23
ENDBRANCH   2  22
BRANCH   8  26
ATOM     26  N   UNL d   1     -42.379  13.242  20.530  0.00  0.00    -0.208 NA
ATOM     27  C   UNL d   1     -41.796  13.758  20.779  0.00  0.00     0.279 C 
ATOM     28  O   UNL d   1     -41.251  14.051  20.233  0.00  0.00    -0.265 OA
ATOM     29  C   UNL d   1     -41.745  13.992  21.569  0.00  0.00     0.068 C 
ENDBRANCH   8  26
TORSDOF 8
ENDMDL
MODEL 6
REMARK VINA RESULT:      -4.7      2.913      6.120
REMARK  8 active torsions:
REMARK  status: ('A' for Active; 'I' for Inactive)
REMARK    1  A    between atoms: N_3  and  C_1 
REMARK    2  A    between atoms: C_20  and  N_2 
REMARK       I    between atoms: C_7  and  N_3 
REMARK    3  A    between atoms: C_10  and  C_7 
REMARK    4  A    between atoms: C_9  and  C_10 
REMARK    5  A    between atoms: C_15  and  C_9 
REMARK       I    between atoms: C_12  and  N_13 
REMARK    6  A    between atoms: N_13  and  C_14 
REMARK    7  A    between atoms: C_26  and  C_20 
REMARK    8  A    between atoms: O_22  and  C_26 
ROOT
ATOM      1  C   UNL d   1     -45.331  12.659  22.311  0.00  0.00     0.182 A 
ATOM      2  N   UNL d   1     -45.690  12.238  22.918  0.00  0.00    -0.283 N 
ATOM      3  S   UNL d   1     -45.905  13.135  21.959  0.00  0.00    -0.048 SA
ATOM      4  C   UNL d   1     -46.622  13.007  22.353  0.00  0.00     0.050 A 
ATOM      5  C   UNL d   1     -46.489  12.450  22.948  0.00  0.00     0.072 A 
ATOM      6  C   UNL d   1     -47.376  13.325  22.246  0.00  0.00     0.027 A 
ATOM      7  C   UNL d   1     -47.109  12.212  23.437  0.00  0.00     0.020 A 
ATOM      8  C   UNL d   1     -47.995  13.086  22.734  0.00  0.00     0.085 A 
ATOM      9  C   UNL d   1     -47.862  12.529  23.329  0.00  0.00     0.021 A 
ENDROOT
BRANCH   1  10
ATOM     10  N   UNL d   1     -44.535  12.607  22.097  0.00  0.00    -0.184 NA
ATOM     11  C   UNL d   1     -44.128  13.291  21.883  0.00  0.00     0.281 C 
ATOM     12  O   UNL d   1     -44.516  14.019  21.886  0.00  0.00    -0.265 OA
BRANCH  11  13
ATOM     13  C   UNL d   1     -43.332  13.248  21.667  0.00  0.00     0.063 C 
BRANCH  13  14
ATOM     14  C   UNL d   1     -43.009  13.811  21.163  0.00  0.00     0.006 C 
BRANCH  14  15
ATOM     15  C   UNL d   1     -42.199  13.883  21.075  0.00  0.00     0.011 A 
ATOM     16  C   UNL d   1     -41.856  14.635  21.002  0.00  0.00     0.058 A 
ATOM     17 CL   UNL d   1     -42.342  15.314  21.020  0.00  0.00    -0.082 Cl
ATOM     18  C   UNL d   1     -41.025  14.710  20.912  0.00  0.00     0.011 A 
ATOM     19  C   UNL d   1     -40.545  14.051  20.893  0.00  0.00     0.001 A 
ATOM     20  C   UNL d   1     -40.884  13.299  20.965  0.00  0.00     0.000 A 
ATOM     21  C   UNL d   1     -41.707  13.222  21.055  0.00  0.00     0.001 A 
ENDBRANCH  14  15
ENDBRANCH  13  14
ENDBRANCH  11  13
ENDBRANCH   1  10
BRANCH   2  22
ATOM     22  C   UNL d   1     -45.322  11.693  23.421  0.00  0.00     0.108 C 
BRANCH  22  23
ATOM     23  C   UNL d   1     -45.165  10.927  23.163  0.00  0.00     0.135 C 
BRANCH  23  24
ATOM     24  O   UNL d   1     -44.886  10.362  23.691  0.00  0.00    -0.325 OA
ATOM     25  C   UNL d   1     -44.255   9.865  23.485  0.00  0.00     0.182 C 
ENDBRANCH  23  24
ENDBRANCH  22  23
ENDBRANCH   2  22
BRANCH   8  26
ATOM     26  N   UNL d   1     -48.761  13.408  22.626  0.00  0.00    -0.208 NA
ATOM     27  C   UNL d   1     -49.375  12.922  22.392  0.00  0.00     0.279 C 
ATOM     28  O   UNL d   1     -50.128  13.240  22.286  0.00  0.00    -0.265 OA
ATOM     29  C   UNL d   1     -49.253  12.116  22.259  0.00  0.00     0.068 C 
ENDBRANCH   8  26
TORSDOF 8
ENDMDL
MODEL 7
REMARK VINA RESULT:      -4.3      1.385      1.677
REMARK  8 active torsions:
REMARK  status: ('A' for Active; 'I' for Inactive)
REMARK    1  A    between atoms: N_3  and  C_1 
REMARK    2  A    between atoms: C_20  and  N_2 
REMARK       I    between atoms: C_7  and  N_3 
REMARK    3  A    between atoms: C_10  and  C_7 
REMARK    4  A    between atoms: C_9  and  C_10 
REMARK    5  A    between atoms: C_15  and  C_9 
REMARK       I    between atoms: C_12  and  N_13 
REMARK    6  A    between atoms: N_13  and  C_14 
REMARK    7  A    between atoms: C_26  and  C_20 
REMARK    8  A    between atoms: O_22  and  C_26 
ROOT
ATOM      1  C   UNL d   1     -46.875  12.681  23.169  0.00  0.00     0.182 A 
ATOM      2  N   UNL d   1     -46.483  13.386  23.017  0.00  0.00    -0.283 N 
ATOM      3  S   UNL d   1     -46.357  12.061  23.003  0.00  0.00    -0.048 SA
ATOM      4  C   UNL d   1     -45.640  12.388  22.747  0.00  0.00     0.050 A 
ATOM      5  C   UNL d   1     -45.719  13.210  22.755  0.00  0.00     0.072 A 
ATOM      6  C   UNL d   1     -44.930  12.043  22.508  0.00  0.00     0.027 A 
ATOM      7  C   UNL d   1     -45.087  13.688  22.525  0.00  0.00     0.020 A 
ATOM      8  C   UNL d   1     -44.299  12.521  22.278  0.00  0.00     0.085 A 
ATOM      9  C   UNL d   1     -44.377  13.343  22.286  0.00  0.00     0.021 A 
ENDROOT
BRANCH   1  10
ATOM     10  N   UNL d   1     -47.652  12.612  23.440  0.00  0.00    -0.184 NA
ATOM     11  C   UNL d   1     -48.040  11.888  23.383  0.00  0.00     0.281 C 
ATOM     12  O   UNL d   1     -47.650  11.238  23.056  0.00  0.00    -0.265 OA
BRANCH  11  13
ATOM     13  C   UNL d   1     -48.817  11.811  23.652  0.00  0.00     0.063 C 
BRANCH  13  14
ATOM     14  C   UNL d   1     -49.438  11.774  23.116  0.00  0.00     0.006 C 
BRANCH  14  15
ATOM     15  C   UNL d   1     -49.971  12.390  23.045  0.00  0.00     0.011 A 
ATOM     16  C   UNL d   1     -50.293  12.576  22.302  0.00  0.00     0.058 A 
ATOM     17 CL   UNL d   1     -50.068  12.130  21.633  0.00  0.00    -0.082 Cl
ATOM     18  C   UNL d   1     -50.840  13.208  22.229  0.00  0.00     0.011 A 
ATOM     19  C   UNL d   1     -51.063  13.646  22.879  0.00  0.00     0.001 A 
ATOM     20  C   UNL d   1     -50.744  13.464  23.622  0.00  0.00     0.000 A 
ATOM     21  C   UNL d   1     -50.202  12.838  23.697  0.00  0.00     0.001 A 
ENDBRANCH  14  15
ENDBRANCH  13  14
ENDBRANCH  11  13
ENDBRANCH   1  10
BRANCH   2  22
ATOM     22  C   UNL d   1     -46.793  14.148  23.107  0.00  0.00     0.108 C 
BRANCH  22  23
ATOM     23  C   UNL d   1     -47.148  14.533  22.471  0.00  0.00     0.135 C 
BRANCH  23  24
ATOM     24  O   UNL d   1     -47.439  15.297  22.561  0.00  0.00    -0.325 OA
ATOM     25  C   UNL d   1     -48.133  15.533  22.172  0.00  0.00     0.182 C 
ENDBRANCH  23  24
ENDBRANCH  22  23
ENDBRANCH   2  22
BRANCH   8  26
ATOM     26  N   UNL d   1     -43.577  12.172  22.035  0.00  0.00    -0.208 NA
ATOM     27  C   UNL d   1     -43.137  12.523  21.443  0.00  0.00     0.279 C 
ATOM     28  O   UNL d   1     -42.426  12.179  21.206  0.00  0.00    -0.265 OA
ATOM     29  C   UNL d   1     -43.392  13.219  21.079  0.00  0.00     0.068 C 
ENDBRANCH   8  26
TORSDOF 8
ENDMDL
MODEL 8
REMARK VINA RESULT:      -4.2      7.343      9.536
REMARK  8 active torsions:
REMARK  status: ('A' for Active; 'I' for Inactive)
REMARK    1  A    between atoms: N_3  and  C_1 
REMARK    2  A    between atoms: C_20  and  N_2 
REMARK       I    between atoms: C_7  and  N_3 
REMARK    3  A    between atoms: C_10  and  C_7 
REMARK    4  A    between atoms: C_9  and  C_10 
REMARK    5  A    between atoms: C_15  and  C_9 
REMARK       I    between atoms: C_12  and  N_13 
REMARK    6  A    between atoms: N_13  and  C_14 
REMARK    7  A    between atoms: C_26  and  C_20 
REMARK    8  A    between atoms: O_22  and  C_26 
ROOT
ATOM      1  C   UNL d   1     -40.444  14.537  19.436  0.00  0.00     0.182 A 
ATOM      2  N   UNL d   1     -40.389  14.713  20.236  0.00  0.00    -0.283 N 
ATOM      3  S   UNL d   1     -41.027  13.961  19.343  0.00  0.00    -0.048 SA
ATOM      4  C   UNL d   1     -41.333  13.783  20.092  0.00  0.00     0.050 A 
ATOM      5  C   UNL d   1     -40.937  14.250  20.646  0.00  0.00     0.072 A 
ATOM      6  C   UNL d   1     -41.919  13.257  20.338  0.00  0.00     0.027 A 
ATOM      7  C   UNL d   1     -41.127  14.191  21.447  0.00  0.00     0.020 A 
ATOM      8  C   UNL d   1     -42.108  13.199  21.138  0.00  0.00     0.085 A 
ATOM      9  C   UNL d   1     -41.712  13.666  21.692  0.00  0.00     0.021 A 
ENDROOT
BRANCH   1  10
ATOM     10  N   UNL d   1     -39.991  14.879  18.836  0.00  0.00    -0.184 NA
ATOM     11  C   UNL d   1     -40.111  14.647  18.055  0.00  0.00     0.281 C 
ATOM     12  O   UNL d   1     -40.680  14.077  17.878  0.00  0.00    -0.265 OA
BRANCH  11  13
ATOM     13  C   UNL d   1     -39.663  14.985  17.449  0.00  0.00     0.063 C 
BRANCH  13  14
ATOM     14  C   UNL d   1     -39.563  14.587  16.737  0.00  0.00     0.006 C 
BRANCH  14  15
ATOM     15  C   UNL d   1     -39.045  14.864  16.168  0.00  0.00     0.011 A 
ATOM     16  C   UNL d   1     -38.471  14.357  15.847  0.00  0.00     0.058 A 
ATOM     17 CL   UNL d   1     -38.428  13.565  16.110  0.00  0.00    -0.082 Cl
ATOM     18  C   UNL d   1     -37.940  14.641  15.264  0.00  0.00     0.011 A 
ATOM     19  C   UNL d   1     -37.977  15.413  15.003  0.00  0.00     0.001 A 
ATOM     20  C   UNL d   1     -38.548  15.922  15.321  0.00  0.00     0.000 A 
ATOM     21  C   UNL d   1     -39.076  15.643  15.900  0.00  0.00     0.001 A 
ENDBRANCH  14  15
ENDBRANCH  13  14
ENDBRANCH  11  13
ENDBRANCH   1  10
BRANCH   2  22
ATOM     22  C   UNL d   1     -39.875  15.262  20.582  0.00  0.00     0.108 C 
BRANCH  22  23
ATOM     23  C   UNL d   1     -39.100  15.051  20.765  0.00  0.00     0.135 C 
BRANCH  23  24
ATOM     24  O   UNL d   1     -38.540  15.632  20.925  0.00  0.00    -0.325 OA
ATOM     25  C   UNL d   1     -38.288  15.773  21.703  0.00  0.00     0.182 C 
ENDBRANCH  23  24
ENDBRANCH  22  23
ENDBRANCH   2  22
BRANCH   8  26
ATOM     26  N   UNL d   1     -42.703  12.666  21.390  0.00  0.00    -0.208 NA
ATOM     27  C   UNL d   1     -43.460  12.940  21.530  0.00  0.00     0.279 C 
ATOM     28  O   UNL d   1     -44.045  12.413  21.778  0.00  0.00    -0.265 OA
ATOM     29  C   UNL d   1     -43.649  13.737  21.427  0.00  0.00     0.068 C 
ENDBRANCH   8  26
TORSDOF 8
ENDMDL
MODEL 9
REMARK VINA RESULT:      -4.2      2.533      5.811
REMARK  8 active torsions:
REMARK  status: ('A' for Active; 'I' for Inactive)
REMARK    1  A    between atoms: N_3  and  C_1 
REMARK    2  A    between atoms: C_20  and  N_2 
REMARK       I    between atoms: C_7  and  N_3 
REMARK    3  A    between atoms: C_10  and  C_7 
REMARK    4  A    between atoms: C_9  and  C_10 
REMARK    5  A    between atoms: C_15  and  C_9 
REMARK       I    between atoms: C_12  and  N_13 
REMARK    6  A    between atoms: N_13  and  C_14 
REMARK    7  A    between atoms: C_26  and  C_20 
REMARK    8  A    between atoms: O_22  and  C_26 
ROOT
ATOM      1  C   UNL d   1     -46.500  13.138  22.897  0.00  0.00     0.182 A 
ATOM      2  N   UNL d   1     -46.945  12.557  23.270  0.00  0.00    -0.283 N 
ATOM      3  S   UNL d   1     -47.023  13.673  22.549  0.00  0.00    -0.048 SA
ATOM      4  C   UNL d   1     -47.794  13.419  22.710  0.00  0.00     0.050 A 
ATOM      5  C   UNL d   1     -47.746  12.727  23.158  0.00  0.00     0.072 A 
ATOM      6  C   UNL d   1     -48.531  13.729  22.507  0.00  0.00     0.027 A 
ATOM      7  C   UNL d   1     -48.435  12.344  23.402  0.00  0.00     0.020 A 
ATOM      8  C   UNL d   1     -49.219  13.347  22.752  0.00  0.00     0.085 A 
ATOM      9  C   UNL d   1     -49.171  12.654  23.199  0.00  0.00     0.021 A 
ENDROOT
BRANCH   1  10
ATOM     10  N   UNL d   1     -45.675  13.173  22.877  0.00  0.00    -0.184 NA
ATOM     11  C   UNL d   1     -45.293  13.333  22.165  0.00  0.00     0.281 C 
ATOM     12  O   UNL d   1     -45.735  13.456  21.480  0.00  0.00    -0.265 OA
BRANCH  11  13
ATOM     13  C   UNL d   1     -44.468  13.370  22.138  0.00  0.00     0.063 C 
BRANCH  13  14
ATOM     14  C   UNL d   1     -44.066  13.134  21.461  0.00  0.00     0.006 C 
BRANCH  14  15
ATOM     15  C   UNL d   1     -43.275  13.313  21.357  0.00  0.00     0.011 A 
ATOM     16  C   UNL d   1     -42.699  12.725  21.463  0.00  0.00     0.058 A 
ATOM     17 CL   UNL d   1     -42.934  11.952  21.677  0.00  0.00    -0.082 Cl
ATOM     18  C   UNL d   1     -41.888  12.908  21.356  0.00  0.00     0.011 A 
ATOM     19  C   UNL d   1     -41.652  13.660  21.147  0.00  0.00     0.001 A 
ATOM     20  C   UNL d   1     -42.224  14.250  21.040  0.00  0.00     0.000 A 
ATOM     21  C   UNL d   1     -43.028  14.071  21.146  0.00  0.00     0.001 A 
ENDBRANCH  14  15
ENDBRANCH  13  14
ENDBRANCH  11  13
ENDBRANCH   1  10
BRANCH   2  22
ATOM     22  C   UNL d   1     -46.649  11.909  23.690  0.00  0.00     0.108 C 
BRANCH  22  23
ATOM     23  C   UNL d   1     -46.260  11.298  23.297  0.00  0.00     0.135 C 
BRANCH  23  24
ATOM     24  O   UNL d   1     -46.070  10.605  23.697  0.00  0.00    -0.325 OA
ATOM     25  C   UNL d   1     -45.398  10.166  23.485  0.00  0.00     0.182 C 
ENDBRANCH  23  24
ENDBRANCH  22  23
ENDBRANCH   2  22
BRANCH   8  26
ATOM     26  N   UNL d   1     -49.968  13.660  22.546  0.00  0.00    -0.208 NA
ATOM     27  C   UNL d   1     -50.310  14.233  23.018  0.00  0.00     0.279 C 
ATOM     28  O   UNL d   1     -51.048  14.541  22.814  0.00  0.00    -0.265 OA
ATOM     29  C   UNL d   1     -49.928  14.510  23.696  0.00  0.00     0.068 C 
ENDBRANCH   8  26
TORSDOF 8
ENDMDL
