MODEL 1
REMARK VINA RESULT:       2.1      0.000      0.000
REMARK  6 active torsions:
REMARK  status: ('A' for Active; 'I' for Inactive)
REMARK    1  A    between atoms: C_5  and  N_1 
REMARK    2  A    between atoms: C_2  and  C_4 
REMARK       I    between atoms: N_3  and  C_2 
REMARK    3  A    between atoms: C_7  and  N_3 
REMARK       I    between atoms: C_4  and  N_8 
REMARK    4  A    between atoms: C_10  and  C_5 
REMARK    5  A    between atoms: C_14  and  C_5 
REMARK    6  A    between atoms: N_8  and  C_10 
ROOT
ATOM      1  C   UNL d   1      56.505   0.355  32.821  0.00  0.00     0.085 C 
ENDROOT
BRANCH   1   2
ATOM      2  N   UNL d   1      57.057   0.435  33.450  0.00  0.00    -0.302 N 
ATOM      3  C   UNL d   1      56.806   0.386  34.234  0.00  0.00     0.080 A 
ATOM      4  C   UNL d   1      57.351   0.465  34.847  0.00  0.00     0.018 A 
ATOM      5  C   UNL d   1      57.098   0.415  35.636  0.00  0.00     0.002 A 
ATOM      6  C   UNL d   1      58.145   0.593  34.676  0.00  0.00     0.003 A 
ATOM      7  C   UNL d   1      57.639   0.493  36.256  0.00  0.00     0.000 A 
ATOM      8  C   UNL d   1      58.441   0.623  36.079  0.00  0.00     0.000 A 
ATOM      9  C   UNL d   1      58.693   0.673  35.289  0.00  0.00     0.000 A 
ATOM     10  C   UNL d   1      58.396   0.643  33.891  0.00  0.00     0.019 A 
ATOM     11  C   UNL d   1      57.853   0.564  33.278  0.00  0.00     0.080 A 
ENDBRANCH   1   2
BRANCH   1  12
ATOM     12  C   UNL d   1      56.715   0.578  32.055  0.00  0.00     0.120 C 
BRANCH  12  13
ATOM     13  N   UNL d   1      57.300   0.166  31.647  0.00  0.00    -0.201 NA
ATOM     14  C   UNL d   1      57.255   0.086  30.819  0.00  0.00     0.337 C 
ATOM     15  O   UNL d   1      56.621   0.422  30.407  0.00  0.00    -0.260 OA
BRANCH  14  16
ATOM     16  C   UNL d   1      57.839  -0.326  30.412  0.00  0.00     0.337 C 
ATOM     17  N   UNL d   1      58.498   0.078  30.108  0.00  0.00    -0.202 NA
ATOM     18  O   UNL d   1      57.773  -1.147  30.304  0.00  0.00    -0.260 OA
BRANCH  17  19
ATOM     19  C   UNL d   1      59.085  -0.342  29.698  0.00  0.00     0.112 A 
ATOM     20  C   UNL d   1      59.283  -0.122  28.928  0.00  0.00     0.160 A 
ATOM     21  C   UNL d   1      59.859  -0.529  28.517  0.00  0.00     0.061 A 
ATOM     22  F   UNL d   1      58.893   0.523  28.557  0.00  0.00    -0.203 F 
ATOM     23  C   UNL d   1      60.249  -1.168  28.877  0.00  0.00     0.142 A 
ATOM     24  C   UNL d   1      60.051  -1.388  29.648  0.00  0.00     0.031 A 
ATOM     25  F   UNL d   1      60.837  -1.582  28.455  0.00  0.00    -0.204 F 
ATOM     26  C   UNL d   1      59.464  -0.968  30.058  0.00  0.00     0.024 A 
ENDBRANCH  17  19
ENDBRANCH  14  16
ENDBRANCH  12  13
ENDBRANCH   1  12
BRANCH   1  27
ATOM     27  C   UNL d   1      55.755   0.054  32.975  0.00  0.00     0.037 A 
ATOM     28  C   UNL d   1      55.616  -0.755  32.906  0.00  0.00     0.100 A 
ATOM     29  N   UNL d   1      54.866  -1.056  33.060  0.00  0.00    -0.242 NA
ATOM     30  C   UNL d   1      54.251  -0.547  33.284  0.00  0.00     0.099 A 
ATOM     31  C   UNL d   1      54.390   0.262  33.353  0.00  0.00     0.021 A 
ATOM     32  C   UNL d   1      55.141   0.563  33.199  0.00  0.00     0.005 A 
ENDBRANCH   1  27
TORSDOF 6
ENDMDL
