MODEL 1
REMARK VINA RESULT:      -6.1      0.000      0.000
REMARK  4 active torsions:
REMARK  status: ('A' for Active; 'I' for Inactive)
REMARK    1  A    between atoms: C_7  and  C_1 
REMARK    2  A    between atoms: N_5  and  C_2 
REMARK    3  A    between atoms: C_12  and  N_5 
REMARK    4  A    between atoms: O_21  and  C_14 
ROOT
ATOM      1  C   UNL d   1     -49.346  14.531  22.632  0.00  0.00     0.101 A 
ATOM      2  C   UNL d   1     -48.667  14.073  22.804  0.00  0.00     0.187 A 
ATOM      3  C   UNL d   1     -50.092  14.190  22.713  0.00  0.00     0.010 A 
ATOM      4  O   UNL d   1     -48.756  13.288  23.050  0.00  0.00    -0.289 OA
ATOM      5  C   UNL d   1     -49.505  12.952  23.129  0.00  0.00     0.104 A 
ATOM      6  C   UNL d   1     -50.184  13.411  22.957  0.00  0.00     0.023 A 
ATOM      7  C   UNL d   1     -49.594  12.167  23.375  0.00  0.00     0.049 A 
ATOM      8  C   UNL d   1     -50.931  13.069  23.038  0.00  0.00     0.004 A 
ATOM      9  C   UNL d   1     -50.346  11.829  23.454  0.00  0.00     0.096 A 
ATOM     10  C   UNL d   1     -51.025  12.288  23.283  0.00  0.00     0.024 A 
ENDROOT
BRANCH   2  11
ATOM     11  N   UNL d   1     -47.919  14.407  22.726  0.00  0.00    -0.222 NA
BRANCH  11  12
ATOM     12  C   UNL d   1     -47.243  13.914  22.723  0.00  0.00     0.084 A 
ATOM     13  C   UNL d   1     -46.884  13.705  23.435  0.00  0.00     0.019 A 
ATOM     14  C   UNL d   1     -46.215  13.217  23.433  0.00  0.00     0.002 A 
ATOM     15  C   UNL d   1     -45.920  12.949  22.719  0.00  0.00     0.000 A 
ATOM     16  C   UNL d   1     -46.268  13.151  22.010  0.00  0.00     0.002 A 
ATOM     17  C   UNL d   1     -45.254  12.463  22.699  0.00  0.00     0.000 C 
ATOM     18  C   UNL d   1     -46.937  13.638  22.012  0.00  0.00     0.019 A 
ENDBRANCH  11  12
ENDBRANCH   2  11
BRANCH   1  19
ATOM     19  C   UNL d   1     -49.270  15.318  22.384  0.00  0.00     0.300 C 
ATOM     20  O   UNL d   1     -49.275  15.505  21.587  0.00  0.00    -0.264 OA
ATOM     21  N   UNL d   1     -49.188  15.911  22.954  0.00  0.00    -0.102 N 
ENDBRANCH   1  19
BRANCH   9  22
ATOM     22  O   UNL d   1     -50.436  11.057  23.697  0.00  0.00    -0.328 OA
ATOM     23  C   UNL d   1     -49.782  10.554  23.697  0.00  0.00     0.181 C 
ENDBRANCH   9  22
TORSDOF 4
ENDMDL
MODEL 2
REMARK VINA RESULT:      -5.4      1.329      3.104
REMARK  4 active torsions:
REMARK  status: ('A' for Active; 'I' for Inactive)
REMARK    1  A    between atoms: C_7  and  C_1 
REMARK    2  A    between atoms: N_5  and  C_2 
REMARK    3  A    between atoms: C_12  and  N_5 
REMARK    4  A    between atoms: O_21  and  C_14 
ROOT
ATOM      1  C   UNL d   1     -47.160  13.589  22.500  0.00  0.00     0.101 A 
ATOM      2  C   UNL d   1     -47.945  13.871  22.568  0.00  0.00     0.187 A 
ATOM      3  C   UNL d   1     -46.997  12.802  22.686  0.00  0.00     0.010 A 
ATOM      4  O   UNL d   1     -48.543  13.356  22.820  0.00  0.00    -0.289 OA
ATOM      5  C   UNL d   1     -48.374  12.570  23.005  0.00  0.00     0.104 A 
ATOM      6  C   UNL d   1     -47.589  12.289  22.937  0.00  0.00     0.023 A 
ATOM      7  C   UNL d   1     -48.971  12.056  23.257  0.00  0.00     0.049 A 
ATOM      8  C   UNL d   1     -47.426  11.502  23.123  0.00  0.00     0.004 A 
ATOM      9  C   UNL d   1     -48.803  11.268  23.442  0.00  0.00     0.096 A 
ATOM     10  C   UNL d   1     -48.018  10.986  23.374  0.00  0.00     0.024 A 
ENDROOT
BRANCH   2  11
ATOM     11  N   UNL d   1     -48.115  14.654  22.384  0.00  0.00    -0.222 NA
BRANCH  11  12
ATOM     12  C   UNL d   1     -48.860  14.976  22.588  0.00  0.00     0.084 A 
ATOM     13  C   UNL d   1     -48.955  15.368  23.307  0.00  0.00     0.019 A 
ATOM     14  C   UNL d   1     -49.692  15.687  23.508  0.00  0.00     0.002 A 
ATOM     15  C   UNL d   1     -50.317  15.607  22.987  0.00  0.00     0.000 A 
ATOM     16  C   UNL d   1     -50.232  15.221  22.275  0.00  0.00     0.002 A 
ATOM     17  C   UNL d   1     -51.058  15.919  23.173  0.00  0.00     0.000 C 
ATOM     18  C   UNL d   1     -49.495  14.902  22.073  0.00  0.00     0.019 A 
ENDBRANCH  11  12
ENDBRANCH   2  11
BRANCH   1  19
ATOM     19  C   UNL d   1     -46.553  14.093  22.249  0.00  0.00     0.300 C 
ATOM     20  O   UNL d   1     -46.396  14.788  22.653  0.00  0.00    -0.264 OA
ATOM     21  N   UNL d   1     -46.108  13.885  21.585  0.00  0.00    -0.102 N 
ENDBRANCH   1  19
BRANCH   9  22
ATOM     22  O   UNL d   1     -49.390  10.759  23.691  0.00  0.00    -0.328 OA
ATOM     23  C   UNL d   1     -50.176  11.007  23.667  0.00  0.00     0.181 C 
ENDBRANCH   9  22
TORSDOF 4
ENDMDL
MODEL 3
REMARK VINA RESULT:      -5.2      8.117      9.942
REMARK  4 active torsions:
REMARK  status: ('A' for Active; 'I' for Inactive)
REMARK    1  A    between atoms: C_7  and  C_1 
REMARK    2  A    between atoms: N_5  and  C_2 
REMARK    3  A    between atoms: C_12  and  N_5 
REMARK    4  A    between atoms: O_21  and  C_14 
ROOT
ATOM      1  C   UNL d   1     -40.679  14.840  20.199  0.00  0.00     0.101 A 
ATOM      2  C   UNL d   1     -39.956  14.755  20.613  0.00  0.00     0.187 A 
ATOM      3  C   UNL d   1     -40.710  14.640  19.400  0.00  0.00     0.010 A 
ATOM      4  O   UNL d   1     -39.288  14.472  20.215  0.00  0.00    -0.289 OA
ATOM      5  C   UNL d   1     -39.326  14.273  19.415  0.00  0.00     0.104 A 
ATOM      6  C   UNL d   1     -40.048  14.358  19.001  0.00  0.00     0.023 A 
ATOM      7  C   UNL d   1     -38.658  13.990  19.017  0.00  0.00     0.049 A 
ATOM      8  C   UNL d   1     -40.079  14.158  18.202  0.00  0.00     0.004 A 
ATOM      9  C   UNL d   1     -38.694  13.790  18.215  0.00  0.00     0.096 A 
ATOM     10  C   UNL d   1     -39.417  13.875  17.801  0.00  0.00     0.024 A 
ENDROOT
BRANCH   2  11
ATOM     11  N   UNL d   1     -39.917  14.953  21.411  0.00  0.00    -0.222 NA
BRANCH  11  12
ATOM     12  C   UNL d   1     -39.418  14.518  21.923  0.00  0.00     0.084 A 
ATOM     13  C   UNL d   1     -39.593  13.732  22.097  0.00  0.00     0.019 A 
ATOM     14  C   UNL d   1     -39.099  13.302  22.604  0.00  0.00     0.002 A 
ATOM     15  C   UNL d   1     -38.442  13.667  22.924  0.00  0.00     0.000 A 
ATOM     16  C   UNL d   1     -38.261  14.444  22.757  0.00  0.00     0.002 A 
ATOM     17  C   UNL d   1     -37.940  13.253  23.431  0.00  0.00     0.000 C 
ATOM     18  C   UNL d   1     -38.755  14.874  22.251  0.00  0.00     0.019 A 
ENDBRANCH  11  12
ENDBRANCH   2  11
BRANCH   1  19
ATOM     19  C   UNL d   1     -41.354  15.123  20.586  0.00  0.00     0.300 C 
ATOM     20  O   UNL d   1     -41.438  15.922  20.745  0.00  0.00    -0.264 OA
ATOM     21  N   UNL d   1     -41.941  14.586  20.810  0.00  0.00    -0.102 N 
ENDBRANCH   1  19
BRANCH   9  22
ATOM     22  O   UNL d   1     -38.039  13.511  17.821  0.00  0.00    -0.328 OA
ATOM     23  C   UNL d   1     -37.971  13.638  17.008  0.00  0.00     0.181 C 
ENDBRANCH   9  22
TORSDOF 4
ENDMDL
MODEL 4
REMARK VINA RESULT:      -5.0      7.464      9.920
REMARK  4 active torsions:
REMARK  status: ('A' for Active; 'I' for Inactive)
REMARK    1  A    between atoms: C_7  and  C_1 
REMARK    2  A    between atoms: N_5  and  C_2 
REMARK    3  A    between atoms: C_12  and  N_5 
REMARK    4  A    between atoms: O_21  and  C_14 
ROOT
ATOM      1  C   UNL d   1     -39.040  15.188  19.292  0.00  0.00     0.101 A 
ATOM      2  C   UNL d   1     -39.815  15.040  19.571  0.00  0.00     0.187 A 
ATOM      3  C   UNL d   1     -38.920  15.312  18.486  0.00  0.00     0.010 A 
ATOM      4  O   UNL d   1     -40.445  15.020  19.035  0.00  0.00    -0.289 OA
ATOM      5  C   UNL d   1     -40.318  15.145  18.229  0.00  0.00     0.104 A 
ATOM      6  C   UNL d   1     -39.543  15.293  17.950  0.00  0.00     0.023 A 
ATOM      7  C   UNL d   1     -40.948  15.125  17.693  0.00  0.00     0.049 A 
ATOM      8  C   UNL d   1     -39.423  15.416  17.144  0.00  0.00     0.004 A 
ATOM      9  C   UNL d   1     -40.822  15.250  16.884  0.00  0.00     0.096 A 
ATOM     10  C   UNL d   1     -40.047  15.398  16.605  0.00  0.00     0.024 A 
ENDROOT
BRANCH   2  11
ATOM     11  N   UNL d   1     -39.943  14.916  20.374  0.00  0.00    -0.222 NA
BRANCH  11  12
ATOM     12  C   UNL d   1     -40.651  14.550  20.630  0.00  0.00     0.084 A 
ATOM     13  C   UNL d   1     -41.306  15.012  20.820  0.00  0.00     0.019 A 
ATOM     14  C   UNL d   1     -42.007  14.651  21.073  0.00  0.00     0.002 A 
ATOM     15  C   UNL d   1     -42.036  13.836  21.131  0.00  0.00     0.000 A 
ATOM     16  C   UNL d   1     -41.393  13.371  20.945  0.00  0.00     0.002 A 
ATOM     17  C   UNL d   1     -42.726  13.460  21.382  0.00  0.00     0.000 C 
ATOM     18  C   UNL d   1     -40.693  13.732  20.692  0.00  0.00     0.019 A 
ENDBRANCH  11  12
ENDBRANCH   2  11
BRANCH   1  19
ATOM     19  C   UNL d   1     -38.401  15.210  19.819  0.00  0.00     0.300 C 
ATOM     20  O   UNL d   1     -37.949  14.540  19.953  0.00  0.00    -0.264 OA
ATOM     21  N   UNL d   1     -38.227  15.918  20.207  0.00  0.00    -0.102 N 
ENDBRANCH   1  19
BRANCH   9  22
ATOM     22  O   UNL d   1     -41.440  15.231  16.354  0.00  0.00    -0.328 OA
ATOM     23  C   UNL d   1     -41.866  15.922  16.205  0.00  0.00     0.181 C 
ENDBRANCH   9  22
TORSDOF 4
ENDMDL
MODEL 5
REMARK VINA RESULT:      -4.8      0.979      1.384
REMARK  4 active torsions:
REMARK  status: ('A' for Active; 'I' for Inactive)
REMARK    1  A    between atoms: C_7  and  C_1 
REMARK    2  A    between atoms: N_5  and  C_2 
REMARK    3  A    between atoms: C_12  and  N_5 
REMARK    4  A    between atoms: O_21  and  C_14 
ROOT
ATOM      1  C   UNL d   1     -48.056  14.484  22.598  0.00  0.00     0.101 A 
ATOM      2  C   UNL d   1     -47.583  13.833  22.832  0.00  0.00     0.187 A 
ATOM      3  C   UNL d   1     -48.875  14.396  22.569  0.00  0.00     0.010 A 
ATOM      4  O   UNL d   1     -47.946  13.116  23.030  0.00  0.00    -0.289 OA
ATOM      5  C   UNL d   1     -48.766  13.035  22.999  0.00  0.00     0.104 A 
ATOM      6  C   UNL d   1     -49.239  13.685  22.765  0.00  0.00     0.023 A 
ATOM      7  C   UNL d   1     -49.129  12.318  23.198  0.00  0.00     0.049 A 
ATOM      8  C   UNL d   1     -50.058  13.597  22.737  0.00  0.00     0.004 A 
ATOM      9  C   UNL d   1     -49.952  12.235  23.168  0.00  0.00     0.096 A 
ATOM     10  C   UNL d   1     -50.424  12.885  22.934  0.00  0.00     0.024 A 
ENDROOT
BRANCH   2  11
ATOM     11  N   UNL d   1     -46.766  13.913  22.862  0.00  0.00    -0.222 NA
BRANCH  11  12
ATOM     12  C   UNL d   1     -46.283  13.230  22.897  0.00  0.00     0.084 A 
ATOM     13  C   UNL d   1     -45.801  13.035  22.258  0.00  0.00     0.019 A 
ATOM     14  C   UNL d   1     -45.324  12.359  22.292  0.00  0.00     0.002 A 
ATOM     15  C   UNL d   1     -45.338  11.895  22.965  0.00  0.00     0.000 A 
ATOM     16  C   UNL d   1     -45.812  12.081  23.602  0.00  0.00     0.002 A 
ATOM     17  C   UNL d   1     -44.869  11.218  23.015  0.00  0.00     0.000 C 
ATOM     18  C   UNL d   1     -46.289  12.756  23.567  0.00  0.00     0.019 A 
ENDBRANCH  11  12
ENDBRANCH   2  11
BRANCH   1  19
ATOM     19  C   UNL d   1     -47.705  15.207  22.397  0.00  0.00     0.300 C 
ATOM     20  O   UNL d   1     -47.187  15.575  22.914  0.00  0.00    -0.264 OA
ATOM     21  N   UNL d   1     -47.885  15.550  21.668  0.00  0.00    -0.102 N 
ENDBRANCH   1  19
BRANCH   9  22
ATOM     22  O   UNL d   1     -50.311  11.530  23.362  0.00  0.00    -0.328 OA
ATOM     23  C   UNL d   1     -51.064  11.540  23.698  0.00  0.00     0.181 C 
ENDBRANCH   9  22
TORSDOF 4
ENDMDL
MODEL 6
REMARK VINA RESULT:      -4.6      8.769     10.006
REMARK  4 active torsions:
REMARK  status: ('A' for Active; 'I' for Inactive)
REMARK    1  A    between atoms: C_7  and  C_1 
REMARK    2  A    between atoms: N_5  and  C_2 
REMARK    3  A    between atoms: C_12  and  N_5 
REMARK    4  A    between atoms: O_21  and  C_14 
ROOT
ATOM      1  C   UNL d   1     -40.736  15.567  18.037  0.00  0.00     0.101 A 
ATOM      2  C   UNL d   1     -40.041  15.114  18.146  0.00  0.00     0.187 A 
ATOM      3  C   UNL d   1     -41.152  15.830  18.698  0.00  0.00     0.010 A 
ATOM      4  O   UNL d   1     -39.785  14.938  18.913  0.00  0.00    -0.289 OA
ATOM      5  C   UNL d   1     -40.206  15.204  19.570  0.00  0.00     0.104 A 
ATOM      6  C   UNL d   1     -40.901  15.657  19.461  0.00  0.00     0.023 A 
ATOM      7  C   UNL d   1     -39.949  15.028  20.337  0.00  0.00     0.049 A 
ATOM      8  C   UNL d   1     -41.317  15.920  20.123  0.00  0.00     0.004 A 
ATOM      9  C   UNL d   1     -40.371  15.294  20.998  0.00  0.00     0.096 A 
ATOM     10  C   UNL d   1     -41.066  15.747  20.889  0.00  0.00     0.024 A 
ENDROOT
BRANCH   2  11
ATOM     11  N   UNL d   1     -39.621  14.848  17.491  0.00  0.00    -0.222 NA
BRANCH  11  12
ATOM     12  C   UNL d   1     -39.198  14.127  17.533  0.00  0.00     0.084 A 
ATOM     13  C   UNL d   1     -39.594  13.412  17.433  0.00  0.00     0.019 A 
ATOM     14  C   UNL d   1     -39.176  12.698  17.475  0.00  0.00     0.002 A 
ATOM     15  C   UNL d   1     -38.371  12.716  17.617  0.00  0.00     0.000 A 
ATOM     16  C   UNL d   1     -37.971  13.419  17.717  0.00  0.00     0.002 A 
ATOM     17  C   UNL d   1     -37.940  12.015  17.662  0.00  0.00     0.000 C 
ATOM     18  C   UNL d   1     -38.389  14.132  17.675  0.00  0.00     0.019 A 
ENDBRANCH  11  12
ENDBRANCH   2  11
BRANCH   1  19
ATOM     19  C   UNL d   1     -41.003  15.750  17.274  0.00  0.00     0.300 C 
ATOM     20  O   UNL d   1     -41.805  15.771  17.109  0.00  0.00    -0.264 OA
ATOM     21  N   UNL d   1     -40.448  15.912  16.684  0.00  0.00    -0.102 N 
ENDBRANCH   1  19
BRANCH   9  22
ATOM     22  O   UNL d   1     -40.121  15.122  21.754  0.00  0.00    -0.328 OA
ATOM     23  C   UNL d   1     -39.337  14.895  21.879  0.00  0.00     0.181 C 
ENDBRANCH   9  22
TORSDOF 4
ENDMDL
MODEL 7
REMARK VINA RESULT:      -3.8      9.549     11.882
REMARK  4 active torsions:
REMARK  status: ('A' for Active; 'I' for Inactive)
REMARK    1  A    between atoms: C_7  and  C_1 
REMARK    2  A    between atoms: N_5  and  C_2 
REMARK    3  A    between atoms: C_12  and  N_5 
REMARK    4  A    between atoms: O_21  and  C_14 
ROOT
ATOM      1  C   UNL d   1     -38.295  13.041  17.788  0.00  0.00     0.101 A 
ATOM      2  C   UNL d   1     -38.456  13.757  18.192  0.00  0.00     0.187 A 
ATOM      3  C   UNL d   1     -38.129  13.064  16.981  0.00  0.00     0.010 A 
ATOM      4  O   UNL d   1     -38.445  14.472  17.775  0.00  0.00    -0.289 OA
ATOM      5  C   UNL d   1     -38.278  14.488  16.967  0.00  0.00     0.104 A 
ATOM      6  C   UNL d   1     -38.118  13.772  16.564  0.00  0.00     0.023 A 
ATOM      7  C   UNL d   1     -38.267  15.202  16.550  0.00  0.00     0.049 A 
ATOM      8  C   UNL d   1     -37.952  13.795  15.756  0.00  0.00     0.004 A 
ATOM      9  C   UNL d   1     -38.100  15.220  15.740  0.00  0.00     0.096 A 
ATOM     10  C   UNL d   1     -37.940  14.504  15.336  0.00  0.00     0.024 A 
ENDROOT
BRANCH   2  11
ATOM     11  N   UNL d   1     -38.622  13.743  18.997  0.00  0.00    -0.222 NA
BRANCH  11  12
ATOM     12  C   UNL d   1     -39.160  14.297  19.320  0.00  0.00     0.084 A 
ATOM     13  C   UNL d   1     -38.888  15.031  19.577  0.00  0.00     0.019 A 
ATOM     14  C   UNL d   1     -39.420  15.579  19.897  0.00  0.00     0.002 A 
ATOM     15  C   UNL d   1     -40.211  15.381  19.951  0.00  0.00     0.000 A 
ATOM     16  C   UNL d   1     -40.489  14.658  19.699  0.00  0.00     0.002 A 
ATOM     17  C   UNL d   1     -40.755  15.916  20.267  0.00  0.00     0.000 C 
ATOM     18  C   UNL d   1     -39.957  14.109  19.379  0.00  0.00     0.019 A 
ENDBRANCH  11  12
ENDBRANCH   2  11
BRANCH   1  19
ATOM     19  C   UNL d   1     -38.303  12.319  18.194  0.00  0.00     0.300 C 
ATOM     20  O   UNL d   1     -38.665  11.662  17.865  0.00  0.00    -0.264 OA
ATOM     21  N   UNL d   1     -37.940  12.273  18.934  0.00  0.00    -0.102 N 
ENDBRANCH   1  19
BRANCH   9  22
ATOM     22  O   UNL d   1     -38.089  15.922  15.328  0.00  0.00    -0.328 OA
ATOM     23  C   UNL d   1     -38.169  15.910  14.507  0.00  0.00     0.181 C 
ENDBRANCH   9  22
TORSDOF 4
ENDMDL
