MODEL 1
REMARK VINA RESULT:       8.6      0.000      0.000
REMARK  2 active torsions:
REMARK  status: ('A' for Active; 'I' for Inactive)
REMARK    1  A    between atoms: C_6  and  N_1 
REMARK    2  A    between atoms: C_7  and  C_6 
ROOT
ATOM      1  N   UNL d   1      23.307  12.550  -1.214  0.00  0.00    -0.236 N 
ATOM      2  C   UNL d   1      24.010  12.157  -1.320  0.00  0.00     0.267 A 
ATOM      3  C   UNL d   1      23.008  12.753  -1.938  0.00  0.00     0.267 A 
ATOM      4  C   UNL d   1      24.154  12.113  -2.123  0.00  0.00     0.061 A 
ATOM      5  C   UNL d   1      23.529  12.485  -2.510  0.00  0.00     0.061 A 
ATOM      6  O   UNL d   1      24.508  11.847  -0.719  0.00  0.00    -0.267 OA
ATOM      7  O   UNL d   1      22.290  13.166  -2.089  0.00  0.00    -0.267 OA
ATOM      8  C   UNL d   1      23.526  12.525  -3.334  0.00  0.00     0.005 A 
ATOM      9  C   UNL d   1      24.768  11.787  -2.567  0.00  0.00     0.005 A 
ATOM     10  C   UNL d   1      24.768  11.826  -3.394  0.00  0.00     0.000 A 
ATOM     11  C   UNL d   1      24.142  12.198  -3.780  0.00  0.00     0.000 A 
ENDROOT
BRANCH   1  12
ATOM     12  C   UNL d   1      22.971  12.705  -0.469  0.00  0.00     0.134 C 
ATOM     13  C   UNL d   1      22.621  12.125  -0.022  0.00  0.00     0.026 C 
BRANCH  12  14
ATOM     14  C   UNL d   1      23.000  13.488  -0.180  0.00  0.00     0.228 C 
ATOM     15  O   UNL d   1      22.289  13.901  -0.028  0.00  0.00    -0.643 OA
ATOM     16  O   UNL d   1      23.730  13.858  -0.044  0.00  0.00    -0.643 OA
ENDBRANCH  12  14
ENDBRANCH   1  12
TORSDOF 2
ENDMDL
