MODEL 1
REMARK VINA RESULT:      -7.2      0.000      0.000
REMARK  5 active torsions:
REMARK  status: ('A' for Active; 'I' for Inactive)
REMARK    1  A    between atoms: N_2  and  S_1 
REMARK    2  A    between atoms: C_3  and  S_1 
REMARK    3  A    between atoms: C_15  and  C_11 
REMARK    4  A    between atoms: O_17  and  C_12 
REMARK    5  A    between atoms: C_21  and  O_17 
ROOT
ATOM      1  C   UNL d   1     -47.872  13.414  22.748  0.00  0.00     0.128 A 
ATOM      2  C   UNL d   1     -47.157  13.013  22.666  0.00  0.00     0.015 A 
ATOM      3  C   UNL d   1     -46.448  13.433  22.647  0.00  0.00     0.001 A 
ATOM      4  C   UNL d   1     -47.878  14.234  22.812  0.00  0.00     0.112 A 
ATOM      5  C   UNL d   1     -46.453  14.255  22.711  0.00  0.00     0.002 A 
ATOM      6  C   UNL d   1     -47.168  14.654  22.793  0.00  0.00     0.025 A 
ENDROOT
BRANCH   1   7
ATOM      7  S   UNL d   1     -48.582  12.993  22.767  0.00  0.00     0.288 S 
ATOM      8  O   UNL d   1     -48.491  12.877  23.579  0.00  0.00    -0.198 OA
ATOM      9  O   UNL d   1     -48.672  13.109  21.955  0.00  0.00    -0.198 OA
BRANCH   7  10
ATOM     10  N   UNL d   1     -49.291  12.572  22.786  0.00  0.00    -0.152 N 
ATOM     11  N   UNL d   1     -49.788  12.485  23.435  0.00  0.00    -0.155 NA
ATOM     12  C   UNL d   1     -50.433  12.025  23.212  0.00  0.00     0.104 A 
ATOM     13  C   UNL d   1     -51.064  11.803  23.696  0.00  0.00     0.022 C 
ATOM     14  C   UNL d   1     -50.335  11.824  22.418  0.00  0.00     0.041 A 
ATOM     15  C   UNL d   1     -49.631  12.162  22.156  0.00  0.00     0.096 A 
ATOM     16  C   UNL d   1     -49.319  12.101  21.395  0.00  0.00     0.022 C 
ENDBRANCH   7  10
ENDBRANCH   1   7
BRANCH   4  17
ATOM     17  O   UNL d   1     -48.594  14.638  22.895  0.00  0.00    -0.304 OA
BRANCH  17  18
ATOM     18  C   UNL d   1     -48.607  15.461  22.885  0.00  0.00     0.123 C 
ATOM     19  C   UNL d   1     -49.331  15.867  22.889  0.00  0.00     0.029 C 
ENDBRANCH  17  18
ENDBRANCH   4  17
BRANCH   3  20
ATOM     20  C   UNL d   1     -45.733  13.034  22.565  0.00  0.00     0.000 C 
ATOM     21  C   UNL d   1     -45.553  12.396  23.065  0.00  0.00     0.000 C 
ATOM     22  C   UNL d   1     -45.194  13.266  21.985  0.00  0.00     0.000 C 
ENDBRANCH   3  20
TORSDOF 5
ENDMDL
MODEL 2
REMARK VINA RESULT:      -7.0      1.246      2.325
REMARK  5 active torsions:
REMARK  status: ('A' for Active; 'I' for Inactive)
REMARK    1  A    between atoms: N_2  and  S_1 
REMARK    2  A    between atoms: C_3  and  S_1 
REMARK    3  A    between atoms: C_15  and  C_11 
REMARK    4  A    between atoms: O_17  and  C_12 
REMARK    5  A    between atoms: C_21  and  O_17 
ROOT
ATOM      1  C   UNL d   1     -48.134  13.422  22.946  0.00  0.00     0.128 A 
ATOM      2  C   UNL d   1     -47.400  13.725  22.729  0.00  0.00     0.015 A 
ATOM      3  C   UNL d   1     -46.725  13.254  22.788  0.00  0.00     0.001 A 
ATOM      4  C   UNL d   1     -48.194  12.649  23.221  0.00  0.00     0.112 A 
ATOM      5  C   UNL d   1     -46.785  12.480  23.064  0.00  0.00     0.002 A 
ATOM      6  C   UNL d   1     -47.520  12.178  23.280  0.00  0.00     0.025 A 
ENDROOT
BRANCH   1   7
ATOM      7  S   UNL d   1     -48.809  13.894  22.887  0.00  0.00     0.288 S 
ATOM      8  O   UNL d   1     -48.697  14.151  23.662  0.00  0.00    -0.198 OA
ATOM      9  O   UNL d   1     -48.921  13.636  22.111  0.00  0.00    -0.198 OA
BRANCH   7  10
ATOM     10  N   UNL d   1     -49.483  14.365  22.827  0.00  0.00    -0.152 N 
ATOM     11  N   UNL d   1     -49.879  14.730  23.450  0.00  0.00    -0.155 NA
ATOM     12  C   UNL d   1     -50.521  15.145  23.146  0.00  0.00     0.104 A 
ATOM     13  C   UNL d   1     -51.064  15.589  23.581  0.00  0.00     0.022 C 
ATOM     14  C   UNL d   1     -50.525  15.037  22.328  0.00  0.00     0.041 A 
ATOM     15  C   UNL d   1     -49.885  14.556  22.132  0.00  0.00     0.096 A 
ATOM     16  C   UNL d   1     -49.680  14.308  21.373  0.00  0.00     0.022 C 
ENDBRANCH   7  10
ENDBRANCH   1   7
BRANCH   4  17
ATOM     17  O   UNL d   1     -48.931  12.343  23.439  0.00  0.00    -0.304 OA
BRANCH  17  18
ATOM     18  C   UNL d   1     -49.002  11.552  23.655  0.00  0.00     0.123 C 
ATOM     19  C   UNL d   1     -49.749  11.194  23.689  0.00  0.00     0.029 C 
ENDBRANCH  17  18
ENDBRANCH   4  17
BRANCH   3  20
ATOM     20  C   UNL d   1     -45.990  13.556  22.572  0.00  0.00     0.000 C 
ATOM     21  C   UNL d   1     -45.827  14.364  22.672  0.00  0.00     0.000 C 
ATOM     22  C   UNL d   1     -45.415  13.057  22.256  0.00  0.00     0.000 C 
ENDBRANCH   3  20
TORSDOF 5
ENDMDL
MODEL 3
REMARK VINA RESULT:      -6.9      1.536      3.937
REMARK  5 active torsions:
REMARK  status: ('A' for Active; 'I' for Inactive)
REMARK    1  A    between atoms: N_2  and  S_1 
REMARK    2  A    between atoms: C_3  and  S_1 
REMARK    3  A    between atoms: C_15  and  C_11 
REMARK    4  A    between atoms: O_17  and  C_12 
REMARK    5  A    between atoms: C_21  and  O_17 
ROOT
ATOM      1  C   UNL d   1     -48.843  13.323  22.656  0.00  0.00     0.128 A 
ATOM      2  C   UNL d   1     -49.410  13.844  22.363  0.00  0.00     0.015 A 
ATOM      3  C   UNL d   1     -50.211  13.656  22.417  0.00  0.00     0.001 A 
ATOM      4  C   UNL d   1     -49.078  12.614  23.001  0.00  0.00     0.112 A 
ATOM      5  C   UNL d   1     -50.446  12.946  22.762  0.00  0.00     0.002 A 
ATOM      6  C   UNL d   1     -49.880  12.426  23.055  0.00  0.00     0.025 A 
ENDROOT
BRANCH   1   7
ATOM      7  S   UNL d   1     -48.042  13.511  22.603  0.00  0.00     0.288 S 
ATOM      8  O   UNL d   1     -48.060  13.807  23.373  0.00  0.00    -0.198 OA
ATOM      9  O   UNL d   1     -48.024  13.216  21.833  0.00  0.00    -0.198 OA
BRANCH   7  10
ATOM     10  N   UNL d   1     -47.241  13.699  22.550  0.00  0.00    -0.152 N 
ATOM     11  N   UNL d   1     -46.631  13.183  22.356  0.00  0.00    -0.155 NA
ATOM     12  C   UNL d   1     -45.921  13.598  22.367  0.00  0.00     0.104 A 
ATOM     13  C   UNL d   1     -45.172  13.289  22.204  0.00  0.00     0.022 C 
ATOM     14  C   UNL d   1     -46.091  14.380  22.569  0.00  0.00     0.041 A 
ATOM     15  C   UNL d   1     -46.905  14.442  22.681  0.00  0.00     0.096 A 
ATOM     16  C   UNL d   1     -47.313  15.126  22.890  0.00  0.00     0.022 C 
ENDBRANCH   7  10
ENDBRANCH   1   7
BRANCH   4  17
ATOM     17  O   UNL d   1     -48.511  12.089  23.296  0.00  0.00    -0.304 OA
BRANCH  17  18
ATOM     18  C   UNL d   1     -48.746  11.384  23.650  0.00  0.00     0.123 C 
ATOM     19  C   UNL d   1     -48.219  10.745  23.698  0.00  0.00     0.029 C 
ENDBRANCH  17  18
ENDBRANCH   4  17
BRANCH   3  20
ATOM     20  C   UNL d   1     -50.778  14.177  22.124  0.00  0.00     0.000 C 
ATOM     21  C   UNL d   1     -51.063  14.793  22.603  0.00  0.00     0.000 C 
ATOM     22  C   UNL d   1     -51.064  14.088  21.356  0.00  0.00     0.000 C 
ENDBRANCH   3  20
TORSDOF 5
ENDMDL
MODEL 4
REMARK VINA RESULT:      -6.7      1.336      2.982
REMARK  5 active torsions:
REMARK  status: ('A' for Active; 'I' for Inactive)
REMARK    1  A    between atoms: N_2  and  S_1 
REMARK    2  A    between atoms: C_3  and  S_1 
REMARK    3  A    between atoms: C_15  and  C_11 
REMARK    4  A    between atoms: O_17  and  C_12 
REMARK    5  A    between atoms: C_21  and  O_17 
ROOT
ATOM      1  C   UNL d   1     -48.617  13.897  22.747  0.00  0.00     0.128 A 
ATOM      2  C   UNL d   1     -49.426  14.042  22.688  0.00  0.00     0.015 A 
ATOM      3  C   UNL d   1     -49.699  14.808  22.551  0.00  0.00     0.001 A 
ATOM      4  C   UNL d   1     -48.083  14.518  22.669  0.00  0.00     0.112 A 
ATOM      5  C   UNL d   1     -49.164  15.430  22.474  0.00  0.00     0.002 A 
ATOM      6  C   UNL d   1     -48.356  15.284  22.533  0.00  0.00     0.025 A 
ENDROOT
BRANCH   1   7
ATOM      7  S   UNL d   1     -48.344  13.131  22.883  0.00  0.00     0.288 S 
ATOM      8  O   UNL d   1     -48.466  13.231  23.693  0.00  0.00    -0.198 OA
ATOM      9  O   UNL d   1     -48.221  13.031  22.073  0.00  0.00    -0.198 OA
BRANCH   7  10
ATOM     10  N   UNL d   1     -48.070  12.365  23.019  0.00  0.00    -0.152 N 
ATOM     11  N   UNL d   1     -47.352  12.158  23.363  0.00  0.00    -0.155 NA
ATOM     12  C   UNL d   1     -47.302  11.337  23.393  0.00  0.00     0.104 A 
ATOM     13  C   UNL d   1     -46.672  10.898  23.697  0.00  0.00     0.022 C 
ATOM     14  C   UNL d   1     -47.995  11.031  23.066  0.00  0.00     0.041 A 
ATOM     15  C   UNL d   1     -48.468  11.666  22.835  0.00  0.00     0.096 A 
ATOM     16  C   UNL d   1     -49.210  11.611  22.482  0.00  0.00     0.022 C 
ENDBRANCH   7  10
ENDBRANCH   1   7
BRANCH   4  17
ATOM     17  O   UNL d   1     -47.270  14.375  22.728  0.00  0.00    -0.304 OA
BRANCH  17  18
ATOM     18  C   UNL d   1     -46.732  14.980  22.580  0.00  0.00     0.123 C 
ATOM     19  C   UNL d   1     -45.940  14.901  22.814  0.00  0.00     0.029 C 
ENDBRANCH  17  18
ENDBRANCH   4  17
BRANCH   3  20
ATOM     20  C   UNL d   1     -50.507  14.954  22.493  0.00  0.00     0.000 C 
ATOM     21  C   UNL d   1     -50.907  15.339  23.111  0.00  0.00     0.000 C 
ATOM     22  C   UNL d   1     -50.922  14.719  21.819  0.00  0.00     0.000 C 
ENDBRANCH   3  20
TORSDOF 5
ENDMDL
MODEL 5
REMARK VINA RESULT:      -5.4      8.294      9.973
REMARK  5 active torsions:
REMARK  status: ('A' for Active; 'I' for Inactive)
REMARK    1  A    between atoms: N_2  and  S_1 
REMARK    2  A    between atoms: C_3  and  S_1 
REMARK    3  A    between atoms: C_15  and  C_11 
REMARK    4  A    between atoms: O_17  and  C_12 
REMARK    5  A    between atoms: C_21  and  O_17 
ROOT
ATOM      1  C   UNL d   1     -39.838  14.492  18.461  0.00  0.00     0.128 A 
ATOM      2  C   UNL d   1     -40.348  15.049  18.132  0.00  0.00     0.015 A 
ATOM      3  C   UNL d   1     -40.451  15.080  17.314  0.00  0.00     0.001 A 
ATOM      4  C   UNL d   1     -39.433  13.968  17.974  0.00  0.00     0.112 A 
ATOM      5  C   UNL d   1     -40.046  14.555  16.826  0.00  0.00     0.002 A 
ATOM      6  C   UNL d   1     -39.536  13.999  17.156  0.00  0.00     0.025 A 
ENDROOT
BRANCH   1   7
ATOM      7  S   UNL d   1     -39.734  14.461  19.279  0.00  0.00     0.288 S 
ATOM      8  O   UNL d   1     -40.298  13.861  19.328  0.00  0.00    -0.198 OA
ATOM      9  O   UNL d   1     -39.170  15.061  19.231  0.00  0.00    -0.198 OA
BRANCH   7  10
ATOM     10  N   UNL d   1     -39.630  14.430  20.097  0.00  0.00    -0.152 N 
ATOM     11  N   UNL d   1     -38.911  14.415  20.497  0.00  0.00    -0.155 NA
ATOM     12  C   UNL d   1     -39.061  14.384  21.305  0.00  0.00     0.104 A 
ATOM     13  C   UNL d   1     -38.494  14.361  21.905  0.00  0.00     0.022 C 
ATOM     14  C   UNL d   1     -39.879  14.379  21.409  0.00  0.00     0.041 A 
ATOM     15  C   UNL d   1     -40.230  14.407  20.664  0.00  0.00     0.096 A 
ATOM     16  C   UNL d   1     -41.039  14.413  20.510  0.00  0.00     0.022 C 
ENDBRANCH   7  10
ENDBRANCH   1   7
BRANCH   4  17
ATOM     17  O   UNL d   1     -38.920  13.408  18.304  0.00  0.00    -0.304 OA
BRANCH  17  18
ATOM     18  C   UNL d   1     -38.439  12.952  17.816  0.00  0.00     0.123 C 
ATOM     19  C   UNL d   1     -38.143  12.225  18.084  0.00  0.00     0.029 C 
ENDBRANCH  17  18
ENDBRANCH   4  17
BRANCH   3  20
ATOM     20  C   UNL d   1     -40.961  15.636  16.983  0.00  0.00     0.000 C 
ATOM     21  C   UNL d   1     -40.832  15.910  16.209  0.00  0.00     0.000 C 
ATOM     22  C   UNL d   1     -41.600  15.922  17.419  0.00  0.00     0.000 C 
ENDBRANCH   3  20
TORSDOF 5
ENDMDL
MODEL 6
REMARK VINA RESULT:      -5.4      8.552     10.395
REMARK  5 active torsions:
REMARK  status: ('A' for Active; 'I' for Inactive)
REMARK    1  A    between atoms: N_2  and  S_1 
REMARK    2  A    between atoms: C_3  and  S_1 
REMARK    3  A    between atoms: C_15  and  C_11 
REMARK    4  A    between atoms: O_17  and  C_12 
REMARK    5  A    between atoms: C_21  and  O_17 
ROOT
ATOM      1  C   UNL d   1     -39.540  14.917  19.015  0.00  0.00     0.128 A 
ATOM      2  C   UNL d   1     -40.008  15.326  19.556  0.00  0.00     0.015 A 
ATOM      3  C   UNL d   1     -40.034  15.084  20.344  0.00  0.00     0.001 A 
ATOM      4  C   UNL d   1     -39.099  14.269  19.262  0.00  0.00     0.112 A 
ATOM      5  C   UNL d   1     -39.593  14.434  20.592  0.00  0.00     0.002 A 
ATOM      6  C   UNL d   1     -39.125  14.027  20.050  0.00  0.00     0.025 A 
ENDROOT
BRANCH   1   7
ATOM      7  S   UNL d   1     -39.514  15.159  18.227  0.00  0.00     0.288 S 
ATOM      8  O   UNL d   1     -40.082  14.592  18.034  0.00  0.00    -0.198 OA
ATOM      9  O   UNL d   1     -38.946  15.726  18.419  0.00  0.00    -0.198 OA
BRANCH   7  10
ATOM     10  N   UNL d   1     -39.488  15.400  17.438  0.00  0.00    -0.152 N 
ATOM     11  N   UNL d   1     -38.810  15.508  16.984  0.00  0.00    -0.155 NA
ATOM     12  C   UNL d   1     -39.035  15.751  16.231  0.00  0.00     0.104 A 
ATOM     13  C   UNL d   1     -38.527  15.921  15.602  0.00  0.00     0.022 C 
ATOM     14  C   UNL d   1     -39.858  15.794  16.216  0.00  0.00     0.041 A 
ATOM     15  C   UNL d   1     -40.137  15.578  16.961  0.00  0.00     0.096 A 
ATOM     16  C   UNL d   1     -40.928  15.544  17.190  0.00  0.00     0.022 C 
ENDBRANCH   7  10
ENDBRANCH   1   7
BRANCH   4  17
ATOM     17  O   UNL d   1     -38.629  13.857  18.721  0.00  0.00    -0.304 OA
BRANCH  17  18
ATOM     18  C   UNL d   1     -38.189  13.206  18.967  0.00  0.00     0.123 C 
ATOM     19  C   UNL d   1     -37.947  12.634  18.417  0.00  0.00     0.029 C 
ENDBRANCH  17  18
ENDBRANCH   4  17
BRANCH   3  20
ATOM     20  C   UNL d   1     -40.502  15.492  20.885  0.00  0.00     0.000 C 
ATOM     21  C   UNL d   1     -40.147  15.921  21.502  0.00  0.00     0.000 C 
ATOM     22  C   UNL d   1     -41.324  15.475  20.818  0.00  0.00     0.000 C 
ENDBRANCH   3  20
TORSDOF 5
ENDMDL
MODEL 7
REMARK VINA RESULT:      -5.1      8.878     10.341
REMARK  5 active torsions:
REMARK  status: ('A' for Active; 'I' for Inactive)
REMARK    1  A    between atoms: N_2  and  S_1 
REMARK    2  A    between atoms: C_3  and  S_1 
REMARK    3  A    between atoms: C_15  and  C_11 
REMARK    4  A    between atoms: O_17  and  C_12 
REMARK    5  A    between atoms: C_21  and  O_17 
ROOT
ATOM      1  C   UNL d   1     -38.931  14.047  19.209  0.00  0.00     0.128 A 
ATOM      2  C   UNL d   1     -38.945  14.268  20.003  0.00  0.00     0.015 A 
ATOM      3  C   UNL d   1     -38.475  13.868  20.550  0.00  0.00     0.001 A 
ATOM      4  C   UNL d   1     -38.448  13.428  18.964  0.00  0.00     0.112 A 
ATOM      5  C   UNL d   1     -37.991  13.248  20.305  0.00  0.00     0.002 A 
ATOM      6  C   UNL d   1     -37.978  13.029  19.512  0.00  0.00     0.025 A 
ENDROOT
BRANCH   1   7
ATOM      7  S   UNL d   1     -39.401  14.446  18.662  0.00  0.00     0.288 S 
ATOM      8  O   UNL d   1     -39.936  13.818  18.662  0.00  0.00    -0.198 OA
ATOM      9  O   UNL d   1     -38.867  15.075  18.661  0.00  0.00    -0.198 OA
BRANCH   7  10
ATOM     10  N   UNL d   1     -39.872  14.846  18.114  0.00  0.00    -0.152 N 
ATOM     11  N   UNL d   1     -39.619  15.172  17.402  0.00  0.00    -0.155 NA
ATOM     12  C   UNL d   1     -40.266  15.517  17.028  0.00  0.00     0.104 A 
ATOM     13  C   UNL d   1     -40.257  15.907  16.299  0.00  0.00     0.022 C 
ATOM     14  C   UNL d   1     -40.925  15.404  17.511  0.00  0.00     0.041 A 
ATOM     15  C   UNL d   1     -40.681  14.990  18.181  0.00  0.00     0.096 A 
ATOM     16  C   UNL d   1     -41.162  14.760  18.809  0.00  0.00     0.022 C 
ENDBRANCH   7  10
ENDBRANCH   1   7
BRANCH   4  17
ATOM     17  O   UNL d   1     -38.433  13.205  18.168  0.00  0.00    -0.304 OA
BRANCH  17  18
ATOM     18  C   UNL d   1     -37.950  12.585  17.922  0.00  0.00     0.123 C 
ATOM     19  C   UNL d   1     -37.940  12.355  17.125  0.00  0.00     0.029 C 
ENDBRANCH  17  18
ENDBRANCH   4  17
BRANCH   3  20
ATOM     20  C   UNL d   1     -38.488  14.088  21.343  0.00  0.00     0.000 C 
ATOM     21  C   UNL d   1     -38.032  14.732  21.605  0.00  0.00     0.000 C 
ATOM     22  C   UNL d   1     -38.952  13.670  21.882  0.00  0.00     0.000 C 
ENDBRANCH   3  20
TORSDOF 5
ENDMDL
MODEL 8
REMARK VINA RESULT:      -5.1      1.683      3.333
REMARK  5 active torsions:
REMARK  status: ('A' for Active; 'I' for Inactive)
REMARK    1  A    between atoms: N_2  and  S_1 
REMARK    2  A    between atoms: C_3  and  S_1 
REMARK    3  A    between atoms: C_15  and  C_11 
REMARK    4  A    between atoms: O_17  and  C_12 
REMARK    5  A    between atoms: C_21  and  O_17 
ROOT
ATOM      1  C   UNL d   1     -46.392  12.061  23.195  0.00  0.00     0.128 A 
ATOM      2  C   UNL d   1     -45.599  11.847  23.124  0.00  0.00     0.015 A 
ATOM      3  C   UNL d   1     -45.355  11.090  23.340  0.00  0.00     0.001 A 
ATOM      4  C   UNL d   1     -46.939  11.518  23.481  0.00  0.00     0.112 A 
ATOM      5  C   UNL d   1     -45.903  10.545  23.627  0.00  0.00     0.002 A 
ATOM      6  C   UNL d   1     -46.695  10.760  23.697  0.00  0.00     0.025 A 
ENDROOT
BRANCH   1   7
ATOM      7  S   UNL d   1     -46.636  12.819  22.978  0.00  0.00     0.288 S 
ATOM      8  O   UNL d   1     -46.912  12.524  22.259  0.00  0.00    -0.198 OA
ATOM      9  O   UNL d   1     -46.359  13.113  23.698  0.00  0.00    -0.198 OA
BRANCH   7  10
ATOM     10  N   UNL d   1     -46.880  13.576  22.762  0.00  0.00    -0.152 N 
ATOM     11  N   UNL d   1     -47.642  13.879  22.827  0.00  0.00    -0.155 NA
ATOM     12  C   UNL d   1     -47.641  14.654  22.549  0.00  0.00     0.104 A 
ATOM     13  C   UNL d   1     -48.293  15.161  22.515  0.00  0.00     0.022 C 
ATOM     14  C   UNL d   1     -46.872  14.834  22.310  0.00  0.00     0.041 A 
ATOM     15  C   UNL d   1     -46.403  14.169  22.442  0.00  0.00     0.096 A 
ATOM     16  C   UNL d   1     -45.597  14.106  22.282  0.00  0.00     0.022 C 
ENDBRANCH   7  10
ENDBRANCH   1   7
BRANCH   4  17
ATOM     17  O   UNL d   1     -47.735  11.730  23.553  0.00  0.00    -0.304 OA
BRANCH  17  18
ATOM     18  C   UNL d   1     -48.306  11.153  23.691  0.00  0.00     0.123 C 
ATOM     19  C   UNL d   1     -49.111  11.338  23.625  0.00  0.00     0.029 C 
ENDBRANCH  17  18
ENDBRANCH   4  17
BRANCH   3  20
ATOM     20  C   UNL d   1     -44.564  10.875  23.270  0.00  0.00     0.000 C 
ATOM     21  C   UNL d   1     -44.292  10.168  23.612  0.00  0.00     0.000 C 
ATOM     22  C   UNL d   1     -44.038  11.361  22.860  0.00  0.00     0.000 C 
ENDBRANCH   3  20
TORSDOF 5
ENDMDL
MODEL 9
REMARK VINA RESULT:      -4.9      8.187      9.905
REMARK  5 active torsions:
REMARK  status: ('A' for Active; 'I' for Inactive)
REMARK    1  A    between atoms: N_2  and  S_1 
REMARK    2  A    between atoms: C_3  and  S_1 
REMARK    3  A    between atoms: C_15  and  C_11 
REMARK    4  A    between atoms: O_17  and  C_12 
REMARK    5  A    between atoms: C_21  and  O_17 
ROOT
ATOM      1  C   UNL d   1     -39.334  14.600  19.769  0.00  0.00     0.128 A 
ATOM      2  C   UNL d   1     -38.936  14.218  19.158  0.00  0.00     0.015 A 
ATOM      3  C   UNL d   1     -39.282  14.162  18.411  0.00  0.00     0.001 A 
ATOM      4  C   UNL d   1     -40.078  14.925  19.634  0.00  0.00     0.112 A 
ATOM      5  C   UNL d   1     -40.027  14.488  18.276  0.00  0.00     0.002 A 
ATOM      6  C   UNL d   1     -40.424  14.869  18.887  0.00  0.00     0.025 A 
ENDROOT
BRANCH   1   7
ATOM      7  S   UNL d   1     -38.988  14.655  20.516  0.00  0.00     0.288 S 
ATOM      8  O   UNL d   1     -39.432  14.009  20.770  0.00  0.00    -0.198 OA
ATOM      9  O   UNL d   1     -38.544  15.302  20.261  0.00  0.00    -0.198 OA
BRANCH   7  10
ATOM     10  N   UNL d   1     -38.642  14.711  21.262  0.00  0.00    -0.152 N 
ATOM     11  N   UNL d   1     -38.519  15.402  21.692  0.00  0.00    -0.155 NA
ATOM     12  C   UNL d   1     -38.159  15.207  22.406  0.00  0.00     0.104 A 
ATOM     13  C   UNL d   1     -37.940  15.736  23.001  0.00  0.00     0.022 C 
ATOM     14  C   UNL d   1     -38.058  14.389  22.420  0.00  0.00     0.041 A 
ATOM     15  C   UNL d   1     -38.355  14.084  21.715  0.00  0.00     0.096 A 
ATOM     16  C   UNL d   1     -38.365  13.288  21.498  0.00  0.00     0.022 C 
ENDBRANCH   7  10
ENDBRANCH   1   7
BRANCH   4  17
ATOM     17  O   UNL d   1     -40.479  15.309  20.247  0.00  0.00    -0.304 OA
BRANCH  17  18
ATOM     18  C   UNL d   1     -41.180  15.713  20.092  0.00  0.00     0.123 C 
ATOM     19  C   UNL d   1     -41.687  15.922  20.714  0.00  0.00     0.029 C 
ENDBRANCH  17  18
ENDBRANCH   4  17
BRANCH   3  20
ATOM     20  C   UNL d   1     -38.885  13.780  17.799  0.00  0.00     0.000 C 
ATOM     21  C   UNL d   1     -38.977  12.962  17.690  0.00  0.00     0.000 C 
ATOM     22  C   UNL d   1     -38.395  14.209  17.293  0.00  0.00     0.000 C 
ENDBRANCH   3  20
TORSDOF 5
ENDMDL
