MODEL 1
REMARK VINA RESULT:     149.9      0.000      0.000
REMARK  2 active torsions:
REMARK  status: ('A' for Active; 'I' for Inactive)
REMARK    1  A    between atoms: N_11  and  C_4 
REMARK    2  A    between atoms: C_16  and  N_12 
ROOT
ATOM      1  N   UNL d   1     -56.549-102.235 -40.336  0.00  0.00    -0.195 N 
ATOM      2  C   UNL d   1     -56.739-102.446 -39.581  0.00  0.00     0.168 A 
ATOM      3  C   UNL d   1     -57.500-102.530 -39.363  0.00  0.00     0.073 A 
ATOM      4  C   UNL d   1     -55.784-102.155 -40.537  0.00  0.00     0.153 A 
ATOM      5  N   UNL d   1     -57.879-102.190 -40.659  0.00  0.00    -0.143 NA
ATOM      6  C   UNL d   1     -58.069-102.401 -39.904  0.00  0.00     0.185 A 
ATOM      7  N   UNL d   1     -56.160-102.573 -39.046  0.00  0.00    -0.227 NA
ATOM      8  C   UNL d   1     -57.688-102.739 -38.616  0.00  0.00     0.007 A 
ATOM      9  N   UNL d   1     -58.844-102.483 -39.698  0.00  0.00    -0.225 NA
ATOM     10  C   UNL d   1     -55.207-102.280 -40.011  0.00  0.00     0.057 A 
ATOM     11  C   UNL d   1     -58.449-102.824 -38.398  0.00  0.00     0.019 A 
ATOM     12  C   UNL d   1     -55.397-102.491 -39.255  0.00  0.00     0.086 A 
ATOM     13  C   UNL d   1     -59.034-102.694 -38.943  0.00  0.00     0.083 A 
ATOM     14  C   UNL d   1     -57.105-102.866 -38.080  0.00  0.00     0.000 C 
ATOM     15  C   UNL d   1     -54.793-102.622 -38.701  0.00  0.00     0.021 C 
ATOM     16  C   UNL d   1     -59.792-102.776 -38.732  0.00  0.00     0.021 C 
ENDROOT
BRANCH   4  17
ATOM     17  N   UNL d   1     -55.596-101.937 -41.317  0.00  0.00    -0.286 N 
ATOM     18  C   UNL d   1     -55.768-102.479 -41.924  0.00  0.00     0.101 A 
ATOM     19  C   UNL d   1     -55.594-102.295 -42.714  0.00  0.00     0.100 A 
ATOM     20  N   UNL d   1     -55.247-101.567 -42.892  0.00  0.00    -0.301 N 
ATOM     21  C   UNL d   1     -55.070-101.018 -42.292  0.00  0.00     0.100 A 
ATOM     22  C   UNL d   1     -55.247-101.207 -41.500  0.00  0.00     0.101 A 
BRANCH  20  23
ATOM     23  C   UNL d   1     -55.072-101.380 -43.676  0.00  0.00     0.065 A 
ATOM     24  C   UNL d   1     -55.058-100.586 -43.927  0.00  0.00     0.029 A 
ATOM     25  C   UNL d   1     -54.881-100.400 -44.724  0.00  0.00     0.059 A 
ATOM     26 CL   UNL d   1     -54.866 -99.610 -44.976  0.00  0.00    -0.082 Cl
ATOM     27  C   UNL d   1     -54.717-101.014 -45.268  0.00  0.00     0.011 A 
ATOM     28  C   UNL d   1     -54.732-101.812 -45.010  0.00  0.00     0.002 A 
ATOM     29  C   UNL d   1     -54.908-101.990 -44.224  0.00  0.00     0.018 A 
ENDBRANCH  20  23
ENDBRANCH   4  17
TORSDOF 2
ENDMDL
