MODEL 1
REMARK VINA RESULT:      -2.9      0.000      0.000
REMARK  1 active torsions:
REMARK  status: ('A' for Active; 'I' for Inactive)
REMARK    1  A    between atoms: C_10  and  C_4 
ROOT
ATOM      1  C   UNL d   1      30.336  17.131 -24.263  0.00  0.00     0.186 A 
ATOM      2  N   UNL d   1      30.773  17.716 -24.672  0.00  0.00    -0.193 N 
ATOM      3  N   UNL d   1      30.729  16.580 -23.791  0.00  0.00    -0.214 NA
ATOM      4  C   UNL d   1      29.535  17.256 -24.444  0.00  0.00     0.140 A 
ATOM      5  N   UNL d   1      30.240  18.190 -25.097  0.00  0.00    -0.058 NA
ATOM      6  N   UNL d   1      29.478  17.898 -24.950  0.00  0.00    -0.127 NA
ATOM      7  C   UNL d   1      31.552  16.599 -23.720  0.00  0.00     0.142 A 
ATOM      8  C   UNL d   1      31.980  17.180 -24.128  0.00  0.00     0.046 A 
ATOM      9  C   UNL d   1      31.592  17.733 -24.599  0.00  0.00     0.088 A 
ATOM     10 CL   UNL d   1      31.943  16.048 -23.249  0.00  0.00    -0.061 Cl
ATOM     11  C   UNL d   1      32.800  17.198 -24.055  0.00  0.00     0.004 A 
ATOM     12  C   UNL d   1      32.030  18.307 -25.000  0.00  0.00     0.019 A 
ATOM     13  C   UNL d   1      33.234  17.770 -24.455  0.00  0.00     0.000 A 
ATOM     14  C   UNL d   1      32.850  18.325 -24.928  0.00  0.00     0.002 A 
ENDROOT
BRANCH   4  15
ATOM     15  C   UNL d   1      28.913  16.807 -24.160  0.00  0.00     0.022 A 
ATOM     16  C   UNL d   1      28.426  17.110 -23.566  0.00  0.00     0.002 A 
ATOM     17  C   UNL d   1      27.797  16.658 -23.277  0.00  0.00     0.000 A 
ATOM     18  C   UNL d   1      27.658  15.904 -23.584  0.00  0.00     0.000 A 
ATOM     19  C   UNL d   1      28.148  15.603 -24.180  0.00  0.00     0.000 A 
ATOM     20  C   UNL d   1      27.032  15.453 -23.298  0.00  0.00     0.000 C 
ATOM     21  C   UNL d   1      28.774  16.053 -24.467  0.00  0.00     0.002 A 
ENDBRANCH   4  15
TORSDOF 1
ENDMDL
MODEL 2
REMARK VINA RESULT:      -2.9      1.204      4.168
REMARK  1 active torsions:
REMARK  status: ('A' for Active; 'I' for Inactive)
REMARK    1  A    between atoms: C_10  and  C_4 
ROOT
ATOM      1  C   UNL d   1      30.369  17.189 -23.937  0.00  0.00     0.186 A 
ATOM      2  N   UNL d   1      30.079  16.454 -23.662  0.00  0.00    -0.193 N 
ATOM      3  N   UNL d   1      29.840  17.766 -24.200  0.00  0.00    -0.214 NA
ATOM      4  C   UNL d   1      31.197  17.161 -23.876  0.00  0.00     0.140 A 
ATOM      5  N   UNL d   1      30.727  15.986 -23.436  0.00  0.00    -0.058 NA
ATOM      6  N   UNL d   1      31.412  16.431 -23.572  0.00  0.00    -0.127 NA
ATOM      7  C   UNL d   1      29.027  17.624 -24.192  0.00  0.00     0.142 A 
ATOM      8  C   UNL d   1      28.745  16.894 -23.918  0.00  0.00     0.046 A 
ATOM      9  C   UNL d   1      29.268  16.315 -23.655  0.00  0.00     0.088 A 
ATOM     10 CL   UNL d   1      28.500  18.201 -24.455  0.00  0.00    -0.061 Cl
ATOM     11  C   UNL d   1      27.934  16.755 -23.911  0.00  0.00     0.004 A 
ATOM     12  C   UNL d   1      28.975  15.592 -23.384  0.00  0.00     0.019 A 
ATOM     13  C   UNL d   1      27.644  16.035 -23.641  0.00  0.00     0.000 A 
ATOM     14  C   UNL d   1      28.164  15.453 -23.377  0.00  0.00     0.002 A 
ENDROOT
BRANCH   4  15
ATOM     15  C   UNL d   1      31.704  17.767 -24.088  0.00  0.00     0.022 A 
ATOM     16  C   UNL d   1      32.089  18.203 -23.502  0.00  0.00     0.002 A 
ATOM     17  C   UNL d   1      32.602  18.816 -23.714  0.00  0.00     0.000 A 
ATOM     18  C   UNL d   1      32.727  18.990 -24.511  0.00  0.00     0.000 A 
ATOM     19  C   UNL d   1      32.340  18.551 -25.097  0.00  0.00     0.000 A 
ATOM     20  C   UNL d   1      33.238  19.600 -24.723  0.00  0.00     0.000 C 
ATOM     21  C   UNL d   1      31.829  17.941 -24.885  0.00  0.00     0.002 A 
ENDBRANCH   4  15
TORSDOF 1
ENDMDL
MODEL 3
REMARK VINA RESULT:      -2.4      2.118      4.318
REMARK  1 active torsions:
REMARK  status: ('A' for Active; 'I' for Inactive)
REMARK    1  A    between atoms: C_10  and  C_4 
ROOT
ATOM      1  C   UNL d   1      32.048  17.899 -23.690  0.00  0.00     0.186 A 
ATOM      2  N   UNL d   1      32.146  17.081 -23.835  0.00  0.00    -0.193 N 
ATOM      3  N   UNL d   1      31.373  18.286 -23.964  0.00  0.00    -0.214 NA
ATOM      4  C   UNL d   1      32.715  18.152 -23.264  0.00  0.00     0.140 A 
ATOM      5  N   UNL d   1      32.868  16.842 -23.500  0.00  0.00    -0.058 NA
ATOM      6  N   UNL d   1      33.211  17.509 -23.150  0.00  0.00    -0.127 NA
ATOM      7  C   UNL d   1      30.792  17.872 -24.381  0.00  0.00     0.142 A 
ATOM      8  C   UNL d   1      30.894  17.061 -24.522  0.00  0.00     0.046 A 
ATOM      9  C   UNL d   1      31.567  16.671 -24.251  0.00  0.00     0.088 A 
ATOM     10 CL   UNL d   1      30.118  18.259 -24.654  0.00  0.00    -0.061 Cl
ATOM     11  C   UNL d   1      30.315  16.651 -24.938  0.00  0.00     0.004 A 
ATOM     12  C   UNL d   1      31.657  15.863 -24.398  0.00  0.00     0.019 A 
ATOM     13  C   UNL d   1      30.407  15.847 -25.083  0.00  0.00     0.000 A 
ATOM     14  C   UNL d   1      31.078  15.453 -24.813  0.00  0.00     0.002 A 
ENDROOT
BRANCH   4  15
ATOM     15  C   UNL d   1      32.846  18.917 -23.007  0.00  0.00     0.022 A 
ATOM     16  C   UNL d   1      32.717  19.111 -22.215  0.00  0.00     0.002 A 
ATOM     17  C   UNL d   1      32.849  19.884 -21.953  0.00  0.00     0.000 A 
ATOM     18  C   UNL d   1      33.109  20.459 -22.485  0.00  0.00     0.000 A 
ATOM     19  C   UNL d   1      33.239  20.262 -23.279  0.00  0.00     0.000 A 
ATOM     20  C   UNL d   1      33.241  21.229 -22.225  0.00  0.00     0.000 C 
ATOM     21  C   UNL d   1      33.107  19.492 -23.539  0.00  0.00     0.002 A 
ENDBRANCH   4  15
TORSDOF 1
ENDMDL
MODEL 4
REMARK VINA RESULT:      -2.1      2.861      4.120
REMARK  1 active torsions:
REMARK  status: ('A' for Active; 'I' for Inactive)
REMARK    1  A    between atoms: C_10  and  C_4 
ROOT
ATOM      1  C   UNL d   1      32.809  19.382 -23.429  0.00  0.00     0.186 A 
ATOM      2  N   UNL d   1      32.927  20.124 -23.797  0.00  0.00    -0.193 N 
ATOM      3  N   UNL d   1      32.788  19.331 -22.606  0.00  0.00    -0.214 NA
ATOM      4  C   UNL d   1      32.733  18.819 -24.036  0.00  0.00     0.140 A 
ATOM      5  N   UNL d   1      32.923  20.010 -24.620  0.00  0.00    -0.058 NA
ATOM      6  N   UNL d   1      32.802  19.202 -24.757  0.00  0.00    -0.127 NA
ATOM      7  C   UNL d   1      32.883  20.007 -22.141  0.00  0.00     0.142 A 
ATOM      8  C   UNL d   1      33.000  20.740 -22.511  0.00  0.00     0.046 A 
ATOM      9  C   UNL d   1      33.021  20.796 -23.332  0.00  0.00     0.088 A 
ATOM     10 CL   UNL d   1      32.863  19.955 -21.319  0.00  0.00    -0.061 Cl
ATOM     11  C   UNL d   1      33.095  21.412 -22.046  0.00  0.00     0.004 A 
ATOM     12  C   UNL d   1      33.138  21.532 -23.689  0.00  0.00     0.019 A 
ATOM     13  C   UNL d   1      33.211  22.144 -22.403  0.00  0.00     0.000 A 
ATOM     14  C   UNL d   1      33.233  22.204 -23.224  0.00  0.00     0.002 A 
ENDROOT
BRANCH   4  15
ATOM     15  C   UNL d   1      32.610  18.019 -23.922  0.00  0.00     0.022 A 
ATOM     16  C   UNL d   1      31.857  17.700 -24.030  0.00  0.00     0.002 A 
ATOM     17  C   UNL d   1      31.730  16.891 -23.915  0.00  0.00     0.000 A 
ATOM     18  C   UNL d   1      32.359  16.405 -23.692  0.00  0.00     0.000 A 
ATOM     19  C   UNL d   1      33.114  16.727 -23.585  0.00  0.00     0.000 A 
ATOM     20  C   UNL d   1      32.235  15.599 -23.578  0.00  0.00     0.000 C 
ATOM     21  C   UNL d   1      33.239  17.532 -23.699  0.00  0.00     0.002 A 
ENDBRANCH   4  15
TORSDOF 1
ENDMDL
MODEL 5
REMARK VINA RESULT:      -2.1      3.690      5.284
REMARK  1 active torsions:
REMARK  status: ('A' for Active; 'I' for Inactive)
REMARK    1  A    between atoms: C_10  and  C_4 
ROOT
ATOM      1  C   UNL d   1      32.886  19.695 -22.554  0.00  0.00     0.186 A 
ATOM      2  N   UNL d   1      33.069  18.884 -22.464  0.00  0.00    -0.193 N 
ATOM      3  N   UNL d   1      32.697  19.993 -23.299  0.00  0.00    -0.214 NA
ATOM      4  C   UNL d   1      32.942  20.041 -21.800  0.00  0.00     0.140 A 
ATOM      5  N   UNL d   1      33.235  18.741 -21.663  0.00  0.00    -0.058 NA
ATOM      6  N   UNL d   1      33.154  19.462 -21.261  0.00  0.00    -0.127 NA
ATOM      7  C   UNL d   1      32.688  19.497 -23.960  0.00  0.00     0.142 A 
ATOM      8  C   UNL d   1      32.871  18.694 -23.866  0.00  0.00     0.046 A 
ATOM      9  C   UNL d   1      33.060  18.392 -23.123  0.00  0.00     0.088 A 
ATOM     10 CL   UNL d   1      32.499  19.796 -24.704  0.00  0.00    -0.061 Cl
ATOM     11  C   UNL d   1      32.861  18.201 -24.524  0.00  0.00     0.004 A 
ATOM     12  C   UNL d   1      33.240  17.590 -23.042  0.00  0.00     0.019 A 
ATOM     13  C   UNL d   1      33.041  17.403 -24.442  0.00  0.00     0.000 A 
ATOM     14  C   UNL d   1      33.230  17.097 -23.701  0.00  0.00     0.002 A 
ENDROOT
BRANCH   4  15
ATOM     15  C   UNL d   1      32.806  20.831 -21.634  0.00  0.00     0.022 A 
ATOM     16  C   UNL d   1      33.240  21.413 -22.027  0.00  0.00     0.002 A 
ATOM     17  C   UNL d   1      33.104  22.211 -21.860  0.00  0.00     0.000 A 
ATOM     18  C   UNL d   1      32.534  22.423 -21.302  0.00  0.00     0.000 A 
ATOM     19  C   UNL d   1      32.100  21.837 -20.909  0.00  0.00     0.000 A 
ATOM     20  C   UNL d   1      32.399  23.218 -21.135  0.00  0.00     0.000 C 
ATOM     21  C   UNL d   1      32.236  21.043 -21.076  0.00  0.00     0.002 A 
ENDBRANCH   4  15
TORSDOF 1
ENDMDL
MODEL 6
REMARK VINA RESULT:      -2.0      5.036      6.323
REMARK  1 active torsions:
REMARK  status: ('A' for Active; 'I' for Inactive)
REMARK    1  A    between atoms: C_10  and  C_4 
ROOT
ATOM      1  C   UNL d   1      32.929  21.218 -21.566  0.00  0.00     0.186 A 
ATOM      2  N   UNL d   1      33.005  21.388 -20.751  0.00  0.00    -0.193 N 
ATOM      3  N   UNL d   1      32.738  21.821 -22.096  0.00  0.00    -0.214 NA
ATOM      4  C   UNL d   1      33.078  20.405 -21.660  0.00  0.00     0.140 A 
ATOM      5  N   UNL d   1      33.198  20.684 -20.354  0.00  0.00    -0.058 NA
ATOM      6  N   UNL d   1      33.241  20.084 -20.923  0.00  0.00    -0.127 NA
ATOM      7  C   UNL d   1      32.621  22.593 -21.827  0.00  0.00     0.142 A 
ATOM      8  C   UNL d   1      32.697  22.757 -21.018  0.00  0.00     0.046 A 
ATOM      9  C   UNL d   1      32.888  22.158 -20.486  0.00  0.00     0.088 A 
ATOM     10 CL   UNL d   1      32.430  23.195 -22.357  0.00  0.00    -0.061 Cl
ATOM     11  C   UNL d   1      32.580  23.527 -20.753  0.00  0.00     0.004 A 
ATOM     12  C   UNL d   1      32.961  22.334 -19.682  0.00  0.00     0.019 A 
ATOM     13  C   UNL d   1      32.653  23.700 -19.952  0.00  0.00     0.000 A 
ATOM     14  C   UNL d   1      32.843  23.103 -19.416  0.00  0.00     0.002 A 
ENDROOT
BRANCH   4  15
ATOM     15  C   UNL d   1      33.062  20.003 -22.371  0.00  0.00     0.022 A 
ATOM     16  C   UNL d   1      32.868  19.201 -22.385  0.00  0.00     0.002 A 
ATOM     17  C   UNL d   1      32.851  18.793 -23.104  0.00  0.00     0.000 A 
ATOM     18  C   UNL d   1      33.030  19.189 -23.806  0.00  0.00     0.000 A 
ATOM     19  C   UNL d   1      33.225  19.994 -23.789  0.00  0.00     0.000 A 
ATOM     20  C   UNL d   1      33.014  18.784 -24.522  0.00  0.00     0.000 C 
ATOM     21  C   UNL d   1      33.241  20.400 -23.073  0.00  0.00     0.002 A 
ENDBRANCH   4  15
TORSDOF 1
ENDMDL
MODEL 7
REMARK VINA RESULT:      -1.6      5.580      6.668
REMARK  1 active torsions:
REMARK  status: ('A' for Active; 'I' for Inactive)
REMARK    1  A    between atoms: C_10  and  C_4 
ROOT
ATOM      1  C   UNL d   1      32.780  21.576 -21.204  0.00  0.00     0.186 A 
ATOM      2  N   UNL d   1      32.777  21.488 -22.035  0.00  0.00    -0.193 N 
ATOM      3  N   UNL d   1      32.935  20.925 -20.722  0.00  0.00    -0.214 NA
ATOM      4  C   UNL d   1      32.612  22.374 -21.044  0.00  0.00     0.140 A 
ATOM      5  N   UNL d   1      32.607  22.226 -22.376  0.00  0.00    -0.058 NA
ATOM      6  N   UNL d   1      32.507  22.767 -21.756  0.00  0.00    -0.127 NA
ATOM      7  C   UNL d   1      33.086  20.184 -21.054  0.00  0.00     0.142 A 
ATOM      8  C   UNL d   1      33.081  20.101 -21.879  0.00  0.00     0.046 A 
ATOM      9  C   UNL d   1      32.927  20.749 -22.364  0.00  0.00     0.088 A 
ATOM     10 CL   UNL d   1      33.240  19.533 -20.572  0.00  0.00    -0.061 Cl
ATOM     11  C   UNL d   1      33.232  19.362 -22.208  0.00  0.00     0.004 A 
ATOM     12  C   UNL d   1      32.925  20.654 -23.185  0.00  0.00     0.019 A 
ATOM     13  C   UNL d   1      33.230  19.269 -23.026  0.00  0.00     0.000 A 
ATOM     14  C   UNL d   1      33.076  19.915 -23.514  0.00  0.00     0.002 A 
ENDROOT
BRANCH   4  15
ATOM     15  C   UNL d   1      32.561  22.704 -20.297  0.00  0.00     0.022 A 
ATOM     16  C   UNL d   1      33.231  23.039 -19.950  0.00  0.00     0.002 A 
ATOM     17  C   UNL d   1      33.182  23.372 -19.195  0.00  0.00     0.000 A 
ATOM     18  C   UNL d   1      32.462  23.369 -18.791  0.00  0.00     0.000 A 
ATOM     19  C   UNL d   1      31.791  23.032 -19.141  0.00  0.00     0.000 A 
ATOM     20  C   UNL d   1      32.412  23.701 -18.040  0.00  0.00     0.000 C 
ATOM     21  C   UNL d   1      31.841  22.700 -19.893  0.00  0.00     0.002 A 
ENDBRANCH   4  15
TORSDOF 1
ENDMDL
MODEL 8
REMARK VINA RESULT:      -0.6      3.833      5.284
REMARK  1 active torsions:
REMARK  status: ('A' for Active; 'I' for Inactive)
REMARK    1  A    between atoms: C_10  and  C_4 
ROOT
ATOM      1  C   UNL d   1      32.947  20.195 -22.714  0.00  0.00     0.186 A 
ATOM      2  N   UNL d   1      32.983  20.061 -23.539  0.00  0.00    -0.193 N 
ATOM      3  N   UNL d   1      32.998  19.558 -22.192  0.00  0.00    -0.214 NA
ATOM      4  C   UNL d   1      32.861  21.014 -22.605  0.00  0.00     0.140 A 
ATOM      5  N   UNL d   1      32.919  20.793 -23.925  0.00  0.00    -0.058 NA
ATOM      6  N   UNL d   1      32.844  21.375 -23.340  0.00  0.00    -0.127 NA
ATOM      7  C   UNL d   1      33.084  18.787 -22.477  0.00  0.00     0.142 A 
ATOM      8  C   UNL d   1      33.119  18.660 -23.296  0.00  0.00     0.046 A 
ATOM      9  C   UNL d   1      33.069  19.293 -23.821  0.00  0.00     0.088 A 
ATOM     10 CL   UNL d   1      33.135  18.152 -21.955  0.00  0.00    -0.061 Cl
ATOM     11  C   UNL d   1      33.205  17.892 -23.578  0.00  0.00     0.004 A 
ATOM     12  C   UNL d   1      33.105  19.153 -24.634  0.00  0.00     0.019 A 
ATOM     13  C   UNL d   1      33.240  17.754 -24.388  0.00  0.00     0.000 A 
ATOM     14  C   UNL d   1      33.190  18.385 -24.916  0.00  0.00     0.002 A 
ENDROOT
BRANCH   4  15
ATOM     15  C   UNL d   1      32.804  21.388 -21.880  0.00  0.00     0.022 A 
ATOM     16  C   UNL d   1      33.240  22.074 -21.736  0.00  0.00     0.002 A 
ATOM     17  C   UNL d   1      33.183  22.453 -21.004  0.00  0.00     0.000 A 
ATOM     18  C   UNL d   1      32.690  22.144 -20.418  0.00  0.00     0.000 A 
ATOM     19  C   UNL d   1      32.253  21.456 -20.565  0.00  0.00     0.000 A 
ATOM     20  C   UNL d   1      32.633  22.521 -19.689  0.00  0.00     0.000 C 
ATOM     21  C   UNL d   1      32.310  21.079 -21.294  0.00  0.00     0.002 A 
ENDBRANCH   4  15
TORSDOF 1
ENDMDL
