MODEL 1
REMARK VINA RESULT:      34.2      0.000      0.000
REMARK  3 active torsions:
REMARK  status: ('A' for Active; 'I' for Inactive)
REMARK    1  A    between atoms: N_2  and  C_1 
REMARK    2  A    between atoms: C_4  and  C_1 
REMARK       I    between atoms: C_3  and  N_2 
REMARK       I    between atoms: N_5  and  C_3 
REMARK       I    between atoms: C_6  and  N_5 
REMARK    3  A    between atoms: C_11  and  C_6 
ROOT
ATOM      1  N   UNL d   1      14.412  13.002  -1.531  0.00  0.00    -0.159 NA
ATOM      2  C   UNL d   1      14.682  13.788  -1.443  0.00  0.00     0.371 C 
ATOM      3  N   UNL d   1      14.584  14.332  -2.058  0.00  0.00    -0.152 NA
ATOM      4  C   UNL d   1      14.214  14.097  -2.768  0.00  0.00     0.283 C 
ATOM      5  O   UNL d   1      15.033  13.992  -0.756  0.00  0.00    -0.243 OA
ATOM      6  O   UNL d   1      14.117  14.631  -3.373  0.00  0.00    -0.265 OA
ENDROOT
BRANCH   1   7
ATOM      7  C   UNL d   1      14.510  12.457  -0.918  0.00  0.00     0.386 A 
ATOM      8  O   UNL d   1      15.091  12.678  -1.470  0.00  0.00    -0.281 OA
ATOM      9  C   UNL d   1      15.776  12.260  -1.298  0.00  0.00     0.147 A 
ATOM     10  C   UNL d   1      15.629  11.788  -0.654  0.00  0.00     0.147 A 
ATOM     11  O   UNL d   1      14.831  11.925  -0.432  0.00  0.00    -0.281 OA
BRANCH   7  12
ATOM     12  C   UNL d   1      13.791  12.407  -0.508  0.00  0.00     0.470 C 
ATOM     13  F   UNL d   1      13.554  11.783  -1.001  0.00  0.00    -0.164 F 
ATOM     14  F   UNL d   1      14.043  13.036  -0.020  0.00  0.00    -0.164 F 
ATOM     15  F   UNL d   1      13.066  12.366  -0.086  0.00  0.00    -0.164 F 
ENDBRANCH   7  12
ENDBRANCH   1   7
BRANCH   4  16
ATOM     16  C   UNL d   1      13.945  13.330  -2.866  0.00  0.00     0.058 A 
ATOM     17  C   UNL d   1      14.463  12.737  -3.112  0.00  0.00     0.005 A 
ATOM     18  C   UNL d   1      14.203  11.962  -3.213  0.00  0.00     0.000 A 
ATOM     19  C   UNL d   1      13.405  11.787  -3.061  0.00  0.00     0.000 A 
ATOM     20  C   UNL d   1      12.886  12.378  -2.816  0.00  0.00     0.000 A 
ATOM     21  C   UNL d   1      13.154  13.139  -2.719  0.00  0.00     0.005 A 
ENDBRANCH   4  16
TORSDOF 3
ENDMDL
MODEL 2
REMARK VINA RESULT:      36.8      1.277      2.345
REMARK  3 active torsions:
REMARK  status: ('A' for Active; 'I' for Inactive)
REMARK    1  A    between atoms: N_2  and  C_1 
REMARK    2  A    between atoms: C_4  and  C_1 
REMARK       I    between atoms: C_3  and  N_2 
REMARK       I    between atoms: N_5  and  C_3 
REMARK       I    between atoms: C_6  and  N_5 
REMARK    3  A    between atoms: C_11  and  C_6 
ROOT
ATOM      1  N   UNL d   1      14.646  13.073  -1.237  0.00  0.00    -0.159 NA
ATOM      2  C   UNL d   1      14.272  12.990  -1.978  0.00  0.00     0.371 C 
ATOM      3  N   UNL d   1      14.145  13.653  -2.457  0.00  0.00    -0.152 NA
ATOM      4  C   UNL d   1      14.392  14.408  -2.198  0.00  0.00     0.283 C 
ATOM      5  O   UNL d   1      14.044  12.260  -2.207  0.00  0.00    -0.243 OA
ATOM      6  O   UNL d   1      14.268  15.059  -2.667  0.00  0.00    -0.265 OA
ENDROOT
BRANCH   1   7
ATOM      7  C   UNL d   1      14.774  12.413  -0.757  0.00  0.00     0.386 A 
ATOM      8  O   UNL d   1      14.044  12.793  -0.878  0.00  0.00    -0.281 OA
ATOM      9  C   UNL d   1      13.476  12.398  -0.438  0.00  0.00     0.147 A 
ATOM     10  C   UNL d   1      13.840  11.783  -0.050  0.00  0.00     0.147 A 
ATOM     11  O   UNL d   1      14.651  11.810  -0.263  0.00  0.00    -0.281 OA
BRANCH   7  12
ATOM     12  C   UNL d   1      15.580  12.222  -0.801  0.00  0.00     0.470 C 
ATOM     13  F   UNL d   1      15.467  11.925  -1.568  0.00  0.00    -0.164 F 
ATOM     14  F   UNL d   1      15.678  12.524  -0.029  0.00  0.00    -0.164 F 
ATOM     15  F   UNL d   1      16.397  12.033  -0.835  0.00  0.00    -0.164 F 
ENDBRANCH   7  12
ENDBRANCH   1   7
BRANCH   4  16
ATOM     16  C   UNL d   1      14.760  14.502  -1.473  0.00  0.00     0.058 A 
ATOM     17  C   UNL d   1      15.581  14.461  -1.415  0.00  0.00     0.005 A 
ATOM     18  C   UNL d   1      15.961  14.553  -0.691  0.00  0.00     0.000 A 
ATOM     19  C   UNL d   1      15.499  14.690  -0.015  0.00  0.00     0.000 A 
ATOM     20  C   UNL d   1      14.678  14.731  -0.069  0.00  0.00     0.000 A 
ATOM     21  C   UNL d   1      14.314  14.638  -0.789  0.00  0.00     0.005 A 
ENDBRANCH   4  16
TORSDOF 3
ENDMDL
