MODEL 1
REMARK VINA RESULT:      16.2      0.000      0.000
REMARK  5 active torsions:
REMARK  status: ('A' for Active; 'I' for Inactive)
REMARK    1  A    between atoms: N_2  and  C_7 
REMARK    2  A    between atoms: N_6  and  C_3 
REMARK    3  A    between atoms: N_8  and  N_6 
REMARK    4  A    between atoms: C_15  and  N_8 
REMARK    5  A    between atoms: C_16  and  C_15 
ROOT
ATOM      1  C   UNL d   1      13.307  12.472  -4.657  0.00  0.00     0.127 A 
ATOM      2  C   UNL d   1      12.769  12.820  -4.139  0.00  0.00     0.024 A 
ATOM      3  C   UNL d   1      13.869  11.947  -4.353  0.00  0.00     0.024 A 
ATOM      4  C   UNL d   1      13.345  12.130  -3.036  0.00  0.00     0.021 A 
ATOM      5  C   UNL d   1      13.883  11.780  -3.541  0.00  0.00     0.003 A 
ATOM      6  C   UNL d   1      12.798  12.642  -3.334  0.00  0.00     0.003 A 
ENDROOT
BRANCH   4   7
ATOM      7  C   UNL d   1      13.359  11.963  -2.227  0.00  0.00     0.122 C 
BRANCH   7   8
ATOM      8  N   UNL d   1      14.059  12.037  -1.809  0.00  0.00    -0.144 NA
BRANCH   8   9
ATOM      9  N   UNL d   1      14.030  12.137  -0.968  0.00  0.00    -0.121 NA
BRANCH   9  10
ATOM     10  C   UNL d   1      14.533  12.717  -0.630  0.00  0.00     0.217 A 
ATOM     11  N   UNL d   1      14.364  13.501  -0.636  0.00  0.00    -0.181 NA
ATOM     12  C   UNL d   1      14.983  13.905  -0.255  0.00  0.00     0.288 A 
ATOM     13  O   UNL d   1      14.993  14.739  -0.158  0.00  0.00    -0.265 OA
ATOM     14  C   UNL d   1      15.534  13.366  -0.014  0.00  0.00     0.101 A 
ATOM     15  S   UNL d   1      15.250  12.620  -0.251  0.00  0.00    -0.041 SA
ENDBRANCH   9  10
ENDBRANCH   8   9
ENDBRANCH   7   8
ENDBRANCH   4   7
BRANCH   1  16
ATOM     16  N   UNL d   1      13.304  12.624  -5.440  0.00  0.00    -0.114 N 
ATOM     17  O   UNL d   1      13.510  13.357  -5.771  0.00  0.00    -0.532 OA
ATOM     18  O   UNL d   1      13.108  12.110  -6.029  0.00  0.00    -0.532 OA
ENDBRANCH   1  16
TORSDOF 5
ENDMDL
MODEL 2
REMARK VINA RESULT:      17.6      1.311      4.501
REMARK  5 active torsions:
REMARK  status: ('A' for Active; 'I' for Inactive)
REMARK    1  A    between atoms: N_2  and  C_7 
REMARK    2  A    between atoms: N_6  and  C_3 
REMARK    3  A    between atoms: N_8  and  N_6 
REMARK    4  A    between atoms: C_15  and  N_8 
REMARK    5  A    between atoms: C_16  and  C_15 
ROOT
ATOM      1  C   UNL d   1      15.539  13.966  -0.463  0.00  0.00     0.127 A 
ATOM      2  C   UNL d   1      15.803  13.187  -0.403  0.00  0.00     0.024 A 
ATOM      3  C   UNL d   1      14.803  14.111  -0.810  0.00  0.00     0.024 A 
ATOM      4  C   UNL d   1      14.616  12.710  -1.024  0.00  0.00     0.021 A 
ATOM      5  C   UNL d   1      14.345  13.478  -1.089  0.00  0.00     0.003 A 
ATOM      6  C   UNL d   1      15.334  12.571  -0.686  0.00  0.00     0.003 A 
ENDROOT
BRANCH   4   7
ATOM      7  C   UNL d   1      14.159  12.080  -1.302  0.00  0.00     0.122 C 
BRANCH   7   8
ATOM      8  N   UNL d   1      13.664  12.190  -1.944  0.00  0.00    -0.144 NA
BRANCH   8   9
ATOM      9  N   UNL d   1      13.874  11.851  -2.692  0.00  0.00    -0.121 NA
BRANCH   9  10
ATOM     10  C   UNL d   1      13.496  12.157  -3.375  0.00  0.00     0.217 A 
ATOM     11  N   UNL d   1      13.494  11.780  -4.083  0.00  0.00    -0.181 NA
ATOM     12  C   UNL d   1      13.070  12.244  -4.627  0.00  0.00     0.288 A 
ATOM     13  O   UNL d   1      12.955  12.020  -5.427  0.00  0.00    -0.265 OA
ATOM     14  C   UNL d   1      12.811  12.910  -4.250  0.00  0.00     0.101 A 
ATOM     15  S   UNL d   1      13.079  12.854  -3.464  0.00  0.00    -0.041 SA
ENDBRANCH   9  10
ENDBRANCH   8   9
ENDBRANCH   7   8
ENDBRANCH   4   7
BRANCH   1  16
ATOM     16  N   UNL d   1      15.970  14.583  -0.199  0.00  0.00    -0.114 N 
ATOM     17  O   UNL d   1      15.653  15.330  -0.024  0.00  0.00    -0.532 OA
ATOM     18  O   UNL d   1      16.764  14.591  -0.059  0.00  0.00    -0.532 OA
ENDBRANCH   1  16
TORSDOF 5
ENDMDL
