MODEL 1
REMARK VINA RESULT:      -9.5      0.000      0.000
REMARK  6 active torsions:
REMARK  status: ('A' for Active; 'I' for Inactive)
REMARK    1  A    between atoms: N_2  and  S_1 
REMARK    2  A    between atoms: C_5  and  S_1 
REMARK    3  A    between atoms: C_4  and  C_3 
REMARK       I    between atoms: N_6  and  C_4 
REMARK    4  A    between atoms: C_15  and  N_6 
REMARK    5  A    between atoms: C_9  and  C_10 
REMARK    6  A    between atoms: O_20  and  C_9 
ROOT
ATOM      1  N   UNL d   1      54.208  32.910  54.548  0.00  0.00    -0.226 N 
ATOM      2  C   UNL d   1      53.853  33.622  54.322  0.00  0.00     0.133 A 
ATOM      3  C   UNL d   1      54.795  33.077  55.099  0.00  0.00     0.092 A 
ATOM      4  C   UNL d   1      54.228  34.229  54.740  0.00  0.00     0.025 A 
ATOM      5  C   UNL d   1      54.807  33.889  55.217  0.00  0.00     0.021 A 
ENDROOT
BRANCH   2   6
ATOM      6  C   UNL d   1      53.237  33.707  53.778  0.00  0.00     0.296 C 
ATOM      7  N   UNL d   1      52.512  33.991  54.044  0.00  0.00    -0.207 NA
ATOM      8  O   UNL d   1      53.351  33.511  52.989  0.00  0.00    -0.264 OA
BRANCH   7   9
ATOM      9  C   UNL d   1      51.892  34.078  53.499  0.00  0.00     0.085 A 
ATOM     10  C   UNL d   1      51.992  34.548  52.823  0.00  0.00     0.019 A 
ATOM     11  C   UNL d   1      51.378  34.632  52.285  0.00  0.00     0.007 A 
ATOM     12  C   UNL d   1      50.655  34.249  52.415  0.00  0.00     0.063 A 
ATOM     13  C   UNL d   1      50.554  33.778  53.092  0.00  0.00     0.007 A 
ATOM     14  C   UNL d   1      51.176  33.695  53.633  0.00  0.00     0.019 A 
BRANCH  12  15
ATOM     15  C   UNL d   1      50.040  34.331  51.880  0.00  0.00     0.296 C 
ATOM     16  O   UNL d   1      50.152  34.147  51.079  0.00  0.00    -0.259 OA
BRANCH  15  17
ATOM     17  O   UNL d   1      49.297  34.600  52.135  0.00  0.00    -0.296 OA
ATOM     18  C   UNL d   1      48.701  34.763  51.589  0.00  0.00     0.185 C 
ENDBRANCH  15  17
ENDBRANCH  12  15
ENDBRANCH   7   9
ENDBRANCH   2   6
BRANCH   1  19
ATOM     19  S   UNL d   1      53.962  32.187  54.230  0.00  0.00     0.271 S 
ATOM     20  O   UNL d   1      53.544  32.088  54.930  0.00  0.00    -0.200 OA
ATOM     21  O   UNL d   1      54.389  32.297  53.528  0.00  0.00    -0.200 OA
BRANCH  19  22
ATOM     22  C   UNL d   1      53.690  31.461  53.960  0.00  0.00     0.104 A 
ATOM     23  C   UNL d   1      53.790  31.251  53.169  0.00  0.00     0.013 A 
ATOM     24  C   UNL d   1      53.515  30.521  52.901  0.00  0.00     0.001 A 
ATOM     25  C   UNL d   1      53.142  30.001  53.423  0.00  0.00     0.000 A 
ATOM     26  C   UNL d   1      53.043  30.214  54.215  0.00  0.00     0.001 A 
ATOM     27  C   UNL d   1      52.867  29.271  53.155  0.00  0.00     0.000 C 
ATOM     28  C   UNL d   1      53.315  30.943  54.490  0.00  0.00     0.013 A 
ENDBRANCH  19  22
ENDBRANCH   1  19
TORSDOF 6
ENDMDL
MODEL 2
REMARK VINA RESULT:      -8.9      1.140      2.693
REMARK  6 active torsions:
REMARK  status: ('A' for Active; 'I' for Inactive)
REMARK    1  A    between atoms: N_2  and  S_1 
REMARK    2  A    between atoms: C_5  and  S_1 
REMARK    3  A    between atoms: C_4  and  C_3 
REMARK       I    between atoms: N_6  and  C_4 
REMARK    4  A    between atoms: C_15  and  N_6 
REMARK    5  A    between atoms: C_9  and  C_10 
REMARK    6  A    between atoms: O_20  and  C_9 
ROOT
ATOM      1  N   UNL d   1      53.598  31.215  53.475  0.00  0.00    -0.226 N 
ATOM      2  C   UNL d   1      52.830  31.264  53.171  0.00  0.00     0.133 A 
ATOM      3  C   UNL d   1      53.915  30.487  53.261  0.00  0.00     0.092 A 
ATOM      4  C   UNL d   1      52.678  30.558  52.767  0.00  0.00     0.025 A 
ATOM      5  C   UNL d   1      53.349  30.083  52.826  0.00  0.00     0.021 A 
ENDROOT
BRANCH   2   6
ATOM      6  C   UNL d   1      52.313  31.902  53.257  0.00  0.00     0.296 C 
ATOM      7  N   UNL d   1      52.067  32.304  52.583  0.00  0.00    -0.207 NA
ATOM      8  O   UNL d   1      52.052  32.126  54.002  0.00  0.00    -0.264 OA
BRANCH   7   9
ATOM      9  C   UNL d   1      51.547  32.945  52.666  0.00  0.00     0.085 A 
ATOM     10  C   UNL d   1      51.743  33.687  52.350  0.00  0.00     0.019 A 
ATOM     11  C   UNL d   1      51.228  34.321  52.433  0.00  0.00     0.007 A 
ATOM     12  C   UNL d   1      50.510  34.223  52.834  0.00  0.00     0.063 A 
ATOM     13  C   UNL d   1      50.313  33.482  53.152  0.00  0.00     0.007 A 
ATOM     14  C   UNL d   1      50.835  32.843  53.066  0.00  0.00     0.019 A 
BRANCH  12  15
ATOM     15  C   UNL d   1      49.994  34.854  52.919  0.00  0.00     0.296 C 
ATOM     16  O   UNL d   1      50.155  35.457  53.466  0.00  0.00    -0.259 OA
BRANCH  15  17
ATOM     17  O   UNL d   1      49.304  34.894  52.459  0.00  0.00    -0.296 OA
ATOM     18  C   UNL d   1      48.745  35.484  52.597  0.00  0.00     0.185 C 
ENDBRANCH  15  17
ENDBRANCH  12  15
ENDBRANCH   7   9
ENDBRANCH   2   6
BRANCH   1  19
ATOM     19  S   UNL d   1      53.927  31.834  53.913  0.00  0.00     0.271 S 
ATOM     20  O   UNL d   1      54.296  32.056  53.214  0.00  0.00    -0.200 OA
ATOM     21  O   UNL d   1      53.551  31.601  54.614  0.00  0.00    -0.200 OA
BRANCH  19  22
ATOM     22  C   UNL d   1      54.279  32.465  54.303  0.00  0.00     0.104 A 
ATOM     23  C   UNL d   1      54.110  32.605  55.098  0.00  0.00     0.013 A 
ATOM     24  C   UNL d   1      54.466  33.240  55.486  0.00  0.00     0.001 A 
ATOM     25  C   UNL d   1      54.989  33.734  55.082  0.00  0.00     0.000 A 
ATOM     26  C   UNL d   1      55.157  33.591  54.285  0.00  0.00     0.001 A 
ATOM     27  C   UNL d   1      55.345  34.369  55.471  0.00  0.00     0.000 C 
ATOM     28  C   UNL d   1      54.805  32.958  53.890  0.00  0.00     0.013 A 
ENDBRANCH  19  22
ENDBRANCH   1  19
TORSDOF 6
ENDMDL
MODEL 3
REMARK VINA RESULT:      -8.1      1.391      4.253
REMARK  6 active torsions:
REMARK  status: ('A' for Active; 'I' for Inactive)
REMARK    1  A    between atoms: N_2  and  S_1 
REMARK    2  A    between atoms: C_5  and  S_1 
REMARK    3  A    between atoms: C_4  and  C_3 
REMARK       I    between atoms: N_6  and  C_4 
REMARK    4  A    between atoms: C_15  and  N_6 
REMARK    5  A    between atoms: C_9  and  C_10 
REMARK    6  A    between atoms: O_20  and  C_9 
ROOT
ATOM      1  N   UNL d   1      52.876  34.858  53.874  0.00  0.00    -0.226 N 
ATOM      2  C   UNL d   1      53.328  34.265  54.234  0.00  0.00     0.133 A 
ATOM      3  C   UNL d   1      53.218  35.586  54.047  0.00  0.00     0.092 A 
ATOM      4  C   UNL d   1      53.952  34.636  54.631  0.00  0.00     0.025 A 
ATOM      5  C   UNL d   1      53.880  35.449  54.513  0.00  0.00     0.021 A 
ENDROOT
BRANCH   2   6
ATOM      6  C   UNL d   1      53.180  33.453  54.201  0.00  0.00     0.296 C 
ATOM      7  N   UNL d   1      53.751  32.961  53.874  0.00  0.00    -0.207 NA
ATOM      8  O   UNL d   1      52.474  33.150  54.492  0.00  0.00    -0.264 OA
BRANCH   7   9
ATOM      9  C   UNL d   1      53.604  32.145  53.840  0.00  0.00     0.085 A 
ATOM     10  C   UNL d   1      53.443  31.778  53.113  0.00  0.00     0.019 A 
ATOM     11  C   UNL d   1      53.299  30.971  53.081  0.00  0.00     0.007 A 
ATOM     12  C   UNL d   1      53.312  30.518  53.774  0.00  0.00     0.063 A 
ATOM     13  C   UNL d   1      53.473  30.884  54.502  0.00  0.00     0.007 A 
ATOM     14  C   UNL d   1      53.619  31.700  54.532  0.00  0.00     0.019 A 
BRANCH  12  15
ATOM     15  C   UNL d   1      53.168  29.712  53.745  0.00  0.00     0.296 C 
ATOM     16  O   UNL d   1      52.563  29.411  53.265  0.00  0.00    -0.259 OA
BRANCH  15  17
ATOM     17  O   UNL d   1      53.628  29.189  54.198  0.00  0.00    -0.296 OA
ATOM     18  C   UNL d   1      53.310  28.475  54.462  0.00  0.00     0.185 C 
ENDBRANCH  15  17
ENDBRANCH  12  15
ENDBRANCH   7   9
ENDBRANCH   2   6
BRANCH   1  19
ATOM     19  S   UNL d   1      52.203  34.675  53.429  0.00  0.00     0.271 S 
ATOM     20  O   UNL d   1      52.674  34.809  52.770  0.00  0.00    -0.200 OA
ATOM     21  O   UNL d   1      51.737  34.543  54.101  0.00  0.00    -0.200 OA
BRANCH  19  22
ATOM     22  C   UNL d   1      51.565  34.502  52.942  0.00  0.00     0.104 A 
ATOM     23  C   UNL d   1      50.804  34.465  53.258  0.00  0.00     0.013 A 
ATOM     24  C   UNL d   1      50.165  34.290  52.766  0.00  0.00     0.001 A 
ATOM     25  C   UNL d   1      50.286  34.154  51.961  0.00  0.00     0.000 A 
ATOM     26  C   UNL d   1      51.050  34.193  51.648  0.00  0.00     0.001 A 
ATOM     27  C   UNL d   1      49.647  33.980  51.469  0.00  0.00     0.000 C 
ATOM     28  C   UNL d   1      51.694  34.367  52.134  0.00  0.00     0.013 A 
ENDBRANCH  19  22
ENDBRANCH   1  19
TORSDOF 6
ENDMDL
MODEL 4
REMARK VINA RESULT:      -7.8      1.604      4.388
REMARK  6 active torsions:
REMARK  status: ('A' for Active; 'I' for Inactive)
REMARK    1  A    between atoms: N_2  and  S_1 
REMARK    2  A    between atoms: C_5  and  S_1 
REMARK    3  A    between atoms: C_4  and  C_3 
REMARK       I    between atoms: N_6  and  C_4 
REMARK    4  A    between atoms: C_15  and  N_6 
REMARK    5  A    between atoms: C_9  and  C_10 
REMARK    6  A    between atoms: O_20  and  C_9 
ROOT
ATOM      1  N   UNL d   1      52.406  34.057  53.063  0.00  0.00    -0.226 N 
ATOM      2  C   UNL d   1      52.006  33.366  52.845  0.00  0.00     0.133 A 
ATOM      3  C   UNL d   1      52.101  34.682  52.624  0.00  0.00     0.092 A 
ATOM      4  C   UNL d   1      51.451  33.573  52.267  0.00  0.00     0.025 A 
ATOM      5  C   UNL d   1      51.513  34.384  52.135  0.00  0.00     0.021 A 
ENDROOT
BRANCH   2   6
ATOM      6  C   UNL d   1      52.138  32.610  53.150  0.00  0.00     0.296 C 
ATOM      7  N   UNL d   1      52.481  32.042  52.664  0.00  0.00    -0.207 NA
ATOM      8  O   UNL d   1      51.930  32.435  53.925  0.00  0.00    -0.264 OA
BRANCH   7   9
ATOM      9  C   UNL d   1      52.615  31.283  52.969  0.00  0.00     0.085 A 
ATOM     10  C   UNL d   1      51.981  30.823  53.241  0.00  0.00     0.019 A 
ATOM     11  C   UNL d   1      52.115  30.071  53.542  0.00  0.00     0.007 A 
ATOM     12  C   UNL d   1      52.884  29.768  53.576  0.00  0.00     0.063 A 
ATOM     13  C   UNL d   1      53.520  30.227  53.304  0.00  0.00     0.007 A 
ATOM     14  C   UNL d   1      53.382  30.986  53.000  0.00  0.00     0.019 A 
BRANCH  12  15
ATOM     15  C   UNL d   1      53.022  29.018  53.876  0.00  0.00     0.296 C 
ATOM     16  O   UNL d   1      52.948  28.350  53.389  0.00  0.00    -0.259 OA
BRANCH  15  17
ATOM     17  O   UNL d   1      53.237  28.919  54.672  0.00  0.00    -0.296 OA
ATOM     18  C   UNL d   1      53.543  28.200  54.936  0.00  0.00     0.185 C 
ENDBRANCH  15  17
ENDBRANCH  12  15
ENDBRANCH   7   9
ENDBRANCH   2   6
BRANCH   1  19
ATOM     19  S   UNL d   1      53.004  34.045  53.634  0.00  0.00     0.271 S 
ATOM     20  O   UNL d   1      53.528  34.019  53.003  0.00  0.00    -0.200 OA
ATOM     21  O   UNL d   1      52.466  34.072  54.264  0.00  0.00    -0.200 OA
BRANCH  19  22
ATOM     22  C   UNL d   1      53.633  34.032  54.162  0.00  0.00     0.104 A 
ATOM     23  C   UNL d   1      54.397  33.881  53.890  0.00  0.00     0.013 A 
ATOM     24  C   UNL d   1      55.026  33.869  54.423  0.00  0.00     0.001 A 
ATOM     25  C   UNL d   1      54.893  34.007  55.225  0.00  0.00     0.000 A 
ATOM     26  C   UNL d   1      54.126  34.158  55.495  0.00  0.00     0.001 A 
ATOM     27  C   UNL d   1      55.522  33.995  55.759  0.00  0.00     0.000 C 
ATOM     28  C   UNL d   1      53.492  34.172  54.968  0.00  0.00     0.013 A 
ENDBRANCH  19  22
ENDBRANCH   1  19
TORSDOF 6
ENDMDL
