MODEL 1
REMARK VINA RESULT:      -6.1      0.000      0.000
REMARK  4 active torsions:
REMARK  status: ('A' for Active; 'I' for Inactive)
REMARK    1  A    between atoms: C_2  and  S_1 
REMARK    2  A    between atoms: C_15  and  S_1 
REMARK    3  A    between atoms: C_5  and  C_3 
REMARK    4  A    between atoms: C_16  and  C_5 
ROOT
ATOM      1  C   UNL d   1     -47.693  12.914  23.054  0.00  0.00     0.094 A 
ATOM      2  C   UNL d   1     -46.901  12.703  23.156  0.00  0.00     0.069 A 
ATOM      3  C   UNL d   1     -48.288  12.367  23.215  0.00  0.00     0.031 A 
ATOM      4  C   UNL d   1     -48.094  11.611  23.477  0.00  0.00     0.084 A 
ATOM      5  C   UNL d   1     -49.078  12.579  23.113  0.00  0.00     0.029 A 
ATOM      6  N   UNL d   1     -47.305  11.399  23.579  0.00  0.00    -0.244 NA
ATOM      7  C   UNL d   1     -46.707  11.946  23.418  0.00  0.00     0.103 A 
ATOM      8  C   UNL d   1     -48.690  11.064  23.639  0.00  0.00     0.046 A 
ATOM      9  C   UNL d   1     -49.672  12.033  23.274  0.00  0.00     0.123 A 
ATOM     10  C   UNL d   1     -49.478  11.276  23.537  0.00  0.00     0.124 A 
ATOM     11  O   UNL d   1     -50.461  12.245  23.173  0.00  0.00    -0.301 OA
ATOM     12  O   UNL d   1     -50.073  10.730  23.698  0.00  0.00    -0.301 OA
ATOM     13  C   UNL d   1     -51.064  11.696  23.334  0.00  0.00     0.149 A 
ATOM     14  C   UNL d   1     -50.870  10.940  23.596  0.00  0.00     0.149 A 
ENDROOT
BRANCH   1  15
ATOM     15  S   UNL d   1     -47.896  13.669  22.792  0.00  0.00     0.210 S 
ATOM     16  O   UNL d   1     -47.917  13.385  22.018  0.00  0.00    -0.217 OA
ATOM     17  O   UNL d   1     -47.876  13.953  23.566  0.00  0.00    -0.217 OA
BRANCH  15  18
ATOM     18  C   UNL d   1     -48.100  14.418  22.513  0.00  0.00     0.088 A 
ATOM     19  C   UNL d   1     -48.218  14.544  21.707  0.00  0.00     0.011 A 
ATOM     20  C   UNL d   1     -48.422  15.301  21.435  0.00  0.00     0.001 A 
ATOM     21  C   UNL d   1     -48.506  15.922  21.968  0.00  0.00     0.000 A 
ATOM     22  C   UNL d   1     -48.390  15.799  22.769  0.00  0.00     0.001 A 
ATOM     23  C   UNL d   1     -48.184  15.041  23.046  0.00  0.00     0.011 A 
ENDBRANCH  15  18
ENDBRANCH   1  15
BRANCH   2  24
ATOM     24  C   UNL d   1     -46.298  13.251  22.994  0.00  0.00     0.198 C 
ATOM     25  O   UNL d   1     -46.388  14.041  23.214  0.00  0.00    -0.286 OA
BRANCH  24  26
ATOM     26  C   UNL d   1     -45.609  13.003  22.614  0.00  0.00     0.039 A 
ATOM     27  C   UNL d   1     -45.119  12.430  22.960  0.00  0.00     0.003 A 
ATOM     28  C   UNL d   1     -44.429  12.181  22.581  0.00  0.00     0.000 A 
ATOM     29  C   UNL d   1     -44.218  12.502  21.850  0.00  0.00     0.000 A 
ATOM     30  C   UNL d   1     -44.714  13.081  21.500  0.00  0.00     0.000 A 
ATOM     31  C   UNL d   1     -43.535  12.260  21.466  0.00  0.00     0.000 C 
ATOM     32  C   UNL d   1     -45.402  13.331  21.876  0.00  0.00     0.003 A 
ENDBRANCH  24  26
ENDBRANCH   2  24
TORSDOF 4
ENDMDL
MODEL 2
REMARK VINA RESULT:      -6.0      5.872      9.279
REMARK  4 active torsions:
REMARK  status: ('A' for Active; 'I' for Inactive)
REMARK    1  A    between atoms: C_2  and  S_1 
REMARK    2  A    between atoms: C_15  and  S_1 
REMARK    3  A    between atoms: C_5  and  C_3 
REMARK    4  A    between atoms: C_16  and  C_5 
ROOT
ATOM      1  C   UNL d   1     -40.212  14.706  19.526  0.00  0.00     0.094 A 
ATOM      2  C   UNL d   1     -41.003  14.585  19.732  0.00  0.00     0.069 A 
ATOM      3  C   UNL d   1     -39.982  14.666  18.735  0.00  0.00     0.031 A 
ATOM      4  C   UNL d   1     -40.540  14.504  18.151  0.00  0.00     0.084 A 
ATOM      5  C   UNL d   1     -39.193  14.787  18.532  0.00  0.00     0.029 A 
ATOM      6  N   UNL d   1     -41.329  14.383  18.355  0.00  0.00    -0.244 NA
ATOM      7  C   UNL d   1     -41.561  14.423  19.147  0.00  0.00     0.103 A 
ATOM      8  C   UNL d   1     -40.310  14.464  17.361  0.00  0.00     0.046 A 
ATOM      9  C   UNL d   1     -38.964  14.747  17.742  0.00  0.00     0.123 A 
ATOM     10  C   UNL d   1     -39.521  14.585  17.157  0.00  0.00     0.124 A 
ATOM     11  O   UNL d   1     -38.175  14.868  17.539  0.00  0.00    -0.301 OA
ATOM     12  O   UNL d   1     -39.292  14.545  16.368  0.00  0.00    -0.301 OA
ATOM     13  C   UNL d   1     -37.940  14.828  16.743  0.00  0.00     0.149 A 
ATOM     14  C   UNL d   1     -38.497  14.667  16.158  0.00  0.00     0.149 A 
ENDROOT
BRANCH   1  15
ATOM     15  S   UNL d   1     -39.648  14.868  20.105  0.00  0.00     0.210 S 
ATOM     16  O   UNL d   1     -39.469  14.064  20.143  0.00  0.00    -0.217 OA
ATOM     17  O   UNL d   1     -39.826  15.673  20.066  0.00  0.00    -0.217 OA
BRANCH  15  18
ATOM     18  C   UNL d   1     -39.079  15.013  20.685  0.00  0.00     0.088 A 
ATOM     19  C   UNL d   1     -38.906  15.785  20.914  0.00  0.00     0.011 A 
ATOM     20  C   UNL d   1     -38.332  15.922  21.498  0.00  0.00     0.001 A 
ATOM     21  C   UNL d   1     -37.940  15.288  21.846  0.00  0.00     0.000 A 
ATOM     22  C   UNL d   1     -38.110  14.520  21.620  0.00  0.00     0.001 A 
ATOM     23  C   UNL d   1     -38.685  14.379  21.034  0.00  0.00     0.011 A 
ENDBRANCH  15  18
ENDBRANCH   1  15
BRANCH   2  24
ATOM     24  C   UNL d   1     -41.239  14.625  20.527  0.00  0.00     0.198 C 
ATOM     25  O   UNL d   1     -40.933  15.211  21.021  0.00  0.00    -0.286 OA
BRANCH  24  26
ATOM     26  C   UNL d   1     -41.781  14.077  20.823  0.00  0.00     0.039 A 
ATOM     27  C   UNL d   1     -41.549  13.295  20.975  0.00  0.00     0.003 A 
ATOM     28  C   UNL d   1     -42.090  12.746  21.271  0.00  0.00     0.000 A 
ATOM     29  C   UNL d   1     -42.870  12.969  21.419  0.00  0.00     0.000 A 
ATOM     30  C   UNL d   1     -43.104  13.760  21.266  0.00  0.00     0.000 A 
ATOM     31  C   UNL d   1     -43.414  12.430  21.713  0.00  0.00     0.000 C 
ATOM     32  C   UNL d   1     -42.567  14.310  20.970  0.00  0.00     0.003 A 
ENDBRANCH  24  26
ENDBRANCH   2  24
TORSDOF 4
ENDMDL
MODEL 3
REMARK VINA RESULT:      -5.9      8.533      9.811
REMARK  4 active torsions:
REMARK  status: ('A' for Active; 'I' for Inactive)
REMARK    1  A    between atoms: C_2  and  S_1 
REMARK    2  A    between atoms: C_15  and  S_1 
REMARK    3  A    between atoms: C_5  and  C_3 
REMARK    4  A    between atoms: C_16  and  C_5 
ROOT
ATOM      1  C   UNL d   1     -39.466  14.701  18.990  0.00  0.00     0.094 A 
ATOM      2  C   UNL d   1     -39.824  15.359  18.641  0.00  0.00     0.069 A 
ATOM      3  C   UNL d   1     -39.484  14.609  19.809  0.00  0.00     0.031 A 
ATOM      4  C   UNL d   1     -39.859  15.172  20.279  0.00  0.00     0.084 A 
ATOM      5  C   UNL d   1     -39.126  13.953  20.156  0.00  0.00     0.029 A 
ATOM      6  N   UNL d   1     -40.216  15.829  19.932  0.00  0.00    -0.244 NA
ATOM      7  C   UNL d   1     -40.199  15.922  19.111  0.00  0.00     0.103 A 
ATOM      8  C   UNL d   1     -39.877  15.081  21.098  0.00  0.00     0.046 A 
ATOM      9  C   UNL d   1     -39.145  13.862  20.974  0.00  0.00     0.123 A 
ATOM     10  C   UNL d   1     -39.519  14.425  21.444  0.00  0.00     0.124 A 
ATOM     11  O   UNL d   1     -38.787  13.206  21.320  0.00  0.00    -0.301 OA
ATOM     12  O   UNL d   1     -39.538  14.334  22.262  0.00  0.00    -0.301 OA
ATOM     13  C   UNL d   1     -38.803  13.110  22.145  0.00  0.00     0.149 A 
ATOM     14  C   UNL d   1     -39.178  13.673  22.616  0.00  0.00     0.149 A 
ENDROOT
BRANCH   1  15
ATOM     15  S   UNL d   1     -39.089  14.133  18.526  0.00  0.00     0.210 S 
ATOM     16  O   UNL d   1     -39.771  13.670  18.554  0.00  0.00    -0.217 OA
ATOM     17  O   UNL d   1     -38.406  14.595  18.498  0.00  0.00    -0.217 OA
BRANCH  15  18
ATOM     18  C   UNL d   1     -38.726  13.554  18.063  0.00  0.00     0.088 A 
ATOM     19  C   UNL d   1     -38.301  13.766  17.390  0.00  0.00     0.011 A 
ATOM     20  C   UNL d   1     -37.940  13.178  16.930  0.00  0.00     0.001 A 
ATOM     21  C   UNL d   1     -38.006  12.387  17.146  0.00  0.00     0.000 A 
ATOM     22  C   UNL d   1     -38.428  12.174  17.815  0.00  0.00     0.001 A 
ATOM     23  C   UNL d   1     -38.792  12.762  18.279  0.00  0.00     0.011 A 
ENDBRANCH  15  18
ENDBRANCH   1  15
BRANCH   2  24
ATOM     24  C   UNL d   1     -39.808  15.455  17.815  0.00  0.00     0.198 C 
ATOM     25  O   UNL d   1     -39.090  15.434  17.411  0.00  0.00    -0.286 OA
BRANCH  24  26
ATOM     26  C   UNL d   1     -40.513  15.571  17.402  0.00  0.00     0.039 A 
ATOM     27  C   UNL d   1     -41.202  15.805  17.800  0.00  0.00     0.003 A 
ATOM     28  C   UNL d   1     -41.907  15.922  17.388  0.00  0.00     0.000 A 
ATOM     29  C   UNL d   1     -41.935  15.806  16.571  0.00  0.00     0.000 A 
ATOM     30  C   UNL d   1     -41.238  15.569  16.169  0.00  0.00     0.000 A 
ATOM     31  C   UNL d   1     -42.632  15.920  16.154  0.00  0.00     0.000 C 
ATOM     32  C   UNL d   1     -40.533  15.452  16.578  0.00  0.00     0.003 A 
ENDBRANCH  24  26
ENDBRANCH   2  24
TORSDOF 4
ENDMDL
MODEL 4
REMARK VINA RESULT:      -4.9      1.378      1.896
REMARK  4 active torsions:
REMARK  status: ('A' for Active; 'I' for Inactive)
REMARK    1  A    between atoms: C_2  and  S_1 
REMARK    2  A    between atoms: C_15  and  S_1 
REMARK    3  A    between atoms: C_5  and  C_3 
REMARK    4  A    between atoms: C_16  and  C_5 
ROOT
ATOM      1  C   UNL d   1     -47.404  12.435  22.989  0.00  0.00     0.094 A 
ATOM      2  C   UNL d   1     -46.949  11.843  23.344  0.00  0.00     0.069 A 
ATOM      3  C   UNL d   1     -48.202  12.301  22.832  0.00  0.00     0.031 A 
ATOM      4  C   UNL d   1     -48.546  11.579  23.029  0.00  0.00     0.084 A 
ATOM      5  C   UNL d   1     -48.655  12.891  22.477  0.00  0.00     0.029 A 
ATOM      6  N   UNL d   1     -48.094  10.989  23.384  0.00  0.00    -0.244 NA
ATOM      7  C   UNL d   1     -47.293  11.121  23.542  0.00  0.00     0.103 A 
ATOM      8  C   UNL d   1     -49.344  11.445  22.872  0.00  0.00     0.046 A 
ATOM      9  C   UNL d   1     -49.451  12.757  22.321  0.00  0.00     0.123 A 
ATOM     10  C   UNL d   1     -49.796  12.035  22.518  0.00  0.00     0.124 A 
ATOM     11  O   UNL d   1     -49.903  13.347  21.966  0.00  0.00    -0.301 OA
ATOM     12  O   UNL d   1     -50.593  11.901  22.362  0.00  0.00    -0.301 OA
ATOM     13  C   UNL d   1     -50.708  13.216  21.807  0.00  0.00     0.149 A 
ATOM     14  C   UNL d   1     -51.052  12.494  22.004  0.00  0.00     0.149 A 
ENDROOT
BRANCH   1  15
ATOM     15  S   UNL d   1     -47.067  13.160  22.788  0.00  0.00     0.210 S 
ATOM     16  O   UNL d   1     -47.214  13.430  23.553  0.00  0.00    -0.217 OA
ATOM     17  O   UNL d   1     -46.920  12.891  22.022  0.00  0.00    -0.217 OA
BRANCH  15  18
ATOM     18  C   UNL d   1     -46.733  13.892  22.603  0.00  0.00     0.088 A 
ATOM     19  C   UNL d   1     -46.174  13.954  22.002  0.00  0.00     0.011 A 
ATOM     20  C   UNL d   1     -45.843  14.694  21.823  0.00  0.00     0.001 A 
ATOM     21  C   UNL d   1     -46.074  15.361  22.245  0.00  0.00     0.000 A 
ATOM     22  C   UNL d   1     -46.630  15.302  22.844  0.00  0.00     0.001 A 
ATOM     23  C   UNL d   1     -46.964  14.561  23.026  0.00  0.00     0.011 A 
ENDBRANCH  15  18
ENDBRANCH   1  15
BRANCH   2  24
ATOM     24  C   UNL d   1     -46.144  11.974  23.504  0.00  0.00     0.198 C 
ATOM     25  O   UNL d   1     -45.879  12.731  23.697  0.00  0.00    -0.286 OA
BRANCH  24  26
ATOM     26  C   UNL d   1     -45.611  11.346  23.469  0.00  0.00     0.039 A 
ATOM     27  C   UNL d   1     -44.833  11.467  23.207  0.00  0.00     0.003 A 
ATOM     28  C   UNL d   1     -44.298  10.839  23.171  0.00  0.00     0.000 A 
ATOM     29  C   UNL d   1     -44.533  10.081  23.396  0.00  0.00     0.000 A 
ATOM     30  C   UNL d   1     -45.319   9.958  23.661  0.00  0.00     0.000 A 
ATOM     31  C   UNL d   1     -44.008   9.451  23.364  0.00  0.00     0.000 C 
ATOM     32  C   UNL d   1     -45.855  10.583  23.698  0.00  0.00     0.003 A 
ENDBRANCH  24  26
ENDBRANCH   2  24
TORSDOF 4
ENDMDL
MODEL 5
REMARK VINA RESULT:      -4.5      6.773      9.002
REMARK  4 active torsions:
REMARK  status: ('A' for Active; 'I' for Inactive)
REMARK    1  A    between atoms: C_2  and  S_1 
REMARK    2  A    between atoms: C_15  and  S_1 
REMARK    3  A    between atoms: C_5  and  C_3 
REMARK    4  A    between atoms: C_16  and  C_5 
ROOT
ATOM      1  C   UNL d   1     -39.563  14.729  20.495  0.00  0.00     0.094 A 
ATOM      2  C   UNL d   1     -39.158  14.969  19.816  0.00  0.00     0.069 A 
ATOM      3  C   UNL d   1     -39.157  14.349  21.103  0.00  0.00     0.031 A 
ATOM      4  C   UNL d   1     -38.348  14.210  21.035  0.00  0.00     0.084 A 
ATOM      5  C   UNL d   1     -39.562  14.110  21.780  0.00  0.00     0.029 A 
ATOM      6  N   UNL d   1     -37.943  14.449  20.359  0.00  0.00    -0.244 NA
ATOM      7  C   UNL d   1     -38.349  14.830  19.748  0.00  0.00     0.103 A 
ATOM      8  C   UNL d   1     -37.941  13.830  21.643  0.00  0.00     0.046 A 
ATOM      9  C   UNL d   1     -39.155  13.731  22.387  0.00  0.00     0.123 A 
ATOM     10  C   UNL d   1     -38.346  13.591  22.319  0.00  0.00     0.124 A 
ATOM     11  O   UNL d   1     -39.560  13.492  23.063  0.00  0.00    -0.301 OA
ATOM     12  O   UNL d   1     -37.940  13.212  22.926  0.00  0.00    -0.301 OA
ATOM     13  C   UNL d   1     -39.154  13.109  23.678  0.00  0.00     0.149 A 
ATOM     14  C   UNL d   1     -38.345  12.970  23.610  0.00  0.00     0.149 A 
ENDROOT
BRANCH   1  15
ATOM     15  S   UNL d   1     -40.373  14.865  20.572  0.00  0.00     0.210 S 
ATOM     16  O   UNL d   1     -40.211  15.631  20.832  0.00  0.00    -0.217 OA
ATOM     17  O   UNL d   1     -40.536  14.099  20.312  0.00  0.00    -0.217 OA
BRANCH  15  18
ATOM     18  C   UNL d   1     -41.180  15.017  20.654  0.00  0.00     0.088 A 
ATOM     19  C   UNL d   1     -41.443  15.777  20.835  0.00  0.00     0.011 A 
ATOM     20  C   UNL d   1     -42.256  15.922  20.916  0.00  0.00     0.001 A 
ATOM     21  C   UNL d   1     -42.796  15.309  20.815  0.00  0.00     0.000 A 
ATOM     22  C   UNL d   1     -42.536  14.553  20.635  0.00  0.00     0.001 A 
ATOM     23  C   UNL d   1     -41.721  14.404  20.553  0.00  0.00     0.011 A 
ENDBRANCH  15  18
ENDBRANCH   1  15
BRANCH   2  24
ATOM     24  C   UNL d   1     -39.565  15.352  19.201  0.00  0.00     0.198 C 
ATOM     25  O   UNL d   1     -40.164  15.892  19.374  0.00  0.00    -0.286 OA
BRANCH  24  26
ATOM     26  C   UNL d   1     -39.367  15.192  18.416  0.00  0.00     0.039 A 
ATOM     27  C   UNL d   1     -38.725  15.575  18.056  0.00  0.00     0.003 A 
ATOM     28  C   UNL d   1     -38.526  15.415  17.271  0.00  0.00     0.000 A 
ATOM     29  C   UNL d   1     -38.965  14.870  16.833  0.00  0.00     0.000 A 
ATOM     30  C   UNL d   1     -39.614  14.483  17.198  0.00  0.00     0.000 A 
ATOM     31  C   UNL d   1     -38.774  14.706  16.053  0.00  0.00     0.000 C 
ATOM     32  C   UNL d   1     -39.815  14.640  17.981  0.00  0.00     0.003 A 
ENDBRANCH  24  26
ENDBRANCH   2  24
TORSDOF 4
ENDMDL
MODEL 6
REMARK VINA RESULT:      -4.2      1.594      4.733
REMARK  4 active torsions:
REMARK  status: ('A' for Active; 'I' for Inactive)
REMARK    1  A    between atoms: C_2  and  S_1 
REMARK    2  A    between atoms: C_15  and  S_1 
REMARK    3  A    between atoms: C_5  and  C_3 
REMARK    4  A    between atoms: C_16  and  C_5 
ROOT
ATOM      1  C   UNL d   1     -47.029  13.346  22.781  0.00  0.00     0.094 A 
ATOM      2  C   UNL d   1     -47.529  13.980  22.959  0.00  0.00     0.069 A 
ATOM      3  C   UNL d   1     -46.262  13.489  22.517  0.00  0.00     0.031 A 
ATOM      4  C   UNL d   1     -45.992  14.263  22.430  0.00  0.00     0.084 A 
ATOM      5  C   UNL d   1     -45.764  12.856  22.340  0.00  0.00     0.029 A 
ATOM      6  N   UNL d   1     -46.489  14.896  22.607  0.00  0.00    -0.244 NA
ATOM      7  C   UNL d   1     -47.259  14.754  22.872  0.00  0.00     0.103 A 
ATOM      8  C   UNL d   1     -45.225  14.406  22.166  0.00  0.00     0.046 A 
ATOM      9  C   UNL d   1     -44.998  13.000  22.076  0.00  0.00     0.123 A 
ATOM     10  C   UNL d   1     -44.729  13.774  21.989  0.00  0.00     0.124 A 
ATOM     11  O   UNL d   1     -44.502  12.367  21.899  0.00  0.00    -0.301 OA
ATOM     12  O   UNL d   1     -43.962  13.917  21.725  0.00  0.00    -0.301 OA
ATOM     13  C   UNL d   1     -43.727  12.507  21.633  0.00  0.00     0.149 A 
ATOM     14  C   UNL d   1     -43.458  13.281  21.546  0.00  0.00     0.149 A 
ENDROOT
BRANCH   1  15
ATOM     15  S   UNL d   1     -47.291  12.568  22.865  0.00  0.00     0.210 S 
ATOM     16  O   UNL d   1     -47.625  12.609  22.112  0.00  0.00    -0.217 OA
ATOM     17  O   UNL d   1     -46.957  12.528  23.619  0.00  0.00    -0.217 OA
BRANCH  15  18
ATOM     18  C   UNL d   1     -47.560  11.791  22.933  0.00  0.00     0.088 A 
ATOM     19  C   UNL d   1     -47.458  11.376  23.638  0.00  0.00     0.011 A 
ATOM     20  C   UNL d   1     -47.732  10.595  23.698  0.00  0.00     0.001 A 
ATOM     21  C   UNL d   1     -48.102  10.238  23.056  0.00  0.00     0.000 A 
ATOM     22  C   UNL d   1     -48.204  10.649  22.354  0.00  0.00     0.001 A 
ATOM     23  C   UNL d   1     -47.931  11.433  22.291  0.00  0.00     0.011 A 
ENDBRANCH  15  18
ENDBRANCH   1  15
BRANCH   2  24
ATOM     24  C   UNL d   1     -48.303  13.840  23.226  0.00  0.00     0.198 C 
ATOM     25  O   UNL d   1     -48.465  13.183  23.698  0.00  0.00    -0.286 OA
BRANCH  24  26
ATOM     26  C   UNL d   1     -48.910  14.359  23.017  0.00  0.00     0.039 A 
ATOM     27  C   UNL d   1     -49.153  14.954  23.541  0.00  0.00     0.003 A 
ATOM     28  C   UNL d   1     -49.760  15.475  23.334  0.00  0.00     0.000 A 
ATOM     29  C   UNL d   1     -50.132  15.408  22.601  0.00  0.00     0.000 A 
ATOM     30  C   UNL d   1     -49.885  14.806  22.071  0.00  0.00     0.000 A 
ATOM     31  C   UNL d   1     -50.735  15.921  22.387  0.00  0.00     0.000 C 
ATOM     32  C   UNL d   1     -49.280  14.286  22.275  0.00  0.00     0.003 A 
ENDBRANCH  24  26
ENDBRANCH   2  24
TORSDOF 4
ENDMDL
MODEL 7
REMARK VINA RESULT:      -3.1      5.848      8.701
REMARK  4 active torsions:
REMARK  status: ('A' for Active; 'I' for Inactive)
REMARK    1  A    between atoms: C_2  and  S_1 
REMARK    2  A    between atoms: C_15  and  S_1 
REMARK    3  A    between atoms: C_5  and  C_3 
REMARK    4  A    between atoms: C_16  and  C_5 
ROOT
ATOM      1  C   UNL d   1     -40.139  14.649  19.934  0.00  0.00     0.094 A 
ATOM      2  C   UNL d   1     -40.003  14.900  19.159  0.00  0.00     0.069 A 
ATOM      3  C   UNL d   1     -40.819  14.221  20.116  0.00  0.00     0.031 A 
ATOM      4  C   UNL d   1     -41.364  14.043  19.524  0.00  0.00     0.084 A 
ATOM      5  C   UNL d   1     -40.953  13.972  20.889  0.00  0.00     0.029 A 
ATOM      6  N   UNL d   1     -41.231  14.292  18.750  0.00  0.00    -0.244 NA
ATOM      7  C   UNL d   1     -40.548  14.721  18.567  0.00  0.00     0.103 A 
ATOM      8  C   UNL d   1     -42.045  13.615  19.705  0.00  0.00     0.046 A 
ATOM      9  C   UNL d   1     -41.633  13.545  21.070  0.00  0.00     0.123 A 
ATOM     10  C   UNL d   1     -42.178  13.366  20.478  0.00  0.00     0.124 A 
ATOM     11  O   UNL d   1     -41.766  13.296  21.843  0.00  0.00    -0.301 OA
ATOM     12  O   UNL d   1     -42.858  12.939  20.659  0.00  0.00    -0.301 OA
ATOM     13  C   UNL d   1     -42.451  12.864  22.030  0.00  0.00     0.149 A 
ATOM     14  C   UNL d   1     -42.996  12.686  21.438  0.00  0.00     0.149 A 
ENDROOT
BRANCH   1  15
ATOM     15  S   UNL d   1     -39.598  14.824  20.533  0.00  0.00     0.210 S 
ATOM     16  O   UNL d   1     -39.979  15.545  20.654  0.00  0.00    -0.217 OA
ATOM     17  O   UNL d   1     -39.217  14.102  20.411  0.00  0.00    -0.217 OA
BRANCH  15  18
ATOM     18  C   UNL d   1     -39.066  15.014  21.134  0.00  0.00     0.088 A 
ATOM     19  C   UNL d   1     -39.120  15.739  21.523  0.00  0.00     0.011 A 
ATOM     20  C   UNL d   1     -38.580  15.922  22.126  0.00  0.00     0.001 A 
ATOM     21  C   UNL d   1     -37.995  15.382  22.334  0.00  0.00     0.000 A 
ATOM     22  C   UNL d   1     -37.939  14.662  21.947  0.00  0.00     0.001 A 
ATOM     23  C   UNL d   1     -38.479  14.474  21.341  0.00  0.00     0.011 A 
ENDBRANCH  15  18
ENDBRANCH   1  15
BRANCH   2  24
ATOM     24  C   UNL d   1     -39.318  15.332  18.972  0.00  0.00     0.198 C 
ATOM     25  O   UNL d   1     -38.982  15.836  19.532  0.00  0.00    -0.286 OA
BRANCH  24  26
ATOM     26  C   UNL d   1     -38.975  15.255  18.226  0.00  0.00     0.039 A 
ATOM     27  C   UNL d   1     -39.078  15.845  17.651  0.00  0.00     0.003 A 
ATOM     28  C   UNL d   1     -38.735  15.769  16.904  0.00  0.00     0.000 A 
ATOM     29  C   UNL d   1     -38.284  15.103  16.720  0.00  0.00     0.000 A 
ATOM     30  C   UNL d   1     -38.180  14.507  17.301  0.00  0.00     0.000 A 
ATOM     31  C   UNL d   1     -37.940  15.020  15.980  0.00  0.00     0.000 C 
ATOM     32  C   UNL d   1     -38.520  14.580  18.047  0.00  0.00     0.003 A 
ENDBRANCH  24  26
ENDBRANCH   2  24
TORSDOF 4
ENDMDL
