MODEL 1
REMARK VINA RESULT:      15.1      0.000      0.000
REMARK  4 active torsions:
REMARK  status: ('A' for Active; 'I' for Inactive)
REMARK    1  A    between atoms: C_7  and  N_1 
REMARK    2  A    between atoms: C_8  and  C_7 
REMARK       I    between atoms: N_9  and  C_8 
REMARK    3  A    between atoms: C_13  and  N_9 
REMARK    4  A    between atoms: O_19  and  C_14 
ROOT
ATOM      1  C   UNL d   1      46.424 -17.615  44.355  0.00  0.00     0.148 C 
ENDROOT
BRANCH   1   2
ATOM      2  N   UNL d   1      46.349 -18.190  43.766  0.00  0.00    -0.235 N 
ATOM      3  C   UNL d   1      46.162 -18.972  43.973  0.00  0.00     0.273 A 
ATOM      4  C   UNL d   1      46.088 -19.541  43.390  0.00  0.00     0.086 A 
ATOM      5  O   UNL d   1      46.052 -19.173  44.770  0.00  0.00    -0.266 OA
ATOM      6  C   UNL d   1      45.900 -20.326  43.599  0.00  0.00     0.012 C 
ATOM      7  S   UNL d   1      46.195 -19.351  42.599  0.00  0.00    -0.077 SA
ATOM      8  C   UNL d   1      46.381 -18.578  42.388  0.00  0.00     0.086 A 
ATOM      9  C   UNL d   1      46.459 -17.992  42.966  0.00  0.00     0.273 A 
ATOM     10  C   UNL d   1      46.490 -18.379  41.594  0.00  0.00     0.012 C 
ATOM     11  O   UNL d   1      46.644 -17.216  42.759  0.00  0.00    -0.266 OA
ENDBRANCH   1   2
BRANCH   1  12
ATOM     12  C   UNL d   1      46.125 -16.857  44.229  0.00  0.00     0.297 C 
ATOM     13  N   UNL d   1      46.063 -16.316  44.863  0.00  0.00    -0.207 NA
ATOM     14  O   UNL d   1      45.886 -16.635  43.469  0.00  0.00    -0.264 OA
BRANCH  13  15
ATOM     15  C   UNL d   1      45.762 -15.562  44.721  0.00  0.00     0.085 A 
ATOM     16  C   UNL d   1      46.280 -14.967  44.481  0.00  0.00     0.021 A 
ATOM     17  C   UNL d   1      46.001 -14.209  44.334  0.00  0.00     0.026 A 
ATOM     18  C   UNL d   1      45.188 -14.047  44.431  0.00  0.00     0.094 A 
ATOM     19  C   UNL d   1      44.685 -14.653  44.672  0.00  0.00     0.026 A 
ATOM     20  C   UNL d   1      44.970 -15.401  44.815  0.00  0.00     0.021 A 
BRANCH  18  21
ATOM     21  O   UNL d   1      44.904 -13.288  44.285  0.00  0.00    -0.328 OA
ATOM     22  C   UNL d   1      44.543 -13.125  43.565  0.00  0.00     0.181 C 
ENDBRANCH  18  21
ENDBRANCH  13  15
ENDBRANCH   1  12
TORSDOF 4
ENDMDL
MODEL 2
REMARK VINA RESULT:      17.5      1.843      4.767
REMARK  4 active torsions:
REMARK  status: ('A' for Active; 'I' for Inactive)
REMARK    1  A    between atoms: C_7  and  N_1 
REMARK    2  A    between atoms: C_8  and  C_7 
REMARK       I    between atoms: N_9  and  C_8 
REMARK    3  A    between atoms: C_13  and  N_9 
REMARK    4  A    between atoms: O_19  and  C_14 
ROOT
ATOM      1  C   UNL d   1      45.301 -14.736  44.899  0.00  0.00     0.148 C 
ENDROOT
BRANCH   1   2
ATOM      2  N   UNL d   1      45.275 -14.024  44.479  0.00  0.00    -0.235 N 
ATOM      3  C   UNL d   1      45.922 -13.505  44.506  0.00  0.00     0.273 A 
ATOM      4  C   UNL d   1      45.896 -12.801  44.091  0.00  0.00     0.086 A 
ATOM      5  O   UNL d   1      46.592 -13.702  44.954  0.00  0.00    -0.266 OA
ATOM      6  C   UNL d   1      46.546 -12.280  44.118  0.00  0.00     0.012 C 
ATOM      7  S   UNL d   1      45.237 -12.597  43.645  0.00  0.00    -0.077 SA
ATOM      8  C   UNL d   1      44.594 -13.109  43.615  0.00  0.00     0.086 A 
ATOM      9  C   UNL d   1      44.605 -13.824  44.029  0.00  0.00     0.273 A 
ATOM     10  C   UNL d   1      43.927 -12.911  43.169  0.00  0.00     0.012 C 
ATOM     11  O   UNL d   1      43.961 -14.339  44.002  0.00  0.00    -0.266 OA
ENDBRANCH   1   2
BRANCH   1  12
ATOM     12  C   UNL d   1      45.541 -15.428  44.518  0.00  0.00     0.297 C 
ATOM     13  N   UNL d   1      45.599 -16.146  44.943  0.00  0.00    -0.207 NA
ATOM     14  O   UNL d   1      45.723 -15.406  43.712  0.00  0.00    -0.264 OA
BRANCH  13  15
ATOM     15  C   UNL d   1      45.840 -16.828  44.549  0.00  0.00     0.085 A 
ATOM     16  C   UNL d   1      45.821 -17.547  44.953  0.00  0.00     0.021 A 
ATOM     17  C   UNL d   1      46.057 -18.239  44.580  0.00  0.00     0.026 A 
ATOM     18  C   UNL d   1      46.315 -18.207  43.787  0.00  0.00     0.094 A 
ATOM     19  C   UNL d   1      46.328 -17.481  43.398  0.00  0.00     0.026 A 
ATOM     20  C   UNL d   1      46.093 -16.801  43.776  0.00  0.00     0.021 A 
BRANCH  18  21
ATOM     21  O   UNL d   1      46.553 -18.899  43.408  0.00  0.00    -0.328 OA
ATOM     22  C   UNL d   1      46.228 -19.089  42.677  0.00  0.00     0.181 C 
ENDBRANCH  18  21
ENDBRANCH  13  15
ENDBRANCH   1  12
TORSDOF 4
ENDMDL
