MODEL 1
REMARK VINA RESULT:      25.2      0.000      0.000
REMARK  2 active torsions:
REMARK  status: ('A' for Active; 'I' for Inactive)
REMARK    1  A    between atoms: C_6  and  N_1 
REMARK    2  A    between atoms: C_11  and  C_6 
ROOT
ATOM      1  N   UNL d   1      58.678  49.703  50.295  0.00  0.00    -0.251 N 
ATOM      2  C   UNL d   1      58.950  49.701  49.510  0.00  0.00     0.378 A 
ATOM      3  C   UNL d   1      59.343  49.699  50.789  0.00  0.00     0.092 A 
ATOM      4  O   UNL d   1      59.776  49.696  49.514  0.00  0.00    -0.258 OA
ATOM      5  C   UNL d   1      60.024  49.695  50.311  0.00  0.00     0.121 A 
ATOM      6  O   UNL d   1      58.468  49.703  48.843  0.00  0.00    -0.237 OA
ATOM      7  C   UNL d   1      59.417  49.699  51.610  0.00  0.00     0.020 A 
ATOM      8  C   UNL d   1      60.771  49.690  50.661  0.00  0.00     0.026 A 
ATOM      9  C   UNL d   1      60.169  49.695  51.951  0.00  0.00     0.002 A 
ATOM     10  C   UNL d   1      60.843  49.690  51.479  0.00  0.00     0.002 A 
ATOM     11  C   UNL d   1      60.238  49.695  52.781  0.00  0.00     0.000 C 
ENDROOT
BRANCH   1  12
ATOM     12  C   UNL d   1      57.902  49.707  50.580  0.00  0.00     0.085 C 
BRANCH  12  13
ATOM     13  C   UNL d   1      57.298  49.386  50.125  0.00  0.00     0.018 A 
ATOM     14  C   UNL d   1      56.861  48.754  50.414  0.00  0.00     0.002 A 
ATOM     15  C   UNL d   1      56.254  48.434  49.951  0.00  0.00     0.000 A 
ATOM     16  C   UNL d   1      56.092  48.751  49.206  0.00  0.00     0.000 A 
ATOM     17  C   UNL d   1      56.535  49.384  48.923  0.00  0.00     0.000 A 
ATOM     18  C   UNL d   1      57.140  49.705  49.382  0.00  0.00     0.002 A 
ENDBRANCH  12  13
ENDBRANCH   1  12
TORSDOF 2
ENDMDL
MODEL 2
REMARK VINA RESULT:      27.2      1.320      3.721
REMARK  2 active torsions:
REMARK  status: ('A' for Active; 'I' for Inactive)
REMARK    1  A    between atoms: C_6  and  N_1 
REMARK    2  A    between atoms: C_11  and  C_6 
ROOT
ATOM      1  N   UNL d   1      58.540  49.676  50.794  0.00  0.00    -0.251 N 
ATOM      2  C   UNL d   1      58.493  49.681  51.624  0.00  0.00     0.378 A 
ATOM      3  C   UNL d   1      57.765  49.686  50.501  0.00  0.00     0.092 A 
ATOM      4  O   UNL d   1      57.697  49.694  51.845  0.00  0.00    -0.258 OA
ATOM      5  C   UNL d   1      57.240  49.696  51.147  0.00  0.00     0.121 A 
ATOM      6  O   UNL d   1      59.139  49.674  52.134  0.00  0.00    -0.237 OA
ATOM      7  C   UNL d   1      57.470  49.686  49.731  0.00  0.00     0.020 A 
ATOM      8  C   UNL d   1      56.427  49.707  51.014  0.00  0.00     0.026 A 
ATOM      9  C   UNL d   1      56.654  49.697  49.608  0.00  0.00     0.002 A 
ATOM     10  C   UNL d   1      56.134  49.708  50.247  0.00  0.00     0.002 A 
ATOM     11  C   UNL d   1      56.361  49.697  48.829  0.00  0.00     0.000 C 
ENDROOT
BRANCH   1  12
ATOM     12  C   UNL d   1      59.208  49.664  50.309  0.00  0.00     0.085 C 
BRANCH  12  13
ATOM     13  C   UNL d   1      59.892  49.285  50.563  0.00  0.00     0.018 A 
ATOM     14  C   UNL d   1      60.602  49.696  50.588  0.00  0.00     0.002 A 
ATOM     15  C   UNL d   1      61.287  49.309  50.845  0.00  0.00     0.000 A 
ATOM     16  C   UNL d   1      61.252  48.516  51.075  0.00  0.00     0.000 A 
ATOM     17  C   UNL d   1      60.536  48.111  51.048  0.00  0.00     0.000 A 
ATOM     18  C   UNL d   1      59.853  48.494  50.792  0.00  0.00     0.002 A 
ENDBRANCH  12  13
ENDBRANCH   1  12
TORSDOF 2
ENDMDL
