MODEL 1
REMARK VINA RESULT:      -6.9      0.000      0.000
REMARK  5 active torsions:
REMARK  status: ('A' for Active; 'I' for Inactive)
REMARK    1  A    between atoms: C_2  and  C_1 
REMARK    2  A    between atoms: C_4  and  C_1 
REMARK       I    between atoms: N_3  and  C_2 
REMARK    3  A    between atoms: C_5  and  N_3 
REMARK    4  A    between atoms: C_11  and  C_5 
REMARK    5  A    between atoms: C_12  and  C_5 
ROOT
ATOM      1  C   UNL d   1     -38.914  15.298  18.518  0.00  0.00     0.315 C 
ATOM      2  N   UNL d   1     -39.157  15.145  19.293  0.00  0.00    -0.367 NA
ATOM      3  O   UNL d   1     -38.386  15.912  18.363  0.00  0.00    -0.255 OA
ENDROOT
BRANCH   2   4
ATOM      4  C   UNL d   1     -39.467  14.951  20.298  0.00  0.00     0.135 C 
BRANCH   4   5
ATOM      5  C   UNL d   1     -40.178  15.055  20.492  0.00  0.00     0.030 A 
ATOM      6  C   UNL d   1     -40.443  15.786  20.688  0.00  0.00     0.003 A 
ATOM      7  C   UNL d   1     -41.231  15.922  20.906  0.00  0.00     0.000 A 
ATOM      8  C   UNL d   1     -41.764  15.251  20.919  0.00  0.00     0.000 A 
ATOM      9  C   UNL d   1     -41.499  14.520  20.724  0.00  0.00     0.000 A 
ATOM     10  C   UNL d   1     -40.679  14.400  20.500  0.00  0.00     0.003 A 
ENDBRANCH   4   5
BRANCH   4  11
ATOM     11  C   UNL d   1     -38.990  14.716  20.806  0.00  0.00     0.030 A 
ATOM     12  C   UNL d   1     -38.951  13.943  20.989  0.00  0.00     0.003 A 
ATOM     13  C   UNL d   1     -38.419  13.664  21.558  0.00  0.00     0.000 A 
ATOM     14  C   UNL d   1     -37.940  14.225  21.917  0.00  0.00     0.000 A 
ATOM     15  C   UNL d   1     -37.982  15.001  21.729  0.00  0.00     0.000 A 
ATOM     16  C   UNL d   1     -38.514  15.276  21.162  0.00  0.00     0.003 A 
ENDBRANCH   4  11
ENDBRANCH   2   4
BRANCH   1  17
ATOM     17  C   UNL d   1     -39.198  14.837  17.889  0.00  0.00     0.150 A 
ATOM     18  C   UNL d   1     -39.478  14.382  17.270  0.00  0.00     0.019 A 
ATOM     19  C   UNL d   1     -40.099  14.665  16.789  0.00  0.00     0.119 A 
ATOM     20  O   UNL d   1     -40.431  15.398  16.934  0.00  0.00    -0.304 OA
ATOM     21  C   UNL d   1     -40.150  15.860  17.561  0.00  0.00     0.119 A 
ATOM     22  C   UNL d   1     -39.532  15.581  18.040  0.00  0.00     0.019 A 
BRANCH  17  23
ATOM     23  C   UNL d   1     -38.861  14.093  17.741  0.00  0.00     0.024 A 
ATOM     24  S   UNL d   1     -38.101  13.941  17.436  0.00  0.00    -0.090 SA
ATOM     25  C   UNL d   1     -37.991  13.124  17.377  0.00  0.00     0.035 A 
ATOM     26  C   UNL d   1     -38.675  12.750  17.642  0.00  0.00     0.007 A 
ATOM     27  C   UNL d   1     -39.216  13.348  17.868  0.00  0.00     0.004 A 
ENDBRANCH  17  23
ENDBRANCH   1  17
TORSDOF 5
ENDMDL
MODEL 2
REMARK VINA RESULT:      -6.8      0.921      2.499
REMARK  5 active torsions:
REMARK  status: ('A' for Active; 'I' for Inactive)
REMARK    1  A    between atoms: C_2  and  C_1 
REMARK    2  A    between atoms: C_4  and  C_1 
REMARK       I    between atoms: N_3  and  C_2 
REMARK    3  A    between atoms: C_5  and  N_3 
REMARK    4  A    between atoms: C_11  and  C_5 
REMARK    5  A    between atoms: C_12  and  C_5 
ROOT
ATOM      1  C   UNL d   1     -38.715  14.889  18.909  0.00  0.00     0.315 C 
ATOM      2  N   UNL d   1     -39.062  14.821  19.656  0.00  0.00    -0.367 NA
ATOM      3  O   UNL d   1     -38.059  15.378  18.800  0.00  0.00    -0.255 OA
ENDROOT
BRANCH   2   4
ATOM      4  C   UNL d   1     -39.507  14.738  20.626  0.00  0.00     0.135 C 
BRANCH   4   5
ATOM      5  C   UNL d   1     -39.103  14.484  21.197  0.00  0.00     0.030 A 
ATOM      6  C   UNL d   1     -39.150  13.715  21.418  0.00  0.00     0.003 A 
ATOM      7  C   UNL d   1     -38.709  13.413  22.051  0.00  0.00     0.000 A 
ATOM      8  C   UNL d   1     -38.193  13.952  22.472  0.00  0.00     0.000 A 
ATOM      9  C   UNL d   1     -38.146  14.723  22.251  0.00  0.00     0.000 A 
ATOM     10  C   UNL d   1     -38.611  15.015  21.592  0.00  0.00     0.003 A 
ENDBRANCH   4   5
BRANCH   4  11
ATOM     11  C   UNL d   1     -40.208  14.927  20.741  0.00  0.00     0.030 A 
ATOM     12  C   UNL d   1     -40.774  14.368  20.762  0.00  0.00     0.003 A 
ATOM     13  C   UNL d   1     -41.568  14.566  20.890  0.00  0.00     0.000 A 
ATOM     14  C   UNL d   1     -41.733  15.364  20.993  0.00  0.00     0.000 A 
ATOM     15  C   UNL d   1     -41.161  15.921  20.971  0.00  0.00     0.000 A 
ATOM     16  C   UNL d   1     -40.371  15.721  20.843  0.00  0.00     0.003 A 
ENDBRANCH   4  11
ENDBRANCH   2   4
BRANCH   1  17
ATOM     17  C   UNL d   1     -39.021  14.468  18.263  0.00  0.00     0.150 A 
ATOM     18  C   UNL d   1     -39.325  14.054  17.626  0.00  0.00     0.019 A 
ATOM     19  C   UNL d   1     -38.999  13.315  17.415  0.00  0.00     0.119 A 
ATOM     20  O   UNL d   1     -38.377  13.001  17.842  0.00  0.00    -0.304 OA
ATOM     21  C   UNL d   1     -38.068  13.419  18.487  0.00  0.00     0.119 A 
ATOM     22  C   UNL d   1     -38.390  14.154  18.699  0.00  0.00     0.019 A 
BRANCH  17  23
ATOM     23  C   UNL d   1     -39.654  14.787  17.829  0.00  0.00     0.024 A 
ATOM     24  S   UNL d   1     -39.695  15.548  17.494  0.00  0.00    -0.090 SA
ATOM     25  C   UNL d   1     -40.423  15.635  17.110  0.00  0.00     0.035 A 
ATOM     26  C   UNL d   1     -40.848  14.936  17.197  0.00  0.00     0.007 A 
ATOM     27  C   UNL d   1     -40.374  14.408  17.643  0.00  0.00     0.004 A 
ENDBRANCH  17  23
ENDBRANCH   1  17
TORSDOF 5
ENDMDL
MODEL 3
REMARK VINA RESULT:      -6.6      8.045     10.260
REMARK  5 active torsions:
REMARK  status: ('A' for Active; 'I' for Inactive)
REMARK    1  A    between atoms: C_2  and  C_1 
REMARK    2  A    between atoms: C_4  and  C_1 
REMARK       I    between atoms: N_3  and  C_2 
REMARK    3  A    between atoms: C_5  and  N_3 
REMARK    4  A    between atoms: C_11  and  C_5 
REMARK    5  A    between atoms: C_12  and  C_5 
ROOT
ATOM      1  C   UNL d   1     -48.980  14.073  22.055  0.00  0.00     0.315 C 
ATOM      2  N   UNL d   1     -48.344  13.597  22.283  0.00  0.00    -0.367 NA
ATOM      3  O   UNL d   1     -49.046  14.329  21.274  0.00  0.00    -0.255 OA
ENDROOT
BRANCH   2   4
ATOM      4  C   UNL d   1     -47.518  12.981  22.572  0.00  0.00     0.135 C 
BRANCH   4   5
ATOM      5  C   UNL d   1     -46.834  13.272  22.608  0.00  0.00     0.030 A 
ATOM      6  C   UNL d   1     -46.571  13.608  23.286  0.00  0.00     0.003 A 
ATOM      7  C   UNL d   1     -45.812  13.937  23.346  0.00  0.00     0.000 A 
ATOM      8  C   UNL d   1     -45.308  13.909  22.653  0.00  0.00     0.000 A 
ATOM      9  C   UNL d   1     -45.572  13.573  21.974  0.00  0.00     0.000 A 
ATOM     10  C   UNL d   1     -46.361  13.237  21.933  0.00  0.00     0.003 A 
ENDBRANCH   4   5
BRANCH   4  11
ATOM     11  C   UNL d   1     -47.612  12.271  22.738  0.00  0.00     0.030 A 
ATOM     12  C   UNL d   1     -47.586  12.031  23.496  0.00  0.00     0.003 A 
ATOM     13  C   UNL d   1     -47.690  11.234  23.698  0.00  0.00     0.000 A 
ATOM     14  C   UNL d   1     -47.822  10.715  23.076  0.00  0.00     0.000 A 
ATOM     15  C   UNL d   1     -47.847  10.961  22.316  0.00  0.00     0.000 A 
ATOM     16  C   UNL d   1     -47.743  11.754  22.119  0.00  0.00     0.003 A 
ENDBRANCH   4  11
ENDBRANCH   2   4
BRANCH   1  17
ATOM     17  C   UNL d   1     -49.556  14.298  22.608  0.00  0.00     0.150 A 
ATOM     18  C   UNL d   1     -50.125  14.519  23.153  0.00  0.00     0.019 A 
ATOM     19  C   UNL d   1     -50.119  15.289  23.476  0.00  0.00     0.119 A 
ATOM     20  O   UNL d   1     -49.546  15.826  23.249  0.00  0.00    -0.304 OA
ATOM     21  C   UNL d   1     -48.970  15.605  22.697  0.00  0.00     0.119 A 
ATOM     22  C   UNL d   1     -48.973  14.840  22.375  0.00  0.00     0.019 A 
BRANCH  17  23
ATOM     23  C   UNL d   1     -50.138  13.752  22.839  0.00  0.00     0.024 A 
ATOM     24  S   UNL d   1     -50.460  13.659  23.601  0.00  0.00    -0.090 SA
ATOM     25  C   UNL d   1     -51.023  13.053  23.585  0.00  0.00     0.035 A 
ATOM     26  C   UNL d   1     -51.064  12.758  22.818  0.00  0.00     0.007 A 
ATOM     27  C   UNL d   1     -50.517  13.190  22.353  0.00  0.00     0.004 A 
ENDBRANCH  17  23
ENDBRANCH   1  17
TORSDOF 5
ENDMDL
MODEL 4
REMARK VINA RESULT:      -6.5      0.895      1.623
REMARK  5 active torsions:
REMARK  status: ('A' for Active; 'I' for Inactive)
REMARK    1  A    between atoms: C_2  and  C_1 
REMARK    2  A    between atoms: C_4  and  C_1 
REMARK       I    between atoms: N_3  and  C_2 
REMARK    3  A    between atoms: C_5  and  N_3 
REMARK    4  A    between atoms: C_11  and  C_5 
REMARK    5  A    between atoms: C_12  and  C_5 
ROOT
ATOM      1  C   UNL d   1     -38.707  15.057  18.796  0.00  0.00     0.315 C 
ATOM      2  N   UNL d   1     -39.004  14.921  19.555  0.00  0.00    -0.367 NA
ATOM      3  O   UNL d   1     -38.077  15.577  18.684  0.00  0.00    -0.255 OA
ENDROOT
BRANCH   2   4
ATOM      4  C   UNL d   1     -39.383  14.750  20.541  0.00  0.00     0.135 C 
BRANCH   4   5
ATOM      5  C   UNL d   1     -40.087  14.928  20.702  0.00  0.00     0.030 A 
ATOM      6  C   UNL d   1     -40.658  14.365  20.707  0.00  0.00     0.003 A 
ATOM      7  C   UNL d   1     -41.447  14.544  20.885  0.00  0.00     0.000 A 
ATOM      8  C   UNL d   1     -41.643  15.358  21.066  0.00  0.00     0.000 A 
ATOM      9  C   UNL d   1     -41.072  15.922  21.061  0.00  0.00     0.000 A 
ATOM     10  C   UNL d   1     -40.259  15.716  20.874  0.00  0.00     0.003 A 
ENDBRANCH   4   5
BRANCH   4  11
ATOM     11  C   UNL d   1     -38.960  14.458  21.066  0.00  0.00     0.030 A 
ATOM     12  C   UNL d   1     -38.990  13.677  21.214  0.00  0.00     0.003 A 
ATOM     13  C   UNL d   1     -38.519  13.333  21.803  0.00  0.00     0.000 A 
ATOM     14  C   UNL d   1     -38.026  13.841  22.219  0.00  0.00     0.000 A 
ATOM     15  C   UNL d   1     -38.000  14.625  22.066  0.00  0.00     0.000 A 
ATOM     16  C   UNL d   1     -38.470  14.964  21.480  0.00  0.00     0.003 A 
ENDBRANCH   4  11
ENDBRANCH   2   4
BRANCH   1  17
ATOM     17  C   UNL d   1     -39.039  14.672  18.140  0.00  0.00     0.150 A 
ATOM     18  C   UNL d   1     -39.368  14.294  17.493  0.00  0.00     0.019 A 
ATOM     19  C   UNL d   1     -39.033  13.584  17.210  0.00  0.00     0.119 A 
ATOM     20  O   UNL d   1     -38.377  13.262  17.576  0.00  0.00    -0.304 OA
ATOM     21  C   UNL d   1     -38.043  13.644  18.230  0.00  0.00     0.119 A 
ATOM     22  C   UNL d   1     -38.373  14.350  18.514  0.00  0.00     0.019 A 
BRANCH  17  23
ATOM     23  C   UNL d   1     -39.706  14.999  17.767  0.00  0.00     0.024 A 
ATOM     24  S   UNL d   1     -39.792  15.781  17.495  0.00  0.00    -0.090 SA
ATOM     25  C   UNL d   1     -40.543  15.870  17.161  0.00  0.00     0.035 A 
ATOM     26  C   UNL d   1     -40.939  15.151  17.216  0.00  0.00     0.007 A 
ATOM     27  C   UNL d   1     -40.423  14.609  17.592  0.00  0.00     0.004 A 
ENDBRANCH  17  23
ENDBRANCH   1  17
TORSDOF 5
ENDMDL
MODEL 5
REMARK VINA RESULT:      -6.4      7.849     10.089
REMARK  5 active torsions:
REMARK  status: ('A' for Active; 'I' for Inactive)
REMARK    1  A    between atoms: C_2  and  C_1 
REMARK    2  A    between atoms: C_4  and  C_1 
REMARK       I    between atoms: N_3  and  C_2 
REMARK    3  A    between atoms: C_5  and  N_3 
REMARK    4  A    between atoms: C_11  and  C_5 
REMARK    5  A    between atoms: C_12  and  C_5 
ROOT
ATOM      1  C   UNL d   1     -47.586  12.798  22.072  0.00  0.00     0.315 C 
ATOM      2  N   UNL d   1     -48.318  13.093  22.319  0.00  0.00    -0.367 NA
ATOM      3  O   UNL d   1     -47.480  12.553  21.292  0.00  0.00    -0.255 OA
ENDROOT
BRANCH   2   4
ATOM      4  C   UNL d   1     -49.268  13.472  22.632  0.00  0.00     0.135 C 
BRANCH   4   5
ATOM      5  C   UNL d   1     -49.366  14.206  22.709  0.00  0.00     0.030 A 
ATOM      6  C   UNL d   1     -49.400  14.536  23.439  0.00  0.00     0.003 A 
ATOM      7  C   UNL d   1     -49.508  15.351  23.546  0.00  0.00     0.000 A 
ATOM      8  C   UNL d   1     -49.585  15.840  22.846  0.00  0.00     0.000 A 
ATOM      9  C   UNL d   1     -49.551  15.509  22.115  0.00  0.00     0.000 A 
ATOM     10  C   UNL d   1     -49.438  14.662  22.026  0.00  0.00     0.003 A 
ENDBRANCH   4   5
BRANCH   4  11
ATOM     11  C   UNL d   1     -49.831  13.021  22.774  0.00  0.00     0.030 A 
ATOM     12  C   UNL d   1     -49.992  12.808  23.523  0.00  0.00     0.003 A 
ATOM     13  C   UNL d   1     -50.623  12.300  23.698  0.00  0.00     0.000 A 
ATOM     14  C   UNL d   1     -51.064  12.033  23.060  0.00  0.00     0.000 A 
ATOM     15  C   UNL d   1     -50.898  12.249  22.309  0.00  0.00     0.000 A 
ATOM     16  C   UNL d   1     -50.270  12.755  22.138  0.00  0.00     0.003 A 
ENDBRANCH   4  11
ENDBRANCH   2   4
BRANCH   1  17
ATOM     17  C   UNL d   1     -46.952  12.747  22.605  0.00  0.00     0.150 A 
ATOM     18  C   UNL d   1     -46.327  12.698  23.130  0.00  0.00     0.019 A 
ATOM     19  C   UNL d   1     -46.168  11.980  23.525  0.00  0.00     0.119 A 
ATOM     20  O   UNL d   1     -46.634  11.323  23.389  0.00  0.00    -0.304 OA
ATOM     21  C   UNL d   1     -47.267  11.370  22.858  0.00  0.00     0.119 A 
ATOM     22  C   UNL d   1     -47.428  12.083  22.464  0.00  0.00     0.019 A 
BRANCH  17  23
ATOM     23  C   UNL d   1     -46.478  13.415  22.743  0.00  0.00     0.024 A 
ATOM     24  S   UNL d   1     -46.085  13.875  22.171  0.00  0.00    -0.090 SA
ATOM     25  C   UNL d   1     -45.676  14.486  22.549  0.00  0.00     0.035 A 
ATOM     26  C   UNL d   1     -45.803  14.422  23.360  0.00  0.00     0.007 A 
ATOM     27  C   UNL d   1     -46.301  13.758  23.483  0.00  0.00     0.004 A 
ENDBRANCH  17  23
ENDBRANCH   1  17
TORSDOF 5
ENDMDL
MODEL 6
REMARK VINA RESULT:      -6.1      7.854     10.056
REMARK  5 active torsions:
REMARK  status: ('A' for Active; 'I' for Inactive)
REMARK    1  A    between atoms: C_2  and  C_1 
REMARK    2  A    between atoms: C_4  and  C_1 
REMARK       I    between atoms: N_3  and  C_2 
REMARK    3  A    between atoms: C_5  and  N_3 
REMARK    4  A    between atoms: C_11  and  C_5 
REMARK    5  A    between atoms: C_12  and  C_5 
ROOT
ATOM      1  C   UNL d   1     -47.532  12.723  22.133  0.00  0.00     0.315 C 
ATOM      2  N   UNL d   1     -48.261  13.041  22.359  0.00  0.00    -0.367 NA
ATOM      3  O   UNL d   1     -47.425  12.437  21.367  0.00  0.00    -0.255 OA
ENDROOT
BRANCH   2   4
ATOM      4  C   UNL d   1     -49.207  13.451  22.646  0.00  0.00     0.135 C 
BRANCH   4   5
ATOM      5  C   UNL d   1     -49.780  12.997  22.785  0.00  0.00     0.030 A 
ATOM      6  C   UNL d   1     -49.898  12.706  23.522  0.00  0.00     0.003 A 
ATOM      7  C   UNL d   1     -50.530  12.200  23.697  0.00  0.00     0.000 A 
ATOM      8  C   UNL d   1     -51.064  11.991  23.060  0.00  0.00     0.000 A 
ATOM      9  C   UNL d   1     -50.946  12.282  22.322  0.00  0.00     0.000 A 
ATOM     10  C   UNL d   1     -50.284  12.806  22.161  0.00  0.00     0.003 A 
ENDBRANCH   4   5
BRANCH   4  11
ATOM     11  C   UNL d   1     -49.304  14.177  22.709  0.00  0.00     0.030 A 
ATOM     12  C   UNL d   1     -49.355  14.511  23.429  0.00  0.00     0.003 A 
ATOM     13  C   UNL d   1     -49.464  15.328  23.515  0.00  0.00     0.000 A 
ATOM     14  C   UNL d   1     -49.515  15.765  22.822  0.00  0.00     0.000 A 
ATOM     15  C   UNL d   1     -49.462  15.424  22.102  0.00  0.00     0.000 A 
ATOM     16  C   UNL d   1     -49.354  14.611  22.019  0.00  0.00     0.003 A 
ENDBRANCH   4  11
ENDBRANCH   2   4
BRANCH   1  17
ATOM     17  C   UNL d   1     -46.903  12.688  22.673  0.00  0.00     0.150 A 
ATOM     18  C   UNL d   1     -46.283  12.655  23.205  0.00  0.00     0.019 A 
ATOM     19  C   UNL d   1     -46.131  11.951  23.627  0.00  0.00     0.119 A 
ATOM     20  O   UNL d   1     -46.600  11.292  23.512  0.00  0.00    -0.304 OA
ATOM     21  C   UNL d   1     -47.228  11.323  22.974  0.00  0.00     0.119 A 
ATOM     22  C   UNL d   1     -47.382  12.022  22.553  0.00  0.00     0.019 A 
BRANCH  17  23
ATOM     23  C   UNL d   1     -46.426  13.358  22.790  0.00  0.00     0.024 A 
ATOM     24  S   UNL d   1     -46.185  13.677  23.521  0.00  0.00    -0.090 SA
ATOM     25  C   UNL d   1     -45.715  14.344  23.383  0.00  0.00     0.035 A 
ATOM     26  C   UNL d   1     -45.653  14.454  22.570  0.00  0.00     0.007 A 
ATOM     27  C   UNL d   1     -46.093  13.844  22.199  0.00  0.00     0.004 A 
ENDBRANCH  17  23
ENDBRANCH   1  17
TORSDOF 5
ENDMDL
MODEL 7
REMARK VINA RESULT:      -5.9      1.349      3.821
REMARK  5 active torsions:
REMARK  status: ('A' for Active; 'I' for Inactive)
REMARK    1  A    between atoms: C_2  and  C_1 
REMARK    2  A    between atoms: C_4  and  C_1 
REMARK       I    between atoms: N_3  and  C_2 
REMARK    3  A    between atoms: C_5  and  N_3 
REMARK    4  A    between atoms: C_11  and  C_5 
REMARK    5  A    between atoms: C_12  and  C_5 
ROOT
ATOM      1  C   UNL d   1     -39.068  15.126  20.030  0.00  0.00     0.315 C 
ATOM      2  N   UNL d   1     -39.170  14.853  19.256  0.00  0.00    -0.367 NA
ATOM      3  O   UNL d   1     -38.563  15.760  20.182  0.00  0.00    -0.255 OA
ENDROOT
BRANCH   2   4
ATOM      4  C   UNL d   1     -39.299  14.504  18.253  0.00  0.00     0.135 C 
BRANCH   4   5
ATOM      5  C   UNL d   1     -39.767  14.858  17.796  0.00  0.00     0.030 A 
ATOM      6  C   UNL d   1     -40.523  14.603  17.712  0.00  0.00     0.003 A 
ATOM      7  C   UNL d   1     -41.060  14.982  17.209  0.00  0.00     0.000 A 
ATOM      8  C   UNL d   1     -40.784  15.666  16.771  0.00  0.00     0.000 A 
ATOM      9  C   UNL d   1     -40.028  15.921  16.855  0.00  0.00     0.000 A 
ATOM     10  C   UNL d   1     -39.487  15.513  17.382  0.00  0.00     0.003 A 
ENDBRANCH   4   5
BRANCH   4  11
ATOM     11  C   UNL d   1     -38.931  13.919  18.003  0.00  0.00     0.030 A 
ATOM     12  C   UNL d   1     -39.107  13.192  18.274  0.00  0.00     0.003 A 
ATOM     13  C   UNL d   1     -38.702  12.523  18.002  0.00  0.00     0.000 A 
ATOM     14  C   UNL d   1     -38.114  12.654  17.444  0.00  0.00     0.000 A 
ATOM     15  C   UNL d   1     -37.941  13.386  17.175  0.00  0.00     0.000 A 
ATOM     16  C   UNL d   1     -38.347  14.050  17.448  0.00  0.00     0.003 A 
ENDBRANCH   4  11
ENDBRANCH   2   4
BRANCH   1  17
ATOM     17  C   UNL d   1     -39.470  14.765  20.660  0.00  0.00     0.150 A 
ATOM     18  C   UNL d   1     -39.868  14.411  21.280  0.00  0.00     0.019 A 
ATOM     19  C   UNL d   1     -39.480  13.847  21.758  0.00  0.00     0.119 A 
ATOM     20  O   UNL d   1     -38.703  13.645  21.609  0.00  0.00    -0.304 OA
ATOM     21  C   UNL d   1     -38.298  14.003  20.981  0.00  0.00     0.119 A 
ATOM     22  C   UNL d   1     -38.681  14.565  20.505  0.00  0.00     0.019 A 
BRANCH  17  23
ATOM     23  C   UNL d   1     -40.261  14.970  20.812  0.00  0.00     0.024 A 
ATOM     24  S   UNL d   1     -40.893  14.446  20.953  0.00  0.00    -0.090 SA
ATOM     25  C   UNL d   1     -41.584  14.884  21.078  0.00  0.00     0.035 A 
ATOM     26  C   UNL d   1     -41.399  15.684  21.017  0.00  0.00     0.007 A 
ATOM     27  C   UNL d   1     -40.580  15.740  20.852  0.00  0.00     0.004 A 
ENDBRANCH  17  23
ENDBRANCH   1  17
TORSDOF 5
ENDMDL
MODEL 8
REMARK VINA RESULT:      -5.8      8.004     10.163
REMARK  5 active torsions:
REMARK  status: ('A' for Active; 'I' for Inactive)
REMARK    1  A    between atoms: C_2  and  C_1 
REMARK    2  A    between atoms: C_4  and  C_1 
REMARK       I    between atoms: N_3  and  C_2 
REMARK    3  A    between atoms: C_5  and  N_3 
REMARK    4  A    between atoms: C_11  and  C_5 
REMARK    5  A    between atoms: C_12  and  C_5 
ROOT
ATOM      1  C   UNL d   1     -49.021  13.690  21.591  0.00  0.00     0.315 C 
ATOM      2  N   UNL d   1     -48.354  13.390  21.976  0.00  0.00    -0.367 NA
ATOM      3  O   UNL d   1     -48.966  13.952  20.811  0.00  0.00    -0.255 OA
ENDROOT
BRANCH   2   4
ATOM      4  C   UNL d   1     -47.487  13.003  22.470  0.00  0.00     0.135 C 
BRANCH   4   5
ATOM      5  C   UNL d   1     -47.473  12.293  22.692  0.00  0.00     0.030 A 
ATOM      6  C   UNL d   1     -47.711  12.095  23.431  0.00  0.00     0.003 A 
ATOM      7  C   UNL d   1     -47.704  11.310  23.698  0.00  0.00     0.000 A 
ATOM      8  C   UNL d   1     -47.431  10.706  23.155  0.00  0.00     0.000 A 
ATOM      9  C   UNL d   1     -47.193  10.904  22.415  0.00  0.00     0.000 A 
ATOM     10  C   UNL d   1     -47.208  11.723  22.158  0.00  0.00     0.003 A 
ENDBRANCH   4   5
BRANCH   4  11
ATOM     11  C   UNL d   1     -46.899  13.427  22.595  0.00  0.00     0.030 A 
ATOM     12  C   UNL d   1     -46.355  13.532  22.024  0.00  0.00     0.003 A 
ATOM     13  C   UNL d   1     -45.687  14.007  22.151  0.00  0.00     0.000 A 
ATOM     14  C   UNL d   1     -45.623  14.357  22.890  0.00  0.00     0.000 A 
ATOM     15  C   UNL d   1     -46.173  14.248  23.460  0.00  0.00     0.000 A 
ATOM     16  C   UNL d   1     -46.836  13.775  23.331  0.00  0.00     0.003 A 
ENDBRANCH   4  11
ENDBRANCH   2   4
BRANCH   1  17
ATOM     17  C   UNL d   1     -49.751  13.729  21.984  0.00  0.00     0.150 A 
ATOM     18  C   UNL d   1     -50.470  13.770  22.372  0.00  0.00     0.019 A 
ATOM     19  C   UNL d   1     -51.063  13.204  22.213  0.00  0.00     0.119 A 
ATOM     20  O   UNL d   1     -50.929  12.608  21.670  0.00  0.00    -0.304 OA
ATOM     21  C   UNL d   1     -50.202  12.566  21.276  0.00  0.00     0.119 A 
ATOM     22  C   UNL d   1     -49.611  13.126  21.432  0.00  0.00     0.019 A 
BRANCH  17  23
ATOM     23  C   UNL d   1     -49.887  14.335  22.536  0.00  0.00     0.024 A 
ATOM     24  S   UNL d   1     -50.185  14.248  23.309  0.00  0.00    -0.090 SA
ATOM     25  C   UNL d   1     -50.232  14.992  23.666  0.00  0.00     0.035 A 
ATOM     26  C   UNL d   1     -49.967  15.556  23.128  0.00  0.00     0.007 A 
ATOM     27  C   UNL d   1     -49.753  15.151  22.426  0.00  0.00     0.004 A 
ENDBRANCH  17  23
ENDBRANCH   1  17
TORSDOF 5
ENDMDL
MODEL 9
REMARK VINA RESULT:      -5.4      7.962     10.103
REMARK  5 active torsions:
REMARK  status: ('A' for Active; 'I' for Inactive)
REMARK    1  A    between atoms: C_2  and  C_1 
REMARK    2  A    between atoms: C_4  and  C_1 
REMARK       I    between atoms: N_3  and  C_2 
REMARK    3  A    between atoms: C_5  and  N_3 
REMARK    4  A    between atoms: C_11  and  C_5 
REMARK    5  A    between atoms: C_12  and  C_5 
ROOT
ATOM      1  C   UNL d   1     -47.609  12.973  22.062  0.00  0.00     0.315 C 
ATOM      2  N   UNL d   1     -48.346  13.232  22.333  0.00  0.00    -0.367 NA
ATOM      3  O   UNL d   1     -47.499  12.796  21.265  0.00  0.00    -0.255 OA
ENDROOT
BRANCH   2   4
ATOM      4  C   UNL d   1     -49.303  13.566  22.676  0.00  0.00     0.135 C 
BRANCH   4   5
ATOM      5  C   UNL d   1     -49.847  13.073  22.793  0.00  0.00     0.030 A 
ATOM      6  C   UNL d   1     -50.044  12.855  23.538  0.00  0.00     0.003 A 
ATOM      7  C   UNL d   1     -50.648  12.307  23.689  0.00  0.00     0.000 A 
ATOM      8  C   UNL d   1     -51.063  11.973  23.018  0.00  0.00     0.000 A 
ATOM      9  C   UNL d   1     -50.865  12.191  22.271  0.00  0.00     0.000 A 
ATOM     10  C   UNL d   1     -50.237  12.761  22.136  0.00  0.00     0.003 A 
ENDBRANCH   4   5
BRANCH   4  11
ATOM     11  C   UNL d   1     -49.435  14.279  22.800  0.00  0.00     0.030 A 
ATOM     12  C   UNL d   1     -49.631  14.759  22.196  0.00  0.00     0.003 A 
ATOM     13  C   UNL d   1     -49.782  15.564  22.320  0.00  0.00     0.000 A 
ATOM     14  C   UNL d   1     -49.719  15.832  23.094  0.00  0.00     0.000 A 
ATOM     15  C   UNL d   1     -49.523  15.346  23.696  0.00  0.00     0.000 A 
ATOM     16  C   UNL d   1     -49.372  14.545  23.569  0.00  0.00     0.003 A 
ENDBRANCH   4  11
ENDBRANCH   2   4
BRANCH   1  17
ATOM     17  C   UNL d   1     -46.974  12.889  22.590  0.00  0.00     0.150 A 
ATOM     18  C   UNL d   1     -46.348  12.804  23.110  0.00  0.00     0.019 A 
ATOM     19  C   UNL d   1     -45.814  13.435  23.227  0.00  0.00     0.119 A 
ATOM     20  O   UNL d   1     -45.912  14.138  22.823  0.00  0.00    -0.304 OA
ATOM     21  C   UNL d   1     -46.544  14.226  22.296  0.00  0.00     0.119 A 
ATOM     22  C   UNL d   1     -47.077  13.600  22.178  0.00  0.00     0.019 A 
BRANCH  17  23
ATOM     23  C   UNL d   1     -46.874  12.173  23.001  0.00  0.00     0.024 A 
ATOM     24  S   UNL d   1     -46.155  11.785  23.158  0.00  0.00    -0.090 SA
ATOM     25  C   UNL d   1     -46.309  11.091  23.581  0.00  0.00     0.035 A 
ATOM     26  C   UNL d   1     -47.122  11.033  23.697  0.00  0.00     0.007 A 
ATOM     27  C   UNL d   1     -47.475  11.702  23.338  0.00  0.00     0.004 A 
ENDBRANCH  17  23
ENDBRANCH   1  17
TORSDOF 5
ENDMDL
