MODEL 1
REMARK VINA RESULT:      -9.4      0.000      0.000
REMARK  5 active torsions:
REMARK  status: ('A' for Active; 'I' for Inactive)
REMARK    1  A    between atoms: C_2  and  C_1 
REMARK    2  A    between atoms: C_6  and  C_2 
REMARK    3  A    between atoms: S_3  and  C_11 
REMARK    4  A    between atoms: N_7  and  S_3 
REMARK    5  A    between atoms: C_15  and  C_6 
ROOT
ATOM      1  C   UNL d   1      51.769  33.252  53.075  0.00  0.00     0.141 C 
ATOM      2  C   UNL d   1      51.270  32.595  53.211  0.00  0.00     0.107 C 
ATOM      3  N   UNL d   1      50.776  31.965  53.331  0.00  0.00    -0.191 NA
ENDROOT
BRANCH   1   4
ATOM      4  C   UNL d   1      52.456  33.337  53.525  0.00  0.00     0.161 A 
ATOM      5  N   UNL d   1      53.130  32.855  53.478  0.00  0.00    -0.287 N 
ATOM      6  C   UNL d   1      53.686  33.129  54.018  0.00  0.00     0.083 A 
ATOM      7  C   UNL d   1      53.234  32.191  52.963  0.00  0.00     0.101 C 
ATOM      8  C   UNL d   1      54.435  32.869  54.204  0.00  0.00     0.019 A 
ATOM      9  C   UNL d   1      53.345  33.801  54.411  0.00  0.00     0.099 A 
ATOM     10  C   UNL d   1      54.861  33.275  54.788  0.00  0.00     0.002 A 
ATOM     11  C   UNL d   1      54.520  33.947  55.181  0.00  0.00     0.002 A 
ATOM     12  C   UNL d   1      53.762  34.197  54.981  0.00  0.00     0.021 A 
ATOM     13  N   UNL d   1      52.595  33.912  54.096  0.00  0.00    -0.226 NA
ENDBRANCH   1   4
BRANCH   1  14
ATOM     14  C   UNL d   1      51.582  33.806  52.503  0.00  0.00     0.208 C 
ATOM     15  O   UNL d   1      52.117  33.972  51.911  0.00  0.00    -0.286 OA
BRANCH  14  16
ATOM     16  C   UNL d   1      50.851  34.198  52.527  0.00  0.00     0.040 A 
ATOM     17  C   UNL d   1      50.365  34.201  51.847  0.00  0.00     0.004 A 
ATOM     18  C   UNL d   1      49.638  34.590  51.870  0.00  0.00     0.013 A 
ATOM     19  C   UNL d   1      49.399  34.969  52.555  0.00  0.00     0.104 A 
ATOM     20  C   UNL d   1      49.884  34.966  53.235  0.00  0.00     0.013 A 
ATOM     21  C   UNL d   1      50.611  34.577  53.211  0.00  0.00     0.004 A 
BRANCH  19  22
ATOM     22  S   UNL d   1      48.667  35.361  52.579  0.00  0.00     0.271 S 
ATOM     23  O   UNL d   1      48.450  35.002  51.838  0.00  0.00    -0.200 OA
ATOM     24  O   UNL d   1      48.878  35.711  53.301  0.00  0.00    -0.200 OA
BRANCH  22  25
ATOM     25  N   UNL d   1      47.940  35.750  52.602  0.00  0.00    -0.229 N 
ATOM     26  C   UNL d   1      47.698  36.124  53.288  0.00  0.00     0.092 A 
ATOM     27  C   UNL d   1      46.967  36.516  53.312  0.00  0.00     0.020 A 
ATOM     28  C   UNL d   1      46.482  36.531  52.650  0.00  0.00     0.003 A 
ATOM     29  C   UNL d   1      46.730  36.156  51.973  0.00  0.00     0.020 A 
ATOM     30  C   UNL d   1      47.462  35.764  51.949  0.00  0.00     0.092 A 
ENDBRANCH  22  25
ENDBRANCH  19  22
ENDBRANCH  14  16
ENDBRANCH   1  14
TORSDOF 5
ENDMDL
MODEL 2
REMARK VINA RESULT:      -9.2      1.091      2.058
REMARK  5 active torsions:
REMARK  status: ('A' for Active; 'I' for Inactive)
REMARK    1  A    between atoms: C_2  and  C_1 
REMARK    2  A    between atoms: C_6  and  C_2 
REMARK    3  A    between atoms: S_3  and  C_11 
REMARK    4  A    between atoms: N_7  and  S_3 
REMARK    5  A    between atoms: C_15  and  C_6 
ROOT
ATOM      1  C   UNL d   1      52.803  33.397  53.591  0.00  0.00     0.141 C 
ATOM      2  C   UNL d   1      52.890  33.754  54.342  0.00  0.00     0.107 C 
ATOM      3  N   UNL d   1      52.971  34.114  55.062  0.00  0.00    -0.191 NA
ENDROOT
BRANCH   1   4
ATOM      4  C   UNL d   1      52.901  32.581  53.518  0.00  0.00     0.161 A 
ATOM      5  N   UNL d   1      53.620  32.170  53.575  0.00  0.00    -0.287 N 
ATOM      6  C   UNL d   1      53.473  31.368  53.469  0.00  0.00     0.083 A 
ATOM      7  C   UNL d   1      54.380  32.514  53.717  0.00  0.00     0.101 C 
ATOM      8  C   UNL d   1      53.969  30.721  53.470  0.00  0.00     0.019 A 
ATOM      9  C   UNL d   1      52.637  31.280  53.343  0.00  0.00     0.099 A 
ATOM     10  C   UNL d   1      53.640  29.972  53.344  0.00  0.00     0.002 A 
ATOM     11  C   UNL d   1      52.804  29.883  53.218  0.00  0.00     0.002 A 
ATOM     12  C   UNL d   1      52.316  30.547  53.220  0.00  0.00     0.021 A 
ATOM     13  N   UNL d   1      52.306  32.031  53.376  0.00  0.00    -0.226 NA
ENDBRANCH   1   4
BRANCH   1  14
ATOM     14  C   UNL d   1      52.624  33.849  52.933  0.00  0.00     0.208 C 
ATOM     15  O   UNL d   1      53.210  34.033  52.398  0.00  0.00    -0.286 OA
BRANCH  14  16
ATOM     16  C   UNL d   1      51.848  34.117  52.812  0.00  0.00     0.040 A 
ATOM     17  C   UNL d   1      51.512  34.070  52.047  0.00  0.00     0.004 A 
ATOM     18  C   UNL d   1      50.740  34.336  51.927  0.00  0.00     0.013 A 
ATOM     19  C   UNL d   1      50.312  34.644  52.552  0.00  0.00     0.104 A 
ATOM     20  C   UNL d   1      50.647  34.692  53.316  0.00  0.00     0.013 A 
ATOM     21  C   UNL d   1      51.418  34.425  53.437  0.00  0.00     0.004 A 
BRANCH  19  22
ATOM     22  S   UNL d   1      49.535  34.913  52.431  0.00  0.00     0.271 S 
ATOM     23  O   UNL d   1      49.514  34.512  51.680  0.00  0.00    -0.200 OA
ATOM     24  O   UNL d   1      49.556  35.303  53.163  0.00  0.00    -0.200 OA
BRANCH  22  25
ATOM     25  N   UNL d   1      48.764  35.180  52.311  0.00  0.00    -0.229 N 
ATOM     26  C   UNL d   1      48.347  34.942  51.649  0.00  0.00     0.092 A 
ATOM     27  C   UNL d   1      47.571  35.211  51.528  0.00  0.00     0.020 A 
ATOM     28  C   UNL d   1      47.217  35.715  52.070  0.00  0.00     0.003 A 
ATOM     29  C   UNL d   1      47.639  35.946  52.725  0.00  0.00     0.020 A 
ATOM     30  C   UNL d   1      48.415  35.677  52.846  0.00  0.00     0.092 A 
ENDBRANCH  22  25
ENDBRANCH  19  22
ENDBRANCH  14  16
ENDBRANCH   1  14
TORSDOF 5
ENDMDL
MODEL 3
REMARK VINA RESULT:      -7.4      1.595      5.663
REMARK  5 active torsions:
REMARK  status: ('A' for Active; 'I' for Inactive)
REMARK    1  A    between atoms: C_2  and  C_1 
REMARK    2  A    between atoms: C_6  and  C_2 
REMARK    3  A    between atoms: S_3  and  C_11 
REMARK    4  A    between atoms: N_7  and  S_3 
REMARK    5  A    between atoms: C_15  and  C_6 
ROOT
ATOM      1  C   UNL d   1      50.036  34.362  52.246  0.00  0.00     0.141 C 
ATOM      2  C   UNL d   1      50.497  34.438  51.552  0.00  0.00     0.107 C 
ATOM      3  N   UNL d   1      50.952  34.501  50.886  0.00  0.00    -0.191 NA
ENDROOT
BRANCH   1   4
ATOM      4  C   UNL d   1      49.385  34.857  52.355  0.00  0.00     0.161 A 
ATOM      5  N   UNL d   1      48.746  34.943  51.832  0.00  0.00    -0.287 N 
ATOM      6  C   UNL d   1      48.219  35.489  52.148  0.00  0.00     0.083 A 
ATOM      7  C   UNL d   1      48.648  34.540  51.094  0.00  0.00     0.101 C 
ATOM      8  C   UNL d   1      47.510  35.780  51.874  0.00  0.00     0.019 A 
ATOM      9  C   UNL d   1      48.542  35.749  52.891  0.00  0.00     0.099 A 
ATOM     10  C   UNL d   1      47.106  36.337  52.336  0.00  0.00     0.002 A 
ATOM     11  C   UNL d   1      47.429  36.597  53.078  0.00  0.00     0.002 A 
ATOM     12  C   UNL d   1      48.147  36.293  53.341  0.00  0.00     0.021 A 
ATOM     13  N   UNL d   1      49.253  35.352  52.999  0.00  0.00    -0.226 NA
ENDBRANCH   1   4
BRANCH   1  14
ATOM     14  C   UNL d   1      50.225  33.803  52.812  0.00  0.00     0.208 C 
ATOM     15  O   UNL d   1      49.660  33.269  53.057  0.00  0.00    -0.286 OA
BRANCH  14  16
ATOM     16  C   UNL d   1      50.989  33.780  53.135  0.00  0.00     0.040 A 
ATOM     17  C   UNL d   1      51.379  33.044  53.214  0.00  0.00     0.004 A 
ATOM     18  C   UNL d   1      52.139  33.021  53.535  0.00  0.00     0.013 A 
ATOM     19  C   UNL d   1      52.503  33.713  53.772  0.00  0.00     0.104 A 
ATOM     20  C   UNL d   1      52.114  34.449  53.694  0.00  0.00     0.013 A 
ATOM     21  C   UNL d   1      51.355  34.472  53.373  0.00  0.00     0.004 A 
BRANCH  19  22
ATOM     22  S   UNL d   1      53.268  33.691  54.096  0.00  0.00     0.271 S 
ATOM     23  O   UNL d   1      53.278  32.844  54.014  0.00  0.00    -0.200 OA
ATOM     24  O   UNL d   1      53.259  34.517  54.176  0.00  0.00    -0.200 OA
BRANCH  22  25
ATOM     25  N   UNL d   1      54.028  33.668  54.417  0.00  0.00    -0.229 N 
ATOM     26  C   UNL d   1      54.675  33.552  53.930  0.00  0.00     0.092 A 
ATOM     27  C   UNL d   1      55.439  33.529  54.253  0.00  0.00     0.020 A 
ATOM     28  C   UNL d   1      55.551  33.622  55.060  0.00  0.00     0.003 A 
ATOM     29  C   UNL d   1      54.902  33.737  55.537  0.00  0.00     0.020 A 
ATOM     30  C   UNL d   1      54.138  33.760  55.214  0.00  0.00     0.092 A 
ENDBRANCH  22  25
ENDBRANCH  19  22
ENDBRANCH  14  16
ENDBRANCH   1  14
TORSDOF 5
ENDMDL
MODEL 4
REMARK VINA RESULT:      -6.8      1.692      5.705
REMARK  5 active torsions:
REMARK  status: ('A' for Active; 'I' for Inactive)
REMARK    1  A    between atoms: C_2  and  C_1 
REMARK    2  A    between atoms: C_6  and  C_2 
REMARK    3  A    between atoms: S_3  and  C_11 
REMARK    4  A    between atoms: N_7  and  S_3 
REMARK    5  A    between atoms: C_15  and  C_6 
ROOT
ATOM      1  C   UNL d   1      49.662  34.887  52.389  0.00  0.00     0.141 C 
ATOM      2  C   UNL d   1      49.668  34.487  51.655  0.00  0.00     0.107 C 
ATOM      3  N   UNL d   1      49.688  34.096  50.946  0.00  0.00    -0.191 NA
ENDROOT
BRANCH   1   4
ATOM      4  C   UNL d   1      48.965  35.241  52.651  0.00  0.00     0.161 A 
ATOM      5  N   UNL d   1      48.303  35.418  52.182  0.00  0.00    -0.287 N 
ATOM      6  C   UNL d   1      47.730  35.765  52.657  0.00  0.00     0.083 A 
ATOM      7  C   UNL d   1      48.226  35.268  51.352  0.00  0.00     0.101 C 
ATOM      8  C   UNL d   1      46.983  36.045  52.490  0.00  0.00     0.019 A 
ATOM      9  C   UNL d   1      48.046  35.804  53.445  0.00  0.00     0.099 A 
ATOM     10  C   UNL d   1      46.535  36.370  53.107  0.00  0.00     0.002 A 
ATOM     11  C   UNL d   1      46.852  36.409  53.895  0.00  0.00     0.002 A 
ATOM     12  C   UNL d   1      47.608  36.122  54.048  0.00  0.00     0.021 A 
ATOM     13  N   UNL d   1      48.800  35.479  53.421  0.00  0.00    -0.226 NA
ENDBRANCH   1   4
BRANCH   1  14
ATOM     14  C   UNL d   1      50.340  34.930  52.845  0.00  0.00     0.208 C 
ATOM     15  O   UNL d   1      50.530  35.627  53.222  0.00  0.00    -0.286 OA
BRANCH  14  16
ATOM     16  C   UNL d   1      50.833  34.266  52.921  0.00  0.00     0.040 A 
ATOM     17  C   UNL d   1      51.594  34.278  52.576  0.00  0.00     0.004 A 
ATOM     18  C   UNL d   1      52.083  33.619  52.652  0.00  0.00     0.013 A 
ATOM     19  C   UNL d   1      51.823  32.961  53.063  0.00  0.00     0.104 A 
ATOM     20  C   UNL d   1      51.062  32.949  53.408  0.00  0.00     0.013 A 
ATOM     21  C   UNL d   1      50.572  33.608  53.332  0.00  0.00     0.004 A 
BRANCH  19  22
ATOM     22  S   UNL d   1      52.315  32.297  53.140  0.00  0.00     0.271 S 
ATOM     23  O   UNL d   1      52.479  32.511  53.947  0.00  0.00    -0.200 OA
ATOM     24  O   UNL d   1      52.156  32.087  52.353  0.00  0.00    -0.200 OA
BRANCH  22  25
ATOM     25  N   UNL d   1      52.805  31.637  53.216  0.00  0.00    -0.229 N 
ATOM     26  C   UNL d   1      52.539  30.901  52.978  0.00  0.00     0.092 A 
ATOM     27  C   UNL d   1      53.032  30.237  53.054  0.00  0.00     0.020 A 
ATOM     28  C   UNL d   1      53.785  30.314  53.369  0.00  0.00     0.003 A 
ATOM     29  C   UNL d   1      54.041  31.049  53.604  0.00  0.00     0.020 A 
ATOM     30  C   UNL d   1      53.549  31.713  53.527  0.00  0.00     0.092 A 
ENDBRANCH  22  25
ENDBRANCH  19  22
ENDBRANCH  14  16
ENDBRANCH   1  14
TORSDOF 5
ENDMDL
MODEL 5
REMARK VINA RESULT:      -6.7      1.378      6.058
REMARK  5 active torsions:
REMARK  status: ('A' for Active; 'I' for Inactive)
REMARK    1  A    between atoms: C_2  and  C_1 
REMARK    2  A    between atoms: C_6  and  C_2 
REMARK    3  A    between atoms: S_3  and  C_11 
REMARK    4  A    between atoms: N_7  and  S_3 
REMARK    5  A    between atoms: C_15  and  C_6 
ROOT
ATOM      1  C   UNL d   1      47.482  35.566  52.165  0.00  0.00     0.141 C 
ATOM      2  C   UNL d   1      47.409  35.103  51.473  0.00  0.00     0.107 C 
ATOM      3  N   UNL d   1      47.352  34.657  50.800  0.00  0.00    -0.191 NA
ENDROOT
BRANCH   1   4
ATOM      4  C   UNL d   1      46.821  35.684  52.645  0.00  0.00     0.161 A 
ATOM      5  N   UNL d   1      46.112  36.049  52.414  0.00  0.00    -0.287 N 
ATOM      6  C   UNL d   1      45.599  36.055  53.056  0.00  0.00     0.083 A 
ATOM      7  C   UNL d   1      45.940  36.365  51.647  0.00  0.00     0.101 C 
ATOM      8  C   UNL d   1      44.840  36.339  53.141  0.00  0.00     0.019 A 
ATOM      9  C   UNL d   1      46.003  35.682  53.704  0.00  0.00     0.099 A 
ATOM     10  C   UNL d   1      44.468  36.257  53.877  0.00  0.00     0.002 A 
ATOM     11  C   UNL d   1      44.872  35.884  54.525  0.00  0.00     0.002 A 
ATOM     12  C   UNL d   1      45.639  35.602  54.423  0.00  0.00     0.021 A 
ATOM     13  N   UNL d   1      46.747  35.463  53.433  0.00  0.00    -0.226 NA
ENDBRANCH   1   4
BRANCH   1  14
ATOM     14  C   UNL d   1      48.201  35.901  52.368  0.00  0.00     0.208 C 
ATOM     15  O   UNL d   1      48.262  36.709  52.446  0.00  0.00    -0.286 OA
BRANCH  14  16
ATOM     16  C   UNL d   1      48.864  35.418  52.493  0.00  0.00     0.040 A 
ATOM     17  C   UNL d   1      49.193  35.364  53.260  0.00  0.00     0.004 A 
ATOM     18  C   UNL d   1      49.852  34.884  53.384  0.00  0.00     0.013 A 
ATOM     19  C   UNL d   1      50.178  34.466  52.761  0.00  0.00     0.104 A 
ATOM     20  C   UNL d   1      49.849  34.519  51.994  0.00  0.00     0.013 A 
ATOM     21  C   UNL d   1      49.190  34.999  51.870  0.00  0.00     0.004 A 
BRANCH  19  22
ATOM     22  S   UNL d   1      50.842  33.982  52.886  0.00  0.00     0.271 S 
ATOM     23  O   UNL d   1      51.323  34.530  52.448  0.00  0.00    -0.200 OA
ATOM     24  O   UNL d   1      50.372  33.448  53.313  0.00  0.00    -0.200 OA
BRANCH  22  25
ATOM     25  N   UNL d   1      51.501  33.502  53.010  0.00  0.00    -0.229 N 
ATOM     26  C   UNL d   1      52.207  33.832  53.258  0.00  0.00     0.092 A 
ATOM     27  C   UNL d   1      52.870  33.349  53.383  0.00  0.00     0.020 A 
ATOM     28  C   UNL d   1      52.822  32.539  53.259  0.00  0.00     0.003 A 
ATOM     29  C   UNL d   1      52.117  32.220  53.013  0.00  0.00     0.020 A 
ATOM     30  C   UNL d   1      51.453  32.703  52.888  0.00  0.00     0.092 A 
ENDBRANCH  22  25
ENDBRANCH  19  22
ENDBRANCH  14  16
ENDBRANCH   1  14
TORSDOF 5
ENDMDL
