MODEL 1
REMARK VINA RESULT:      -6.5      0.000      0.000
REMARK  5 active torsions:
REMARK  status: ('A' for Active; 'I' for Inactive)
REMARK       I    between atoms: C_2  and  N_1 
REMARK    1  A    between atoms: C_14  and  C_2 
REMARK    2  A    between atoms: C_8  and  O_11 
REMARK    3  A    between atoms: O_11  and  C_17 
REMARK    4  A    between atoms: C_18  and  C_14 
REMARK    5  A    between atoms: C_17  and  C_18 
ROOT
ATOM      1  C   UNL d   1     -47.253  13.317  22.669  0.00  0.00     0.123 C 
ENDROOT
BRANCH   1   2
ATOM      2  O   UNL d   1     -47.545  14.088  22.659  0.00  0.00    -0.305 OA
BRANCH   2   3
ATOM      3  C   UNL d   1     -48.350  14.220  22.568  0.00  0.00     0.100 A 
ATOM      4  C   UNL d   1     -48.789  13.748  22.053  0.00  0.00     0.025 A 
ATOM      5  C   UNL d   1     -49.597  13.879  21.960  0.00  0.00     0.013 A 
ATOM      6  C   UNL d   1     -50.036  13.407  21.445  0.00  0.00     0.001 C 
ATOM      7  C   UNL d   1     -49.968  14.482  22.383  0.00  0.00     0.058 A 
ATOM      8  C   UNL d   1     -49.530  14.954  22.899  0.00  0.00     0.013 A 
ATOM      9 CL   UNL d   1     -50.778  14.613  22.290  0.00  0.00    -0.082 Cl
ATOM     10  C   UNL d   1     -48.721  14.823  22.992  0.00  0.00     0.025 A 
ATOM     11  C   UNL d   1     -49.901  15.556  23.321  0.00  0.00     0.001 C 
ENDBRANCH   2   3
ENDBRANCH   1   2
BRANCH   1  12
ATOM     12  C   UNL d   1     -46.439  13.182  22.648  0.00  0.00     0.032 C 
BRANCH  12  13
ATOM     13  C   UNL d   1     -46.133  12.460  22.905  0.00  0.00     0.063 C 
BRANCH  13  14
ATOM     14  C   UNL d   1     -45.331  12.295  22.809  0.00  0.00     0.265 C 
ATOM     15  N   UNL d   1     -45.022  11.576  23.072  0.00  0.00    -0.272 N 
ATOM     16  C   UNL d   1     -44.221  11.410  22.976  0.00  0.00     0.083 A 
ATOM     17  C   UNL d   1     -45.517  11.023  23.432  0.00  0.00     0.083 A 
ATOM     18  C   UNL d   1     -43.912  10.692  23.239  0.00  0.00     0.019 A 
ATOM     19  C   UNL d   1     -44.407  10.139  23.599  0.00  0.00     0.003 A 
ATOM     20  C   UNL d   1     -45.210  10.305  23.695  0.00  0.00     0.019 A 
ATOM     21  O   UNL d   1     -44.836  12.848  22.448  0.00  0.00    -0.267 OA
ENDBRANCH  13  14
ENDBRANCH  12  13
ENDBRANCH   1  12
TORSDOF 5
ENDMDL
MODEL 2
REMARK VINA RESULT:      -5.9      1.062      1.818
REMARK  5 active torsions:
REMARK  status: ('A' for Active; 'I' for Inactive)
REMARK       I    between atoms: C_2  and  N_1 
REMARK    1  A    between atoms: C_14  and  C_2 
REMARK    2  A    between atoms: C_8  and  O_11 
REMARK    3  A    between atoms: O_11  and  C_17 
REMARK    4  A    between atoms: C_18  and  C_14 
REMARK    5  A    between atoms: C_17  and  C_18 
ROOT
ATOM      1  C   UNL d   1     -47.587  13.388  22.876  0.00  0.00     0.123 C 
ENDROOT
BRANCH   1   2
ATOM      2  O   UNL d   1     -48.307  13.313  23.269  0.00  0.00    -0.305 OA
BRANCH   2   3
ATOM      3  C   UNL d   1     -48.975  13.689  22.974  0.00  0.00     0.100 A 
ATOM      4  C   UNL d   1     -49.142  14.466  23.197  0.00  0.00     0.025 A 
ATOM      5  C   UNL d   1     -49.812  14.845  22.903  0.00  0.00     0.013 A 
ATOM      6  C   UNL d   1     -49.979  15.622  23.126  0.00  0.00     0.001 C 
ATOM      7  C   UNL d   1     -50.316  14.448  22.384  0.00  0.00     0.058 A 
ATOM      8  C   UNL d   1     -50.150  13.672  22.161  0.00  0.00     0.013 A 
ATOM      9 CL   UNL d   1     -50.987  14.828  22.089  0.00  0.00    -0.082 Cl
ATOM     10  C   UNL d   1     -49.479  13.292  22.456  0.00  0.00     0.025 A 
ATOM     11  C   UNL d   1     -50.653  13.275  21.643  0.00  0.00     0.001 C 
ENDBRANCH   2   3
ENDBRANCH   1   2
BRANCH   1  12
ATOM     12  C   UNL d   1     -46.940  12.929  23.106  0.00  0.00     0.032 C 
BRANCH  12  13
ATOM     13  C   UNL d   1     -46.225  12.989  22.699  0.00  0.00     0.063 C 
BRANCH  13  14
ATOM     14  C   UNL d   1     -45.610  12.466  22.867  0.00  0.00     0.265 C 
ATOM     15  N   UNL d   1     -44.906  12.504  22.438  0.00  0.00    -0.272 N 
ATOM     16  C   UNL d   1     -44.291  11.981  22.606  0.00  0.00     0.083 A 
ATOM     17  C   UNL d   1     -44.818  13.067  21.841  0.00  0.00     0.083 A 
ATOM     18  C   UNL d   1     -43.587  12.020  22.177  0.00  0.00     0.019 A 
ATOM     19  C   UNL d   1     -43.499  12.582  21.580  0.00  0.00     0.003 A 
ATOM     20  C   UNL d   1     -44.115  13.106  21.412  0.00  0.00     0.019 A 
ATOM     21  O   UNL d   1     -45.698  11.903  23.464  0.00  0.00    -0.267 OA
ENDBRANCH  13  14
ENDBRANCH  12  13
ENDBRANCH   1  12
TORSDOF 5
ENDMDL
MODEL 3
REMARK VINA RESULT:      -5.4      2.318      5.457
REMARK  5 active torsions:
REMARK  status: ('A' for Active; 'I' for Inactive)
REMARK       I    between atoms: C_2  and  N_1 
REMARK    1  A    between atoms: C_14  and  C_2 
REMARK    2  A    between atoms: C_8  and  O_11 
REMARK    3  A    between atoms: O_11  and  C_17 
REMARK    4  A    between atoms: C_18  and  C_14 
REMARK    5  A    between atoms: C_17  and  C_18 
ROOT
ATOM      1  C   UNL d   1     -47.786  12.523  23.086  0.00  0.00     0.123 C 
ENDROOT
BRANCH   1   2
ATOM      2  O   UNL d   1     -47.225  12.296  23.646  0.00  0.00    -0.305 OA
BRANCH   2   3
ATOM      3  C   UNL d   1     -46.464  12.103  23.406  0.00  0.00     0.100 A 
ATOM      4  C   UNL d   1     -46.115  11.402  23.669  0.00  0.00     0.025 A 
ATOM      5  C   UNL d   1     -45.351  11.206  23.430  0.00  0.00     0.013 A 
ATOM      6  C   UNL d   1     -45.003  10.506  23.693  0.00  0.00     0.001 C 
ATOM      7  C   UNL d   1     -44.935  11.710  22.927  0.00  0.00     0.058 A 
ATOM      8  C   UNL d   1     -45.282  12.410  22.664  0.00  0.00     0.013 A 
ATOM      9 CL   UNL d   1     -44.170  11.513  22.687  0.00  0.00    -0.082 Cl
ATOM     10  C   UNL d   1     -46.047  12.607  22.903  0.00  0.00     0.025 A 
ATOM     11  C   UNL d   1     -44.866  12.913  22.162  0.00  0.00     0.001 C 
ENDBRANCH   2   3
ENDBRANCH   1   2
BRANCH   1  12
ATOM     12  C   UNL d   1     -48.561  12.686  23.321  0.00  0.00     0.032 C 
BRANCH  12  13
ATOM     13  C   UNL d   1     -48.907  13.410  23.129  0.00  0.00     0.063 C 
BRANCH  13  14
ATOM     14  C   UNL d   1     -49.703  13.544  23.296  0.00  0.00     0.265 C 
ATOM     15  N   UNL d   1     -49.985  14.316  23.376  0.00  0.00    -0.272 N 
ATOM     16  C   UNL d   1     -50.781  14.450  23.543  0.00  0.00     0.083 A 
ATOM     17  C   UNL d   1     -49.469  14.953  23.289  0.00  0.00     0.083 A 
ATOM     18  C   UNL d   1     -51.062  15.221  23.624  0.00  0.00     0.019 A 
ATOM     19  C   UNL d   1     -50.546  15.859  23.536  0.00  0.00     0.003 A 
ATOM     20  C   UNL d   1     -49.749  15.724  23.369  0.00  0.00     0.019 A 
ATOM     21  O   UNL d   1     -50.219  12.906  23.383  0.00  0.00    -0.267 OA
ENDBRANCH  13  14
ENDBRANCH  12  13
ENDBRANCH   1  12
TORSDOF 5
ENDMDL
MODEL 4
REMARK VINA RESULT:      -5.3      8.170      8.892
REMARK  5 active torsions:
REMARK  status: ('A' for Active; 'I' for Inactive)
REMARK       I    between atoms: C_2  and  N_1 
REMARK    1  A    between atoms: C_14  and  C_2 
REMARK    2  A    between atoms: C_8  and  O_11 
REMARK    3  A    between atoms: O_11  and  C_17 
REMARK    4  A    between atoms: C_18  and  C_14 
REMARK    5  A    between atoms: C_17  and  C_18 
ROOT
ATOM      1  C   UNL d   1     -40.072  14.668  19.840  0.00  0.00     0.123 C 
ENDROOT
BRANCH   1   2
ATOM      2  O   UNL d   1     -40.572  14.357  19.263  0.00  0.00    -0.305 OA
BRANCH   2   3
ATOM      3  C   UNL d   1     -40.436  14.522  18.471  0.00  0.00     0.100 A 
ATOM      4  C   UNL d   1     -39.809  14.160  18.076  0.00  0.00     0.025 A 
ATOM      5  C   UNL d   1     -39.671  14.325  17.280  0.00  0.00     0.013 A 
ATOM      6  C   UNL d   1     -39.043  13.963  16.886  0.00  0.00     0.001 C 
ATOM      7  C   UNL d   1     -40.160  14.854  16.878  0.00  0.00     0.058 A 
ATOM      8  C   UNL d   1     -40.787  15.216  17.272  0.00  0.00     0.013 A 
ATOM      9 CL   UNL d   1     -40.022  15.019  16.082  0.00  0.00    -0.082 Cl
ATOM     10  C   UNL d   1     -40.926  15.051  18.069  0.00  0.00     0.025 A 
ATOM     11  C   UNL d   1     -41.276  15.744  16.870  0.00  0.00     0.001 C 
ENDBRANCH   2   3
ENDBRANCH   1   2
BRANCH   1  12
ATOM     12  C   UNL d   1     -40.120  14.399  20.619  0.00  0.00     0.032 C 
BRANCH  12  13
ATOM     13  C   UNL d   1     -39.688  14.773  21.213  0.00  0.00     0.063 C 
BRANCH  13  14
ATOM     14  C   UNL d   1     -39.411  14.340  21.858  0.00  0.00     0.265 C 
ATOM     15  N   UNL d   1     -38.977  14.714  22.452  0.00  0.00    -0.272 N 
ATOM     16  C   UNL d   1     -38.700  14.280  23.096  0.00  0.00     0.083 A 
ATOM     17  C   UNL d   1     -38.821  15.522  22.401  0.00  0.00     0.083 A 
ATOM     18  C   UNL d   1     -38.267  14.654  23.690  0.00  0.00     0.019 A 
ATOM     19  C   UNL d   1     -38.110  15.462  23.639  0.00  0.00     0.003 A 
ATOM     20  C   UNL d   1     -38.387  15.896  22.994  0.00  0.00     0.019 A 
ATOM     21  O   UNL d   1     -39.568  13.531  21.909  0.00  0.00    -0.267 OA
ENDBRANCH  13  14
ENDBRANCH  12  13
ENDBRANCH   1  12
TORSDOF 5
ENDMDL
MODEL 5
REMARK VINA RESULT:      -5.2      4.387      6.454
REMARK  5 active torsions:
REMARK  status: ('A' for Active; 'I' for Inactive)
REMARK       I    between atoms: C_2  and  N_1 
REMARK    1  A    between atoms: C_14  and  C_2 
REMARK    2  A    between atoms: C_8  and  O_11 
REMARK    3  A    between atoms: O_11  and  C_17 
REMARK    4  A    between atoms: C_18  and  C_14 
REMARK    5  A    between atoms: C_17  and  C_18 
ROOT
ATOM      1  C   UNL d   1     -42.728  13.436  21.046  0.00  0.00     0.123 C 
ENDROOT
BRANCH   1   2
ATOM      2  O   UNL d   1     -41.905  13.402  21.083  0.00  0.00    -0.305 OA
BRANCH   2   3
ATOM      3  C   UNL d   1     -41.455  13.977  20.708  0.00  0.00     0.100 A 
ATOM      4  C   UNL d   1     -41.220  13.870  19.924  0.00  0.00     0.025 A 
ATOM      5  C   UNL d   1     -40.768  14.446  19.546  0.00  0.00     0.013 A 
ATOM      6  C   UNL d   1     -40.534  14.339  18.762  0.00  0.00     0.001 C 
ATOM      7  C   UNL d   1     -40.550  15.131  19.951  0.00  0.00     0.058 A 
ATOM      8  C   UNL d   1     -40.784  15.238  20.734  0.00  0.00     0.013 A 
ATOM      9 CL   UNL d   1     -40.097  15.707  19.572  0.00  0.00    -0.082 Cl
ATOM     10  C   UNL d   1     -41.237  14.662  21.113  0.00  0.00     0.025 A 
ATOM     11  C   UNL d   1     -40.566  15.922  21.139  0.00  0.00     0.001 C 
ENDBRANCH   2   3
ENDBRANCH   1   2
BRANCH   1  12
ATOM     12  C   UNL d   1     -43.183  12.871  21.439  0.00  0.00     0.032 C 
BRANCH  12  13
ATOM     13  C   UNL d   1     -43.970  13.031  21.628  0.00  0.00     0.063 C 
BRANCH  13  14
ATOM     14  C   UNL d   1     -44.385  12.527  22.131  0.00  0.00     0.265 C 
ATOM     15  N   UNL d   1     -45.139  12.735  22.395  0.00  0.00    -0.272 N 
ATOM     16  C   UNL d   1     -45.554  12.231  22.898  0.00  0.00     0.083 A 
ATOM     17  C   UNL d   1     -45.477  13.449  22.155  0.00  0.00     0.083 A 
ATOM     18  C   UNL d   1     -46.308  12.439  23.162  0.00  0.00     0.019 A 
ATOM     19  C   UNL d   1     -46.646  13.153  22.922  0.00  0.00     0.003 A 
ATOM     20  C   UNL d   1     -46.230  13.657  22.419  0.00  0.00     0.019 A 
ATOM     21  O   UNL d   1     -44.047  11.814  22.371  0.00  0.00    -0.267 OA
ENDBRANCH  13  14
ENDBRANCH  12  13
ENDBRANCH   1  12
TORSDOF 5
ENDMDL
MODEL 6
REMARK VINA RESULT:      -5.1      2.283      5.320
REMARK  5 active torsions:
REMARK  status: ('A' for Active; 'I' for Inactive)
REMARK       I    between atoms: C_2  and  N_1 
REMARK    1  A    between atoms: C_14  and  C_2 
REMARK    2  A    between atoms: C_8  and  O_11 
REMARK    3  A    between atoms: O_11  and  C_17 
REMARK    4  A    between atoms: C_18  and  C_14 
REMARK    5  A    between atoms: C_17  and  C_18 
ROOT
ATOM      1  C   UNL d   1     -46.800  13.866  22.807  0.00  0.00     0.123 C 
ENDROOT
BRANCH   1   2
ATOM      2  O   UNL d   1     -46.459  13.436  22.192  0.00  0.00    -0.305 OA
BRANCH   2   3
ATOM      3  C   UNL d   1     -45.834  12.926  22.346  0.00  0.00     0.100 A 
ATOM      4  C   UNL d   1     -45.943  12.284  22.853  0.00  0.00     0.025 A 
ATOM      5  C   UNL d   1     -45.316  11.771  23.010  0.00  0.00     0.013 A 
ATOM      6  C   UNL d   1     -45.425  11.130  23.517  0.00  0.00     0.001 C 
ATOM      7  C   UNL d   1     -44.581  11.900  22.659  0.00  0.00     0.058 A 
ATOM      8  C   UNL d   1     -44.472  12.541  22.152  0.00  0.00     0.013 A 
ATOM      9 CL   UNL d   1     -43.954  11.386  22.816  0.00  0.00    -0.082 Cl
ATOM     10  C   UNL d   1     -45.099  13.054  21.995  0.00  0.00     0.025 A 
ATOM     11  C   UNL d   1     -43.738  12.669  21.801  0.00  0.00     0.001 C 
ENDBRANCH   2   3
ENDBRANCH   1   2
BRANCH   1  12
ATOM     12  C   UNL d   1     -47.395  14.415  22.647  0.00  0.00     0.032 C 
BRANCH  12  13
ATOM     13  C   UNL d   1     -48.151  14.309  22.962  0.00  0.00     0.063 C 
BRANCH  13  14
ATOM     14  C   UNL d   1     -48.731  14.883  22.843  0.00  0.00     0.265 C 
ATOM     15  N   UNL d   1     -49.507  14.742  23.087  0.00  0.00    -0.272 N 
ATOM     16  C   UNL d   1     -50.087  15.315  22.969  0.00  0.00     0.083 A 
ATOM     17  C   UNL d   1     -49.701  14.027  23.450  0.00  0.00     0.083 A 
ATOM     18  C   UNL d   1     -50.863  15.175  23.213  0.00  0.00     0.019 A 
ATOM     19  C   UNL d   1     -51.058  14.460  23.575  0.00  0.00     0.003 A 
ATOM     20  C   UNL d   1     -50.476  13.886  23.693  0.00  0.00     0.019 A 
ATOM     21  O   UNL d   1     -48.536  15.598  22.481  0.00  0.00    -0.267 OA
ENDBRANCH  13  14
ENDBRANCH  12  13
ENDBRANCH   1  12
TORSDOF 5
ENDMDL
MODEL 7
REMARK VINA RESULT:      -4.8      2.730      3.633
REMARK  5 active torsions:
REMARK  status: ('A' for Active; 'I' for Inactive)
REMARK       I    between atoms: C_2  and  N_1 
REMARK    1  A    between atoms: C_14  and  C_2 
REMARK    2  A    between atoms: C_8  and  O_11 
REMARK    3  A    between atoms: O_11  and  C_17 
REMARK    4  A    between atoms: C_18  and  C_14 
REMARK    5  A    between atoms: C_17  and  C_18 
ROOT
ATOM      1  C   UNL d   1     -44.913  13.175  21.954  0.00  0.00     0.123 C 
ENDROOT
BRANCH   1   2
ATOM      2  O   UNL d   1     -45.230  13.149  22.714  0.00  0.00    -0.305 OA
BRANCH   2   3
ATOM      3  C   UNL d   1     -46.044  13.169  22.819  0.00  0.00     0.100 A 
ATOM      4  C   UNL d   1     -46.445  12.489  23.061  0.00  0.00     0.025 A 
ATOM      5  C   UNL d   1     -47.262  12.508  23.167  0.00  0.00     0.013 A 
ATOM      6  C   UNL d   1     -47.663  11.828  23.409  0.00  0.00     0.001 C 
ATOM      7  C   UNL d   1     -47.680  13.206  23.030  0.00  0.00     0.058 A 
ATOM      8  C   UNL d   1     -47.280  13.885  22.788  0.00  0.00     0.013 A 
ATOM      9 CL   UNL d   1     -48.498  13.223  23.136  0.00  0.00    -0.082 Cl
ATOM     10  C   UNL d   1     -46.462  13.867  22.683  0.00  0.00     0.025 A 
ATOM     11  C   UNL d   1     -47.698  14.582  22.652  0.00  0.00     0.001 C 
ENDBRANCH   2   3
ENDBRANCH   1   2
BRANCH   1  12
ATOM     12  C   UNL d   1     -44.149  12.896  21.815  0.00  0.00     0.032 C 
BRANCH  12  13
ATOM     13  C   UNL d   1     -43.590  13.382  21.452  0.00  0.00     0.063 C 
BRANCH  13  14
ATOM     14  C   UNL d   1     -42.829  13.101  21.309  0.00  0.00     0.265 C 
ATOM     15  N   UNL d   1     -42.219  13.628  21.131  0.00  0.00    -0.272 N 
ATOM     16  C   UNL d   1     -41.458  13.347  20.987  0.00  0.00     0.083 A 
ATOM     17  C   UNL d   1     -42.373  14.438  21.097  0.00  0.00     0.083 A 
ATOM     18  C   UNL d   1     -40.849  13.874  20.809  0.00  0.00     0.019 A 
ATOM     19  C   UNL d   1     -41.002  14.684  20.775  0.00  0.00     0.003 A 
ATOM     20  C   UNL d   1     -41.765  14.965  20.919  0.00  0.00     0.019 A 
ATOM     21  O   UNL d   1     -42.675  12.291  21.343  0.00  0.00    -0.267 OA
ENDBRANCH  13  14
ENDBRANCH  12  13
ENDBRANCH   1  12
TORSDOF 5
ENDMDL
MODEL 8
REMARK VINA RESULT:      -4.4      2.397      5.509
REMARK  5 active torsions:
REMARK  status: ('A' for Active; 'I' for Inactive)
REMARK       I    between atoms: C_2  and  N_1 
REMARK    1  A    between atoms: C_14  and  C_2 
REMARK    2  A    between atoms: C_8  and  O_11 
REMARK    3  A    between atoms: O_11  and  C_17 
REMARK    4  A    between atoms: C_18  and  C_14 
REMARK    5  A    between atoms: C_17  and  C_18 
ROOT
ATOM      1  C   UNL d   1     -46.868  11.802  23.132  0.00  0.00     0.123 C 
ENDROOT
BRANCH   1   2
ATOM      2  O   UNL d   1     -46.308  11.574  23.692  0.00  0.00    -0.305 OA
BRANCH   2   3
ATOM      3  C   UNL d   1     -45.549  11.371  23.453  0.00  0.00     0.100 A 
ATOM      4  C   UNL d   1     -45.118  11.883  22.970  0.00  0.00     0.025 A 
ATOM      5  C   UNL d   1     -44.357  11.680  22.729  0.00  0.00     0.013 A 
ATOM      6  C   UNL d   1     -43.926  12.193  22.247  0.00  0.00     0.001 C 
ATOM      7  C   UNL d   1     -44.025  10.965  22.970  0.00  0.00     0.058 A 
ATOM      8  C   UNL d   1     -44.455  10.452  23.452  0.00  0.00     0.013 A 
ATOM      9 CL   UNL d   1     -43.262  10.762  22.728  0.00  0.00    -0.082 Cl
ATOM     10  C   UNL d   1     -45.217  10.655  23.694  0.00  0.00     0.025 A 
ATOM     11  C   UNL d   1     -44.123   9.737  23.692  0.00  0.00     0.001 C 
ENDBRANCH   2   3
ENDBRANCH   1   2
BRANCH   1  12
ATOM     12  C   UNL d   1     -47.513  12.265  23.357  0.00  0.00     0.032 C 
BRANCH  12  13
ATOM     13  C   UNL d   1     -48.131  12.399  22.827  0.00  0.00     0.063 C 
BRANCH  13  14
ATOM     14  C   UNL d   1     -48.672  13.005  22.968  0.00  0.00     0.265 C 
ATOM     15  N   UNL d   1     -49.392  13.019  22.566  0.00  0.00    -0.272 N 
ATOM     16  C   UNL d   1     -49.932  13.625  22.706  0.00  0.00     0.083 A 
ATOM     17  C   UNL d   1     -49.572  12.424  22.023  0.00  0.00     0.083 A 
ATOM     18  C   UNL d   1     -50.653  13.638  22.304  0.00  0.00     0.019 A 
ATOM     19  C   UNL d   1     -50.832  13.044  21.761  0.00  0.00     0.003 A 
ATOM     20  C   UNL d   1     -50.291  12.437  21.621  0.00  0.00     0.019 A 
ATOM     21  O   UNL d   1     -48.492  13.600  23.511  0.00  0.00    -0.267 OA
ENDBRANCH  13  14
ENDBRANCH  12  13
ENDBRANCH   1  12
TORSDOF 5
ENDMDL
MODEL 9
REMARK VINA RESULT:      -4.2      2.438      4.837
REMARK  5 active torsions:
REMARK  status: ('A' for Active; 'I' for Inactive)
REMARK       I    between atoms: C_2  and  N_1 
REMARK    1  A    between atoms: C_14  and  C_2 
REMARK    2  A    between atoms: C_8  and  O_11 
REMARK    3  A    between atoms: O_11  and  C_17 
REMARK    4  A    between atoms: C_18  and  C_14 
REMARK    5  A    between atoms: C_17  and  C_18 
ROOT
ATOM      1  C   UNL d   1     -47.210  11.438  22.973  0.00  0.00     0.123 C 
ENDROOT
BRANCH   1   2
ATOM      2  O   UNL d   1     -46.617  11.820  23.401  0.00  0.00    -0.305 OA
BRANCH   2   3
ATOM      3  C   UNL d   1     -46.163  12.401  23.041  0.00  0.00     0.100 A 
ATOM      4  C   UNL d   1     -46.409  13.188  23.063  0.00  0.00     0.025 A 
ATOM      5  C   UNL d   1     -45.953  13.773  22.703  0.00  0.00     0.013 A 
ATOM      6  C   UNL d   1     -46.199  14.561  22.725  0.00  0.00     0.001 C 
ATOM      7  C   UNL d   1     -45.251  13.571  22.319  0.00  0.00     0.058 A 
ATOM      8  C   UNL d   1     -45.005  12.785  22.297  0.00  0.00     0.013 A 
ATOM      9 CL   UNL d   1     -44.796  14.157  21.958  0.00  0.00    -0.082 Cl
ATOM     10  C   UNL d   1     -45.461  12.199  22.658  0.00  0.00     0.025 A 
ATOM     11  C   UNL d   1     -44.304  12.583  21.914  0.00  0.00     0.001 C 
ENDBRANCH   2   3
ENDBRANCH   1   2
BRANCH   1  12
ATOM     12  C   UNL d   1     -47.988  11.444  23.248  0.00  0.00     0.032 C 
BRANCH  12  13
ATOM     13  C   UNL d   1     -48.615  11.474  22.713  0.00  0.00     0.063 C 
BRANCH  13  14
ATOM     14  C   UNL d   1     -49.373  11.663  22.977  0.00  0.00     0.265 C 
ATOM     15  N   UNL d   1     -49.840  12.192  22.548  0.00  0.00    -0.272 N 
ATOM     16  C   UNL d   1     -50.598  12.381  22.812  0.00  0.00     0.083 A 
ATOM     17  C   UNL d   1     -49.547  12.532  21.856  0.00  0.00     0.083 A 
ATOM     18  C   UNL d   1     -51.064  12.911  22.383  0.00  0.00     0.019 A 
ATOM     19  C   UNL d   1     -50.771  13.251  21.691  0.00  0.00     0.003 A 
ATOM     20  C   UNL d   1     -50.012  13.061  21.428  0.00  0.00     0.019 A 
ATOM     21  O   UNL d   1     -49.666  11.323  23.669  0.00  0.00    -0.267 OA
ENDBRANCH  13  14
ENDBRANCH  12  13
ENDBRANCH   1  12
TORSDOF 5
ENDMDL
