MODEL 1
REMARK VINA RESULT:      -6.4      0.000      0.000
REMARK  3 active torsions:
REMARK  status: ('A' for Active; 'I' for Inactive)
REMARK    1  A    between atoms: S_11  and  C_7 
REMARK    2  A    between atoms: C_12  and  S_11 
REMARK    3  A    between atoms: C_14  and  C_12 
ROOT
ATOM      1  N   UNL d   1     -41.730-122.322 -53.543  0.00  0.00    -0.167 N 
ATOM      2  C   UNL d   1     -41.328-123.035 -53.593  0.00  0.00     0.220 A 
ATOM      3  C   UNL d   1     -42.014-121.945 -54.225  0.00  0.00     0.301 A 
ATOM      4  S   UNL d   1     -41.123-123.261 -52.824  0.00  0.00    -0.019 SA
ATOM      5  N   UNL d   1     -41.777-122.101 -52.756  0.00  0.00    -0.147 NA
ATOM      6  N   UNL d   1     -41.201-123.387 -54.326  0.00  0.00    -0.121 NA
ATOM      7  C   UNL d   1     -41.401-122.683 -52.311  0.00  0.00     0.163 A 
ATOM      8  N   UNL d   1     -41.476-123.025 -55.010  0.00  0.00    -0.141 NA
ATOM      9  C   UNL d   1     -41.881-122.307 -54.960  0.00  0.00     0.161 A 
ATOM     10  O   UNL d   1     -42.415-121.235 -54.175  0.00  0.00    -0.263 OA
ATOM     11  C   UNL d   1     -42.159-121.941 -55.642  0.00  0.00     0.028 C 
ENDROOT
BRANCH   7  12
ATOM     12  S   UNL d   1     -41.316-122.687 -51.491  0.00  0.00    -0.059 SA
BRANCH  12  13
ATOM     13  C   UNL d   1     -41.976-122.640 -51.004  0.00  0.00     0.037 C 
BRANCH  13  14
ATOM     14  C   UNL d   1     -41.914-122.858 -50.208  0.00  0.00     0.006 A 
ATOM     15  C   UNL d   1     -42.593-123.055 -49.782  0.00  0.00     0.001 A 
ATOM     16  C   UNL d   1     -42.541-123.272 -48.994  0.00  0.00     0.000 A 
ATOM     17  C   UNL d   1     -43.214-123.466 -48.573  0.00  0.00     0.000 C 
ATOM     18  C   UNL d   1     -41.804-123.296 -48.620  0.00  0.00     0.000 A 
ATOM     19  C   UNL d   1     -41.123-123.100 -49.042  0.00  0.00     0.000 A 
ATOM     20  C   UNL d   1     -41.176-122.882 -49.835  0.00  0.00     0.001 A 
ENDBRANCH  13  14
ENDBRANCH  12  13
ENDBRANCH   7  12
TORSDOF 3
ENDMDL
MODEL 2
REMARK VINA RESULT:      -5.8      1.857      4.716
REMARK  3 active torsions:
REMARK  status: ('A' for Active; 'I' for Inactive)
REMARK    1  A    between atoms: S_11  and  C_7 
REMARK    2  A    between atoms: C_12  and  S_11 
REMARK    3  A    between atoms: C_14  and  C_12 
ROOT
ATOM      1  N   UNL d   1     -42.159-123.121 -50.390  0.00  0.00    -0.167 N 
ATOM      2  C   UNL d   1     -41.467-123.542 -50.260  0.00  0.00     0.220 A 
ATOM      3  C   UNL d   1     -42.637-122.882 -49.756  0.00  0.00     0.301 A 
ATOM      4  S   UNL d   1     -41.124-123.693 -50.997  0.00  0.00    -0.019 SA
ATOM      5  N   UNL d   1     -42.250-123.007 -51.196  0.00  0.00    -0.147 NA
ATOM      6  N   UNL d   1     -41.239-123.735 -49.493  0.00  0.00    -0.121 NA
ATOM      7  C   UNL d   1     -41.609-123.362 -51.571  0.00  0.00     0.163 A 
ATOM      8  N   UNL d   1     -41.703-123.505 -48.855  0.00  0.00    -0.141 NA
ATOM      9  C   UNL d   1     -42.398-123.081 -48.986  0.00  0.00     0.161 A 
ATOM     10  O   UNL d   1     -43.325-122.462 -49.886  0.00  0.00    -0.263 OA
ATOM     11  C   UNL d   1     -42.866-122.849 -48.350  0.00  0.00     0.028 C 
ENDROOT
BRANCH   7  12
ATOM     12  S   UNL d   1     -41.475-123.382 -52.385  0.00  0.00    -0.059 SA
BRANCH  12  13
ATOM     13  C   UNL d   1     -41.473-122.689 -52.824  0.00  0.00     0.037 C 
BRANCH  13  14
ATOM     14  C   UNL d   1     -41.495-122.727 -53.650  0.00  0.00     0.006 A 
ATOM     15  C   UNL d   1     -41.890-122.143 -54.078  0.00  0.00     0.001 A 
ATOM     16  C   UNL d   1     -41.917-122.173 -54.896  0.00  0.00     0.000 A 
ATOM     17  C   UNL d   1     -42.309-121.594 -55.320  0.00  0.00     0.000 C 
ATOM     18  C   UNL d   1     -41.545-122.792 -55.299  0.00  0.00     0.000 A 
ATOM     19  C   UNL d   1     -41.149-123.378 -54.875  0.00  0.00     0.000 A 
ATOM     20  C   UNL d   1     -41.123-123.347 -54.053  0.00  0.00     0.001 A 
ENDBRANCH  13  14
ENDBRANCH  12  13
ENDBRANCH   7  12
TORSDOF 3
ENDMDL
