MODEL 1
REMARK VINA RESULT:      37.1      0.000      0.000
REMARK  3 active torsions:
REMARK  status: ('A' for Active; 'I' for Inactive)
REMARK    1  A    between atoms: N_3  and  C_1 
REMARK       I    between atoms: C_5  and  N_3 
REMARK    2  A    between atoms: C_9  and  C_5 
REMARK    3  A    between atoms: O_22  and  C_20 
ROOT
ATOM      1  N   UNL d   1     -54.756-100.990 -41.352  0.00  0.00    -0.183 NA
ATOM      2  C   UNL d   1     -54.759-101.473 -42.022  0.00  0.00     0.281 C 
ATOM      3  O   UNL d   1     -54.752-102.312 -41.931  0.00  0.00    -0.265 OA
ENDROOT
BRANCH   1   4
ATOM      4  C   UNL d   1     -54.747-101.318 -40.596  0.00  0.00     0.197 A 
ATOM      5  N   UNL d   1     -54.733-102.132 -40.431  0.00  0.00    -0.221 NA
ATOM      6  C   UNL d   1     -54.727-102.211 -39.604  0.00  0.00     0.090 A 
ATOM      7  C   UNL d   1     -54.714-102.880 -39.122  0.00  0.00     0.022 A 
ATOM      8  C   UNL d   1     -54.737-101.453 -39.277  0.00  0.00     0.052 A 
ATOM      9  C   UNL d   1     -54.711-102.778 -38.297  0.00  0.00     0.026 A 
ATOM     10  C   UNL d   1     -54.721-102.029 -37.973  0.00  0.00     0.095 A 
ATOM     11  C   UNL d   1     -54.734-101.351 -38.452  0.00  0.00     0.032 A 
ATOM     12  S   UNL d   1     -54.749-100.917 -39.892  0.00  0.00    -0.047 SA
BRANCH  10  13
ATOM     13  O   UNL d   1     -54.718-101.917 -37.124  0.00  0.00    -0.328 OA
ATOM     14  C   UNL d   1     -55.230-102.384 -36.650  0.00  0.00     0.181 C 
ENDBRANCH  10  13
ENDBRANCH   1   4
BRANCH   2  15
ATOM     15  C   UNL d   1     -54.768-101.145 -42.779  0.00  0.00     0.059 A 
ATOM     16  C   UNL d   1     -54.737-100.329 -42.868  0.00  0.00     0.013 A 
ATOM     17  C   UNL d   1     -54.746 -99.991 -43.614  0.00  0.00     0.049 A 
ATOM     18  S   UNL d   1     -54.721 -99.201 -43.869  0.00  0.00    -0.064 SA
ATOM     19  C   UNL d   1     -54.786-100.483 -44.294  0.00  0.00     0.088 A 
ATOM     20  C   UNL d   1     -54.747 -99.215 -44.699  0.00  0.00     0.135 A 
ATOM     21  N   UNL d   1     -54.786 -99.990 -44.968  0.00  0.00    -0.236 NA
ATOM     22  C   UNL d   1     -54.818-101.309 -44.217  0.00  0.00     0.020 A 
ATOM     23  C   UNL d   1     -54.809-101.636 -43.459  0.00  0.00     0.006 A 
ENDBRANCH   2  15
TORSDOF 3
ENDMDL
MODEL 2
REMARK VINA RESULT:      38.1      0.905      1.291
REMARK  3 active torsions:
REMARK  status: ('A' for Active; 'I' for Inactive)
REMARK    1  A    between atoms: N_3  and  C_1 
REMARK       I    between atoms: C_5  and  N_3 
REMARK    2  A    between atoms: C_9  and  C_5 
REMARK    3  A    between atoms: O_22  and  C_20 
ROOT
ATOM      1  N   UNL d   1     -54.797-102.084 -40.458  0.00  0.00    -0.183 NA
ATOM      2  C   UNL d   1     -54.793-101.386 -40.898  0.00  0.00     0.281 C 
ATOM      3  O   UNL d   1     -54.804-100.642 -40.499  0.00  0.00    -0.265 OA
ENDROOT
BRANCH   1   4
ATOM      4  C   UNL d   1     -54.812-102.064 -39.634  0.00  0.00     0.197 A 
ATOM      5  N   UNL d   1     -54.927-102.726 -39.146  0.00  0.00    -0.221 NA
ATOM      6  C   UNL d   1     -54.901-102.455 -38.360  0.00  0.00     0.090 A 
ATOM      7  C   UNL d   1     -54.980-102.856 -37.644  0.00  0.00     0.022 A 
ATOM      8  C   UNL d   1     -54.772-101.640 -38.378  0.00  0.00     0.052 A 
ATOM      9  C   UNL d   1     -54.928-102.423 -36.936  0.00  0.00     0.026 A 
ATOM     10  C   UNL d   1     -54.800-101.617 -36.953  0.00  0.00     0.095 A 
ATOM     11  C   UNL d   1     -54.719-101.207 -37.670  0.00  0.00     0.032 A 
ATOM     12  S   UNL d   1     -54.719-101.413 -39.160  0.00  0.00    -0.047 SA
BRANCH  10  13
ATOM     13  O   UNL d   1     -54.744-101.165 -36.228  0.00  0.00    -0.328 OA
ATOM     14  C   UNL d   1     -54.762-101.572 -35.493  0.00  0.00     0.181 C 
ENDBRANCH  10  13
ENDBRANCH   1   4
BRANCH   2  15
ATOM     15  C   UNL d   1     -54.778-101.405 -41.722  0.00  0.00     0.059 A 
ATOM     16  C   UNL d   1     -54.764-100.700 -42.144  0.00  0.00     0.013 A 
ATOM     17  C   UNL d   1     -54.749-100.706 -42.963  0.00  0.00     0.049 A 
ATOM     18  S   UNL d   1     -54.733-100.094 -43.525  0.00  0.00    -0.064 SA
ATOM     19  C   UNL d   1     -54.748-101.438 -43.375  0.00  0.00     0.088 A 
ATOM     20  C   UNL d   1     -54.723-100.455 -44.273  0.00  0.00     0.135 A 
ATOM     21  N   UNL d   1     -54.732-101.272 -44.194  0.00  0.00    -0.236 NA
ATOM     22  C   UNL d   1     -54.762-102.156 -42.960  0.00  0.00     0.020 A 
ATOM     23  C   UNL d   1     -54.777-102.136 -42.135  0.00  0.00     0.006 A 
ENDBRANCH   2  15
TORSDOF 3
ENDMDL
