MODEL 1
REMARK VINA RESULT:      -6.1      0.000      0.000
REMARK  5 active torsions:
REMARK  status: ('A' for Active; 'I' for Inactive)
REMARK    1  A    between atoms: C_4  and  S_1 
REMARK    2  A    between atoms: N_6  and  S_1 
REMARK    3  A    between atoms: C_3  and  C_2 
REMARK    4  A    between atoms: C_10  and  N_6 
REMARK    5  A    between atoms: C_17  and  C_10 
ROOT
ATOM      1  C   UNL d   1     -41.790-122.522 -53.836  0.00  0.00     0.083 A 
ATOM      2  C   UNL d   1     -41.456-122.277 -52.462  0.00  0.00     0.105 A 
ATOM      3  C   UNL d   1     -41.790-122.020 -53.173  0.00  0.00     0.018 A 
ATOM      4  C   UNL d   1     -41.455-123.275 -53.783  0.00  0.00     0.062 A 
ATOM      5  C   UNL d   1     -41.124-123.027 -52.412  0.00  0.00     0.014 A 
ATOM      6  C   UNL d   1     -41.123-123.528 -53.076  0.00  0.00     0.012 A 
ATOM      7 CL   UNL d   1     -41.455-123.772 -54.441  0.00  0.00    -0.082 Cl
ENDROOT
BRANCH   2   8
ATOM      8  S   UNL d   1     -41.452-121.786 -51.800  0.00  0.00     0.285 S 
ATOM      9  O   UNL d   1     -41.452-121.306 -51.142  0.00  0.00    -0.198 OA
ATOM     10  O   UNL d   1     -41.123-121.184 -52.239  0.00  0.00    -0.198 OA
BRANCH   8  11
ATOM     11  N   UNL d   1     -41.786-122.393 -51.353  0.00  0.00    -0.155 NA
BRANCH  11  12
ATOM     12  C   UNL d   1     -41.896-122.295 -50.537  0.00  0.00     0.137 C 
BRANCH  12  13
ATOM     13  C   UNL d   1     -42.301-122.869 -50.107  0.00  0.00     0.120 A 
ATOM     14  O   UNL d   1     -43.034-123.209 -50.294  0.00  0.00    -0.304 OA
ATOM     15  C   UNL d   1     -43.218-123.752 -49.711  0.00  0.00     0.123 A 
ATOM     16  C   UNL d   1     -42.612-123.760 -49.159  0.00  0.00     0.029 A 
ATOM     17  C   UNL d   1     -42.041-123.215 -49.400  0.00  0.00     0.028 A 
ENDBRANCH  12  13
ENDBRANCH  11  12
ENDBRANCH   8  11
ENDBRANCH   2   8
BRANCH   1  18
ATOM     18  C   UNL d   1     -42.122-122.269 -54.544  0.00  0.00     0.420 C 
ATOM     19  F   UNL d   1     -41.728-121.969 -55.254  0.00  0.00    -0.166 F 
ATOM     20  F   UNL d   1     -42.426-122.034 -55.199  0.00  0.00    -0.166 F 
ATOM     21  F   UNL d   1     -42.949-122.231 -54.776  0.00  0.00    -0.166 F 
ENDBRANCH   1  18
TORSDOF 5
ENDMDL
MODEL 2
REMARK VINA RESULT:      -5.1      2.560      3.958
REMARK  5 active torsions:
REMARK  status: ('A' for Active; 'I' for Inactive)
REMARK    1  A    between atoms: C_4  and  S_1 
REMARK    2  A    between atoms: N_6  and  S_1 
REMARK    3  A    between atoms: C_3  and  C_2 
REMARK    4  A    between atoms: C_10  and  N_6 
REMARK    5  A    between atoms: C_17  and  C_10 
ROOT
ATOM      1  C   UNL d   1     -42.506-122.656 -50.005  0.00  0.00     0.083 A 
ATOM      2  C   UNL d   1     -41.614-122.245 -51.051  0.00  0.00     0.105 A 
ATOM      3  C   UNL d   1     -42.307-122.129 -50.616  0.00  0.00     0.018 A 
ATOM      4  C   UNL d   1     -42.011-123.295 -49.833  0.00  0.00     0.062 A 
ATOM      5  C   UNL d   1     -41.123-122.881 -50.878  0.00  0.00     0.014 A 
ATOM      6  C   UNL d   1     -41.322-123.408 -50.267  0.00  0.00     0.012 A 
ATOM      7 CL   UNL d   1     -42.209-123.817 -49.228  0.00  0.00    -0.082 Cl
ENDROOT
BRANCH   2   8
ATOM      8  S   UNL d   1     -41.409-121.726 -51.658  0.00  0.00     0.285 S 
ATOM      9  O   UNL d   1     -41.209-121.219 -52.264  0.00  0.00    -0.198 OA
ATOM     10  O   UNL d   1     -41.227-121.148 -51.113  0.00  0.00    -0.198 OA
BRANCH   8  11
ATOM     11  N   UNL d   1     -41.592-122.309 -52.211  0.00  0.00    -0.155 NA
BRANCH  11  12
ATOM     12  C   UNL d   1     -41.771-122.097 -52.993  0.00  0.00     0.137 C 
BRANCH  12  13
ATOM     13  C   UNL d   1     -41.726-122.663 -53.590  0.00  0.00     0.120 A 
ATOM     14  O   UNL d   1     -41.958-123.458 -53.544  0.00  0.00    -0.304 OA
ATOM     15  C   UNL d   1     -41.811-123.808 -54.269  0.00  0.00     0.123 A 
ATOM     16  C   UNL d   1     -41.490-123.245 -54.771  0.00  0.00     0.029 A 
ATOM     17  C   UNL d   1     -41.435-122.534 -54.356  0.00  0.00     0.028 A 
ENDBRANCH  12  13
ENDBRANCH  11  12
ENDBRANCH   8  11
ENDBRANCH   2   8
BRANCH   1  18
ATOM     18  C   UNL d   1     -43.195-122.543 -49.571  0.00  0.00     0.420 C 
ATOM     19  F   UNL d   1     -44.017-122.662 -49.813  0.00  0.00    -0.166 F 
ATOM     20  F   UNL d   1     -43.833-122.438 -49.172  0.00  0.00    -0.166 F 
ATOM     21  F   UNL d   1     -43.291-122.274 -48.760  0.00  0.00    -0.166 F 
ENDBRANCH   1  18
TORSDOF 5
ENDMDL
