MODEL 1
REMARK VINA RESULT:      -5.0      0.000      0.000
REMARK  4 active torsions:
REMARK  status: ('A' for Active; 'I' for Inactive)
REMARK    1  A    between atoms: C_5  and  C_1 
REMARK    2  A    between atoms: O_9  and  C_5 
REMARK    3  A    between atoms: C_18  and  O_9 
REMARK       I    between atoms: C_11  and  N_14 
REMARK    4  A    between atoms: N_14  and  C_20 
ROOT
ATOM      1  C   UNL d   1     -42.219-122.749 -50.100  0.00  0.00     0.127 A 
ATOM      2  C   UNL d   1     -43.002-122.973 -50.001  0.00  0.00     0.305 A 
ATOM      3  O   UNL d   1     -43.253-123.253 -49.267  0.00  0.00    -0.272 OA
ATOM      4  C   UNL d   1     -41.677-122.802 -49.471  0.00  0.00     0.013 A 
ATOM      5  C   UNL d   1     -41.935-123.084 -48.738  0.00  0.00     0.024 A 
ATOM      6  C   UNL d   1     -42.721-123.311 -48.630  0.00  0.00     0.110 A 
ATOM      7  C   UNL d   1     -42.983-123.593 -47.901  0.00  0.00     0.058 A 
ATOM      8  C   UNL d   1     -42.452-123.649 -47.271  0.00  0.00     0.015 A 
ATOM      9  C   UNL d   1     -41.406-123.143 -48.101  0.00  0.00     0.009 A 
ATOM     10  O   UNL d   1     -43.529-122.916 -50.630  0.00  0.00    -0.259 OA
ATOM     11  C   UNL d   1     -41.661-123.423 -47.372  0.00  0.00     0.035 A 
ATOM     12 BR   UNL d   1     -43.769-123.817 -47.801  0.00  0.00    -0.047 Br
ATOM     13 BR   UNL d   1     -41.132-123.479 -46.744  0.00  0.00    -0.049 Br
ENDROOT
BRANCH   1  14
ATOM     14  C   UNL d   1     -41.956-122.467 -50.830  0.00  0.00     0.305 C 
ATOM     15  O   UNL d   1     -42.190-121.720 -51.081  0.00  0.00    -0.259 OA
BRANCH  14  16
ATOM     16  O   UNL d   1     -41.462-122.926 -51.309  0.00  0.00    -0.273 OA
BRANCH  16  17
ATOM     17  C   UNL d   1     -41.417-122.782 -52.116  0.00  0.00     0.103 A 
ATOM     18  C   UNL d   1     -41.270-122.020 -52.393  0.00  0.00     0.026 A 
ATOM     19  C   UNL d   1     -41.224-121.870 -53.196  0.00  0.00     0.021 A 
ATOM     20  C   UNL d   1     -41.324-122.484 -53.738  0.00  0.00     0.085 A 
ATOM     21  C   UNL d   1     -41.471-123.254 -53.470  0.00  0.00     0.021 A 
ATOM     22  C   UNL d   1     -41.518-123.403 -52.650  0.00  0.00     0.026 A 
BRANCH  20  23
ATOM     23  N   UNL d   1     -41.278-122.342 -54.550  0.00  0.00    -0.208 NA
ATOM     24  C   UNL d   1     -41.943-122.054 -54.950  0.00  0.00     0.279 C 
ATOM     25  O   UNL d   1     -42.649-121.908 -54.541  0.00  0.00    -0.265 OA
ATOM     26  C   UNL d   1     -41.906-121.908 -55.767  0.00  0.00     0.068 C 
ENDBRANCH  20  23
ENDBRANCH  16  17
ENDBRANCH  14  16
ENDBRANCH   1  14
TORSDOF 4
ENDMDL
MODEL 2
REMARK VINA RESULT:      -2.3      2.735      5.563
REMARK  4 active torsions:
REMARK  status: ('A' for Active; 'I' for Inactive)
REMARK    1  A    between atoms: C_5  and  C_1 
REMARK    2  A    between atoms: O_9  and  C_5 
REMARK    3  A    between atoms: C_18  and  O_9 
REMARK       I    between atoms: C_11  and  N_14 
REMARK    4  A    between atoms: N_14  and  C_20 
ROOT
ATOM      1  C   UNL d   1     -41.685-122.524 -52.426  0.00  0.00     0.127 A 
ATOM      2  C   UNL d   1     -41.376-123.250 -52.651  0.00  0.00     0.305 A 
ATOM      3  O   UNL d   1     -41.314-123.433 -53.453  0.00  0.00    -0.272 OA
ATOM      4  C   UNL d   1     -41.934-121.971 -52.995  0.00  0.00     0.013 A 
ATOM      5  C   UNL d   1     -41.869-122.160 -53.798  0.00  0.00     0.024 A 
ATOM      6  C   UNL d   1     -41.560-122.889 -54.032  0.00  0.00     0.110 A 
ATOM      7  C   UNL d   1     -41.494-123.081 -54.831  0.00  0.00     0.058 A 
ATOM      8  C   UNL d   1     -41.739-122.539 -55.403  0.00  0.00     0.015 A 
ATOM      9  C   UNL d   1     -42.114-121.619 -54.378  0.00  0.00     0.009 A 
ATOM     10  O   UNL d   1     -41.133-123.789 -52.079  0.00  0.00    -0.259 OA
ATOM     11  C   UNL d   1     -42.050-121.805 -55.175  0.00  0.00     0.035 A 
ATOM     12 BR   UNL d   1     -41.185-123.810 -55.057  0.00  0.00    -0.047 Br
ATOM     13 BR   UNL d   1     -42.295-121.264 -55.745  0.00  0.00    -0.049 Br
ENDROOT
BRANCH   1  14
ATOM     14  C   UNL d   1     -41.752-122.330 -51.626  0.00  0.00     0.305 C 
ATOM     15  O   UNL d   1     -41.124-121.959 -51.248  0.00  0.00    -0.259 OA
BRANCH  14  16
ATOM     16  O   UNL d   1     -42.441-122.505 -51.204  0.00  0.00    -0.273 OA
BRANCH  16  17
ATOM     17  C   UNL d   1     -42.396-122.767 -50.427  0.00  0.00     0.103 A 
ATOM     18  C   UNL d   1     -41.744-122.575 -49.962  0.00  0.00     0.026 A 
ATOM     19  C   UNL d   1     -41.694-122.831 -49.187  0.00  0.00     0.021 A 
ATOM     20  C   UNL d   1     -42.300-123.288 -48.863  0.00  0.00     0.085 A 
ATOM     21  C   UNL d   1     -42.961-123.488 -49.322  0.00  0.00     0.021 A 
ATOM     22  C   UNL d   1     -43.008-123.223 -50.112  0.00  0.00     0.026 A 
BRANCH  20  23
ATOM     23  N   UNL d   1     -42.258-123.553 -48.082  0.00  0.00    -0.208 NA
ATOM     24  C   UNL d   1     -42.395-123.019 -47.464  0.00  0.00     0.279 C 
ATOM     25  O   UNL d   1     -42.573-122.226 -47.626  0.00  0.00    -0.265 OA
ATOM     26  C   UNL d   1     -42.355-123.277 -46.676  0.00  0.00     0.068 C 
ENDBRANCH  20  23
ENDBRANCH  16  17
ENDBRANCH  14  16
ENDBRANCH   1  14
TORSDOF 4
ENDMDL
