MODEL 1
REMARK VINA RESULT:      -3.2      0.000      0.000
REMARK  4 active torsions:
REMARK  status: ('A' for Active; 'I' for Inactive)
REMARK    1  A    between atoms: N_8  and  C_1 
REMARK    2  A    between atoms: C_13  and  N_4 
REMARK    3  A    between atoms: C_6  and  N_8 
REMARK    4  A    between atoms: C_14  and  C_9 
ROOT
ATOM      1  C   UNL d   1      32.390  17.175 -24.160  0.00  0.00     0.135 A 
ATOM      2  C   UNL d   1      31.625  17.275 -24.468  0.00  0.00     0.296 A 
ATOM      3  N   UNL d   1      31.614  16.227 -23.647  0.00  0.00    -0.238 N 
ATOM      4  N   UNL d   1      31.147  16.687 -24.149  0.00  0.00    -0.209 N 
ATOM      5  C   UNL d   1      32.371  16.533 -23.661  0.00  0.00     0.102 A 
ATOM      6  O   UNL d   1      31.392  17.856 -24.995  0.00  0.00    -0.264 OA
ATOM      7  C   UNL d   1      31.360  15.579 -23.213  0.00  0.00     0.120 C 
ATOM      8  C   UNL d   1      33.017  16.233 -23.231  0.00  0.00     0.022 C 
ENDROOT
BRANCH   1   9
ATOM      9  N   UNL d   1      33.045  17.646 -24.335  0.00  0.00    -0.329 N 
ATOM     10  H   UNL d   1      33.644  17.351 -24.824  0.00  0.00     0.168 HD
BRANCH   9  11
ATOM     11  C   UNL d   1      33.104  18.401 -24.027  0.00  0.00     0.172 A 
ATOM     12  N   UNL d   1      33.084  18.607 -23.235  0.00  0.00    -0.222 NA
ATOM     13  C   UNL d   1      33.163  19.429 -23.182  0.00  0.00     0.090 A 
ATOM     14  C   UNL d   1      33.230  19.724 -23.941  0.00  0.00     0.057 A 
ATOM     15  S   UNL d   1      33.194  19.088 -24.471  0.00  0.00    -0.048 SA
BRANCH  13  16
ATOM     16  C   UNL d   1      33.170  19.865 -22.485  0.00  0.00     0.018 A 
ATOM     17  C   UNL d   1      33.234  19.490 -21.752  0.00  0.00     0.002 A 
ATOM     18  C   UNL d   1      33.241  19.936 -21.061  0.00  0.00     0.000 A 
ATOM     19  C   UNL d   1      33.184  20.752 -21.101  0.00  0.00     0.000 A 
ATOM     20  C   UNL d   1      33.121  21.129 -21.816  0.00  0.00     0.000 A 
ATOM     21  C   UNL d   1      33.113  20.695 -22.520  0.00  0.00     0.002 A 
ENDBRANCH  13  16
ENDBRANCH   9  11
ENDBRANCH   1   9
BRANCH   4  22
ATOM     22  C   UNL d   1      30.349  16.575 -24.299  0.00  0.00     0.085 A 
ATOM     23  C   UNL d   1      30.107  16.136 -24.954  0.00  0.00     0.019 A 
ATOM     24  C   UNL d   1      29.303  16.028 -25.097  0.00  0.00     0.002 A 
ATOM     25  C   UNL d   1      28.744  16.357 -24.588  0.00  0.00     0.000 A 
ATOM     26  C   UNL d   1      28.986  16.797 -23.933  0.00  0.00     0.002 A 
ATOM     27  C   UNL d   1      29.786  16.907 -23.786  0.00  0.00     0.019 A 
ENDBRANCH   4  22
TORSDOF 4
ENDMDL
MODEL 2
REMARK VINA RESULT:      -2.5      1.169      1.869
REMARK  4 active torsions:
REMARK  status: ('A' for Active; 'I' for Inactive)
REMARK    1  A    between atoms: N_8  and  C_1 
REMARK    2  A    between atoms: C_13  and  N_4 
REMARK    3  A    between atoms: C_6  and  N_8 
REMARK    4  A    between atoms: C_14  and  C_9 
ROOT
ATOM      1  C   UNL d   1      30.925  17.432 -24.609  0.00  0.00     0.135 A 
ATOM      2  C   UNL d   1      30.533  16.772 -24.291  0.00  0.00     0.296 A 
ATOM      3  N   UNL d   1      29.627  17.708 -24.563  0.00  0.00    -0.238 N 
ATOM      4  N   UNL d   1      29.730  16.946 -24.264  0.00  0.00    -0.209 N 
ATOM      5  C   UNL d   1      30.362  17.996 -24.771  0.00  0.00     0.102 A 
ATOM      6  O   UNL d   1      30.887  16.075 -24.050  0.00  0.00    -0.264 OA
ATOM      7  C   UNL d   1      28.913  18.104 -24.636  0.00  0.00     0.120 C 
ATOM      8  C   UNL d   1      30.508  18.747 -25.096  0.00  0.00     0.022 C 
ENDROOT
BRANCH   1   9
ATOM      9  N   UNL d   1      31.738  17.494 -24.735  0.00  0.00    -0.329 N 
ATOM     10  H   UNL d   1      32.059  17.271 -25.465  0.00  0.00     0.168 HD
BRANCH   9  11
ATOM     11  C   UNL d   1      32.227  17.775 -24.142  0.00  0.00     0.172 A 
ATOM     12  N   UNL d   1      32.183  18.508 -23.780  0.00  0.00    -0.222 NA
ATOM     13  C   UNL d   1      32.785  18.552 -23.215  0.00  0.00     0.090 A 
ATOM     14  C   UNL d   1      33.197  17.847 -23.233  0.00  0.00     0.057 A 
ATOM     15  S   UNL d   1      32.854  17.359 -23.809  0.00  0.00    -0.048 SA
BRANCH  13  16
ATOM     16  C   UNL d   1      32.936  19.195 -22.727  0.00  0.00     0.018 A 
ATOM     17  C   UNL d   1      32.947  19.111 -21.906  0.00  0.00     0.002 A 
ATOM     18  C   UNL d   1      33.099  19.762 -21.427  0.00  0.00     0.000 A 
ATOM     19  C   UNL d   1      33.240  20.494 -21.765  0.00  0.00     0.000 A 
ATOM     20  C   UNL d   1      33.232  20.587 -22.571  0.00  0.00     0.000 A 
ATOM     21  C   UNL d   1      33.081  19.943 -23.067  0.00  0.00     0.002 A 
ENDBRANCH  13  16
ENDBRANCH   9  11
ENDBRANCH   1   9
BRANCH   4  22
ATOM     22  C   UNL d   1      29.135  16.453 -23.989  0.00  0.00     0.085 A 
ATOM     23  C   UNL d   1      28.940  16.444 -23.187  0.00  0.00     0.019 A 
ATOM     24  C   UNL d   1      28.341  15.945 -22.921  0.00  0.00     0.002 A 
ATOM     25  C   UNL d   1      27.939  15.459 -23.452  0.00  0.00     0.000 A 
ATOM     26  C   UNL d   1      28.135  15.468 -24.254  0.00  0.00     0.002 A 
ATOM     27  C   UNL d   1      28.732  15.963 -24.525  0.00  0.00     0.019 A 
ENDBRANCH   4  22
TORSDOF 4
ENDMDL
MODEL 3
REMARK VINA RESULT:      -1.9      1.063      4.606
REMARK  4 active torsions:
REMARK  status: ('A' for Active; 'I' for Inactive)
REMARK    1  A    between atoms: N_8  and  C_1 
REMARK    2  A    between atoms: C_13  and  N_4 
REMARK    3  A    between atoms: C_6  and  N_8 
REMARK    4  A    between atoms: C_14  and  C_9 
ROOT
ATOM      1  C   UNL d   1      33.208  18.263 -23.760  0.00  0.00     0.135 A 
ATOM      2  C   UNL d   1      33.197  18.561 -22.984  0.00  0.00     0.296 A 
ATOM      3  N   UNL d   1      33.222  19.589 -23.830  0.00  0.00    -0.238 N 
ATOM      4  N   UNL d   1      33.206  19.382 -23.031  0.00  0.00    -0.209 N 
ATOM      5  C   UNL d   1      33.223  18.899 -24.267  0.00  0.00     0.102 A 
ATOM      6  O   UNL d   1      33.180  18.115 -22.299  0.00  0.00    -0.264 OA
ATOM      7  C   UNL d   1      33.236  20.352 -24.129  0.00  0.00     0.120 C 
ATOM      8  C   UNL d   1      33.238  18.857 -25.097  0.00  0.00     0.022 C 
ENDROOT
BRANCH   1   9
ATOM      9  N   UNL d   1      33.203  17.464 -23.968  0.00  0.00    -0.329 N 
ATOM     10  H   UNL d   1      33.912  17.037 -23.970  0.00  0.00     0.168 HD
BRANCH   9  11
ATOM     11  C   UNL d   1      32.503  17.095 -24.173  0.00  0.00     0.172 A 
ATOM     12  N   UNL d   1      31.855  16.977 -23.687  0.00  0.00    -0.222 NA
ATOM     13  C   UNL d   1      31.274  16.582 -24.125  0.00  0.00     0.090 A 
ATOM     14  C   UNL d   1      31.569  16.459 -24.877  0.00  0.00     0.057 A 
ATOM     15  S   UNL d   1      32.333  16.777 -24.913  0.00  0.00    -0.048 SA
BRANCH  13  16
ATOM     16  C   UNL d   1      30.536  16.356 -23.845  0.00  0.00     0.018 A 
ATOM     17  C   UNL d   1      30.461  15.764 -23.274  0.00  0.00     0.002 A 
ATOM     18  C   UNL d   1      29.716  15.546 -23.002  0.00  0.00     0.000 A 
ATOM     19  C   UNL d   1      29.048  15.917 -23.297  0.00  0.00     0.000 A 
ATOM     20  C   UNL d   1      29.112  16.499 -23.858  0.00  0.00     0.000 A 
ATOM     21  C   UNL d   1      29.853  16.730 -24.143  0.00  0.00     0.002 A 
ENDBRANCH  13  16
ENDBRANCH   9  11
ENDBRANCH   1   9
BRANCH   4  22
ATOM     22  C   UNL d   1      33.200  19.905 -22.399  0.00  0.00     0.085 A 
ATOM     23  C   UNL d   1      33.154  20.718 -22.533  0.00  0.00     0.019 A 
ATOM     24  C   UNL d   1      33.149  21.235 -21.892  0.00  0.00     0.002 A 
ATOM     25  C   UNL d   1      33.189  20.942 -21.122  0.00  0.00     0.000 A 
ATOM     26  C   UNL d   1      33.235  20.129 -20.989  0.00  0.00     0.002 A 
ATOM     27  C   UNL d   1      33.241  19.608 -21.625  0.00  0.00     0.019 A 
ENDBRANCH   4  22
TORSDOF 4
ENDMDL
MODEL 4
REMARK VINA RESULT:      -1.6      1.237      4.775
REMARK  4 active torsions:
REMARK  status: ('A' for Active; 'I' for Inactive)
REMARK    1  A    between atoms: N_8  and  C_1 
REMARK    2  A    between atoms: C_13  and  N_4 
REMARK    3  A    between atoms: C_6  and  N_8 
REMARK    4  A    between atoms: C_14  and  C_9 
ROOT
ATOM      1  C   UNL d   1      33.166  19.364 -23.184  0.00  0.00     0.135 A 
ATOM      2  C   UNL d   1      33.077  20.186 -23.267  0.00  0.00     0.296 A 
ATOM      3  N   UNL d   1      33.078  19.892 -21.968  0.00  0.00    -0.238 N 
ATOM      4  N   UNL d   1      33.022  20.509 -22.514  0.00  0.00    -0.209 N 
ATOM      5  C   UNL d   1      33.165  19.196 -22.389  0.00  0.00     0.102 A 
ATOM      6  O   UNL d   1      33.048  20.596 -23.974  0.00  0.00    -0.264 OA
ATOM      7  C   UNL d   1      33.049  19.965 -21.153  0.00  0.00     0.120 C 
ATOM      8  C   UNL d   1      33.241  18.440 -22.052  0.00  0.00     0.022 C 
ENDROOT
BRANCH   1   9
ATOM      9  N   UNL d   1      33.241  18.823 -23.803  0.00  0.00    -0.329 N 
ATOM     10  H   UNL d   1      33.994  18.586 -24.052  0.00  0.00     0.168 HD
BRANCH   9  11
ATOM     11  C   UNL d   1      32.576  18.522 -24.172  0.00  0.00     0.172 A 
ATOM     12  N   UNL d   1      32.070  17.952 -23.873  0.00  0.00    -0.222 NA
ATOM     13  C   UNL d   1      31.475  17.818 -24.432  0.00  0.00     0.090 A 
ATOM     14  C   UNL d   1      31.618  18.306 -25.071  0.00  0.00     0.057 A 
ATOM     15  S   UNL d   1      32.303  18.747 -24.914  0.00  0.00    -0.048 SA
BRANCH  13  16
ATOM     16  C   UNL d   1      30.854  17.286 -24.351  0.00  0.00     0.018 A 
ATOM     17  C   UNL d   1      30.995  16.473 -24.306  0.00  0.00     0.002 A 
ATOM     18  C   UNL d   1      30.366  15.950 -24.225  0.00  0.00     0.000 A 
ATOM     19  C   UNL d   1      29.599  16.236 -24.190  0.00  0.00     0.000 A 
ATOM     20  C   UNL d   1      29.451  17.032 -24.234  0.00  0.00     0.000 A 
ATOM     21  C   UNL d   1      30.072  17.571 -24.315  0.00  0.00     0.002 A 
ENDBRANCH  13  16
ENDBRANCH   9  11
ENDBRANCH   1   9
BRANCH   4  22
ATOM     22  C   UNL d   1      32.930  21.304 -22.331  0.00  0.00     0.085 A 
ATOM     23  C   UNL d   1      33.236  21.884 -22.831  0.00  0.00     0.019 A 
ATOM     24  C   UNL d   1      33.138  22.678 -22.639  0.00  0.00     0.002 A 
ATOM     25  C   UNL d   1      32.736  22.893 -21.952  0.00  0.00     0.000 A 
ATOM     26  C   UNL d   1      32.430  22.313 -21.452  0.00  0.00     0.002 A 
ATOM     27  C   UNL d   1      32.525  21.518 -21.638  0.00  0.00     0.019 A 
ENDBRANCH   4  22
TORSDOF 4
ENDMDL
