MODEL 1
REMARK VINA RESULT:       2.2      0.000      0.000
REMARK  7 active torsions:
REMARK  status: ('A' for Active; 'I' for Inactive)
REMARK    1  A    between atoms: C_2  and  C_1 
REMARK       I    between atoms: N_8  and  C_1 
REMARK    2  A    between atoms: C_5  and  C_2 
REMARK    3  A    between atoms: C_6  and  C_2 
REMARK    4  A    between atoms: N_3  and  C_9 
REMARK    5  A    between atoms: C_13  and  N_8 
REMARK    6  A    between atoms: C_9  and  C_10 
REMARK    7  A    between atoms: C_10  and  C_13 
ROOT
ATOM      1  C   UNL d   1      31.988  17.751 -24.213  0.00  0.00     0.058 C 
ENDROOT
BRANCH   1   2
ATOM      2  C   UNL d   1      31.242  17.917 -24.561  0.00  0.00     0.279 C 
ATOM      3  O   UNL d   1      31.124  18.674 -24.915  0.00  0.00    -0.265 OA
ATOM      4  N   UNL d   1      30.630  17.346 -24.556  0.00  0.00    -0.206 NA
BRANCH   4   5
ATOM      5  C   UNL d   1      29.902  17.517 -24.899  0.00  0.00     0.104 C 
BRANCH   5   6
ATOM      6  C   UNL d   1      29.285  16.979 -24.866  0.00  0.00     0.040 C 
BRANCH   6   7
ATOM      7  C   UNL d   1      28.551  17.215 -24.602  0.00  0.00     0.082 C 
BRANCH   7   8
ATOM      8  N   UNL d   1      28.167  16.762 -24.050  0.00  0.00    -0.299 N 
ATOM      9  C   UNL d   1      27.810  17.107 -23.387  0.00  0.00     0.107 A 
ATOM     10  C   UNL d   1      27.419  16.636 -22.828  0.00  0.00     0.142 A 
ATOM     11  O   UNL d   1      27.387  15.804 -22.938  0.00  0.00    -0.300 OA
ATOM     12  C   UNL d   1      27.742  15.453 -23.600  0.00  0.00     0.142 A 
ATOM     13  C   UNL d   1      28.130  15.930 -24.152  0.00  0.00     0.107 A 
ENDBRANCH   7   8
ENDBRANCH   6   7
ENDBRANCH   5   6
ENDBRANCH   4   5
ENDBRANCH   1   2
BRANCH   1  14
ATOM     14  C   UNL d   1      32.371  18.321 -23.763  0.00  0.00     0.005 A 
ATOM     15  C   UNL d   1      32.513  19.056 -24.105  0.00  0.00     0.000 A 
ATOM     16  C   UNL d   1      32.896  19.642 -23.671  0.00  0.00     0.000 A 
ATOM     17  C   UNL d   1      33.142  19.464 -22.852  0.00  0.00     0.000 A 
ATOM     18  C   UNL d   1      32.985  18.714 -22.535  0.00  0.00     0.000 A 
ATOM     19  C   UNL d   1      32.601  18.138 -22.983  0.00  0.00     0.000 A 
ENDBRANCH   1  14
BRANCH   1  20
ATOM     20  C   UNL d   1      32.317  17.005 -24.340  0.00  0.00     0.005 A 
ATOM     21  C   UNL d   1      32.910  16.904 -24.892  0.00  0.00     0.000 A 
ATOM     22  C   UNL d   1      33.241  16.153 -25.018  0.00  0.00     0.000 A 
ATOM     23  C   UNL d   1      32.959  15.498 -24.574  0.00  0.00     0.000 A 
ATOM     24  C   UNL d   1      32.361  15.616 -24.022  0.00  0.00     0.000 A 
ATOM     25  C   UNL d   1      32.041  16.364 -23.905  0.00  0.00     0.000 A 
ENDBRANCH   1  20
TORSDOF 7
ENDMDL
MODEL 2
REMARK VINA RESULT:       2.2      3.559      5.896
REMARK  7 active torsions:
REMARK  status: ('A' for Active; 'I' for Inactive)
REMARK    1  A    between atoms: C_2  and  C_1 
REMARK       I    between atoms: N_8  and  C_1 
REMARK    2  A    between atoms: C_5  and  C_2 
REMARK    3  A    between atoms: C_6  and  C_2 
REMARK    4  A    between atoms: N_3  and  C_9 
REMARK    5  A    between atoms: C_13  and  N_8 
REMARK    6  A    between atoms: C_9  and  C_10 
REMARK    7  A    between atoms: C_10  and  C_13 
ROOT
ATOM      1  C   UNL d   1      32.618  22.225 -21.016  0.00  0.00     0.058 C 
ENDROOT
BRANCH   1   2
ATOM      2  C   UNL d   1      32.789  21.408 -21.098  0.00  0.00     0.279 C 
ATOM      3  O   UNL d   1      33.241  21.030 -20.493  0.00  0.00    -0.265 OA
ATOM      4  N   UNL d   1      32.517  20.977 -21.763  0.00  0.00    -0.206 NA
BRANCH   4   5
ATOM      5  C   UNL d   1      32.689  20.176 -21.834  0.00  0.00     0.104 C 
BRANCH   5   6
ATOM      6  C   UNL d   1      32.674  19.807 -22.566  0.00  0.00     0.040 C 
BRANCH   6   7
ATOM      7  C   UNL d   1      32.498  19.013 -22.619  0.00  0.00     0.082 C 
BRANCH   7   8
ATOM      8  N   UNL d   1      32.571  18.641 -23.337  0.00  0.00    -0.299 N 
ATOM      9  C   UNL d   1      33.078  17.993 -23.434  0.00  0.00     0.107 A 
ATOM     10  C   UNL d   1      33.145  17.620 -24.170  0.00  0.00     0.142 A 
ATOM     11  O   UNL d   1      32.695  17.903 -24.821  0.00  0.00    -0.300 OA
ATOM     12  C   UNL d   1      32.186  18.551 -24.730  0.00  0.00     0.142 A 
ATOM     13  C   UNL d   1      32.125  18.917 -23.992  0.00  0.00     0.107 A 
ENDBRANCH   7   8
ENDBRANCH   6   7
ENDBRANCH   5   6
ENDBRANCH   4   5
ENDBRANCH   1   2
BRANCH   1  14
ATOM     14  C   UNL d   1      32.508  22.553 -20.271  0.00  0.00     0.005 A 
ATOM     15  C   UNL d   1      31.915  22.241 -19.793  0.00  0.00     0.000 A 
ATOM     16  C   UNL d   1      31.787  22.555 -19.043  0.00  0.00     0.000 A 
ATOM     17  C   UNL d   1      32.290  23.216 -18.774  0.00  0.00     0.000 A 
ATOM     18  C   UNL d   1      32.880  23.509 -19.277  0.00  0.00     0.000 A 
ATOM     19  C   UNL d   1      32.995  23.184 -20.027  0.00  0.00     0.000 A 
ENDBRANCH   1  14
BRANCH   1  20
ATOM     20  C   UNL d   1      32.567  22.681 -21.702  0.00  0.00     0.005 A 
ATOM     21  C   UNL d   1      33.241  22.880 -22.117  0.00  0.00     0.000 A 
ATOM     22  C   UNL d   1      33.188  23.338 -22.807  0.00  0.00     0.000 A 
ATOM     23  C   UNL d   1      32.434  23.595 -23.075  0.00  0.00     0.000 A 
ATOM     24  C   UNL d   1      31.764  23.386 -22.646  0.00  0.00     0.000 A 
ATOM     25  C   UNL d   1      31.829  22.932 -21.965  0.00  0.00     0.000 A 
ENDBRANCH   1  20
TORSDOF 7
ENDMDL
MODEL 3
REMARK VINA RESULT:       4.8      2.291      4.849
REMARK  7 active torsions:
REMARK  status: ('A' for Active; 'I' for Inactive)
REMARK    1  A    between atoms: C_2  and  C_1 
REMARK       I    between atoms: N_8  and  C_1 
REMARK    2  A    between atoms: C_5  and  C_2 
REMARK    3  A    between atoms: C_6  and  C_2 
REMARK    4  A    between atoms: N_3  and  C_9 
REMARK    5  A    between atoms: C_13  and  N_8 
REMARK    6  A    between atoms: C_9  and  C_10 
REMARK    7  A    between atoms: C_10  and  C_13 
ROOT
ATOM      1  C   UNL d   1      32.010  17.774 -24.023  0.00  0.00     0.058 C 
ENDROOT
BRANCH   1   2
ATOM      2  C   UNL d   1      32.542  18.237 -24.477  0.00  0.00     0.279 C 
ATOM      3  O   UNL d   1      32.994  17.855 -25.079  0.00  0.00    -0.265 OA
ATOM      4  N   UNL d   1      32.622  19.059 -24.338  0.00  0.00    -0.206 NA
BRANCH   4   5
ATOM      5  C   UNL d   1      33.146  19.505 -24.788  0.00  0.00     0.104 C 
BRANCH   5   6
ATOM      6  C   UNL d   1      33.048  20.315 -24.866  0.00  0.00     0.040 C 
BRANCH   6   7
ATOM      7  C   UNL d   1      32.806  20.760 -24.228  0.00  0.00     0.082 C 
BRANCH   7   8
ATOM      8  N   UNL d   1      32.940  21.560 -24.232  0.00  0.00    -0.299 N 
ATOM      9  C   UNL d   1      33.104  21.971 -23.531  0.00  0.00     0.107 A 
ATOM     10  C   UNL d   1      33.241  22.788 -23.545  0.00  0.00     0.142 A 
ATOM     11  O   UNL d   1      33.211  23.199 -24.277  0.00  0.00    -0.300 OA
ATOM     12  C   UNL d   1      33.048  22.795 -24.981  0.00  0.00     0.142 A 
ATOM     13  C   UNL d   1      32.913  21.980 -24.958  0.00  0.00     0.107 A 
ENDBRANCH   7   8
ENDBRANCH   6   7
ENDBRANCH   5   6
ENDBRANCH   4   5
ENDBRANCH   1   2
BRANCH   1  14
ATOM     14  C   UNL d   1      32.295  17.231 -23.477  0.00  0.00     0.005 A 
ATOM     15  C   UNL d   1      32.074  16.443 -23.560  0.00  0.00     0.000 A 
ATOM     16  C   UNL d   1      32.349  15.882 -23.023  0.00  0.00     0.000 A 
ATOM     17  C   UNL d   1      32.872  16.144 -22.375  0.00  0.00     0.000 A 
ATOM     18  C   UNL d   1      33.078  16.945 -22.317  0.00  0.00     0.000 A 
ATOM     19  C   UNL d   1      32.794  17.494 -22.863  0.00  0.00     0.000 A 
ENDBRANCH   1  14
BRANCH   1  20
ATOM     20  C   UNL d   1      31.201  17.882 -24.144  0.00  0.00     0.005 A 
ATOM     21  C   UNL d   1      30.703  18.018 -23.512  0.00  0.00     0.000 A 
ATOM     22  C   UNL d   1      29.889  18.127 -23.634  0.00  0.00     0.000 A 
ATOM     23  C   UNL d   1      29.582  18.097 -24.416  0.00  0.00     0.000 A 
ATOM     24  C   UNL d   1      30.097  17.959 -25.043  0.00  0.00     0.000 A 
ATOM     25  C   UNL d   1      30.900  17.853 -24.909  0.00  0.00     0.000 A 
ENDBRANCH   1  20
TORSDOF 7
ENDMDL
