MODEL 1
REMARK VINA RESULT:      -8.0      0.000      0.000
REMARK  6 active torsions:
REMARK  status: ('A' for Active; 'I' for Inactive)
REMARK    1  A    between atoms: C_17  and  N_1 
REMARK    2  A    between atoms: N_9  and  C_8 
REMARK    3  A    between atoms: C_11  and  O_21 
REMARK    4  A    between atoms: C_15  and  C_11 
REMARK    5  A    between atoms: C_30  and  C_17 
REMARK    6  A    between atoms: O_21  and  C_30 
ROOT
ATOM      1  N   UNL d   1      49.524  35.000  52.340  0.00  0.00    -0.238 N 
ATOM      2  C   UNL d   1      49.061  34.826  51.682  0.00  0.00     0.267 A 
ATOM      3  C   UNL d   1      49.211  35.400  52.987  0.00  0.00     0.267 A 
ATOM      4  C   UNL d   1      48.251  35.063  51.670  0.00  0.00     0.057 A 
ATOM      5  C   UNL d   1      47.934  35.465  52.317  0.00  0.00     0.011 A 
ATOM      6  C   UNL d   1      48.421  35.631  52.976  0.00  0.00     0.057 A 
ATOM      7  C   UNL d   1      47.154  35.693  52.306  0.00  0.00     0.016 A 
ATOM      8  C   UNL d   1      46.682  35.522  51.647  0.00  0.00     0.064 A 
ATOM      9  C   UNL d   1      47.786  34.895  51.022  0.00  0.00     0.006 A 
ATOM     10  C   UNL d   1      47.006  35.123  51.011  0.00  0.00     0.018 A 
ATOM     11  O   UNL d   1      49.678  35.593  53.689  0.00  0.00    -0.267 OA
ATOM     12  O   UNL d   1      49.401  34.422  51.045  0.00  0.00    -0.267 OA
ATOM     13  C   UNL d   1      48.110  36.038  53.637  0.00  0.00     0.005 A 
ATOM     14  C   UNL d   1      46.832  36.096  52.953  0.00  0.00     0.002 A 
ATOM     15  C   UNL d   1      47.305  36.273  53.625  0.00  0.00     0.000 A 
ENDROOT
BRANCH   1  16
ATOM     16  C   UNL d   1      50.334  34.763  52.352  0.00  0.00     0.113 C 
BRANCH  16  17
ATOM     17  C   UNL d   1      50.555  34.082  52.763  0.00  0.00     0.145 C 
BRANCH  17  18
ATOM     18  O   UNL d   1      51.342  33.920  52.880  0.00  0.00    -0.269 OA
BRANCH  18  19
ATOM     19  C   UNL d   1      51.561  33.229  53.249  0.00  0.00     0.300 C 
ATOM     20  O   UNL d   1      51.017  32.625  53.370  0.00  0.00    -0.259 OA
BRANCH  19  21
ATOM     21  C   UNL d   1      52.337  33.132  53.505  0.00  0.00     0.064 A 
ATOM     22  C   UNL d   1      52.810  32.562  53.149  0.00  0.00     0.006 A 
ATOM     23  C   UNL d   1      53.607  32.462  53.411  0.00  0.00     0.012 A 
ATOM     24  C   UNL d   1      53.899  32.936  54.019  0.00  0.00     0.058 A 
ATOM     25  C   UNL d   1      53.422  33.499  54.367  0.00  0.00     0.012 A 
ATOM     26 CL   UNL d   1      54.664  32.839  54.272  0.00  0.00    -0.082 Cl
ATOM     27  C   UNL d   1      52.651  33.596  54.113  0.00  0.00     0.006 A 
ENDBRANCH  19  21
ENDBRANCH  18  19
ENDBRANCH  17  18
ENDBRANCH  16  17
ENDBRANCH   1  16
BRANCH   8  28
ATOM     28  N   UNL d   1      45.883  35.756  51.636  0.00  0.00    -0.300 N 
ATOM     29  C   UNL d   1      45.673  36.479  51.321  0.00  0.00     0.107 A 
ATOM     30  C   UNL d   1      44.889  36.708  51.310  0.00  0.00     0.142 A 
ATOM     31  O   UNL d   1      44.314  36.215  51.613  0.00  0.00    -0.300 OA
ATOM     32  C   UNL d   1      44.521  35.483  51.932  0.00  0.00     0.142 A 
ATOM     33  C   UNL d   1      45.305  35.253  51.944  0.00  0.00     0.107 A 
ENDBRANCH   8  28
TORSDOF 6
ENDMDL
MODEL 2
REMARK VINA RESULT:      -6.7      2.407      6.835
REMARK  6 active torsions:
REMARK  status: ('A' for Active; 'I' for Inactive)
REMARK    1  A    between atoms: C_17  and  N_1 
REMARK    2  A    between atoms: N_9  and  C_8 
REMARK    3  A    between atoms: C_11  and  O_21 
REMARK    4  A    between atoms: C_15  and  C_11 
REMARK    5  A    between atoms: C_30  and  C_17 
REMARK    6  A    between atoms: O_21  and  C_30 
ROOT
ATOM      1  N   UNL d   1      50.896  34.202  52.766  0.00  0.00    -0.238 N 
ATOM      2  C   UNL d   1      51.371  34.780  53.107  0.00  0.00     0.267 A 
ATOM      3  C   UNL d   1      51.101  33.405  52.804  0.00  0.00     0.267 A 
ATOM      4  C   UNL d   1      52.081  34.553  53.503  0.00  0.00     0.057 A 
ATOM      5  C   UNL d   1      52.290  33.756  53.543  0.00  0.00     0.011 A 
ATOM      6  C   UNL d   1      51.793  33.184  53.189  0.00  0.00     0.057 A 
ATOM      7  C   UNL d   1      52.973  33.537  53.924  0.00  0.00     0.016 A 
ATOM      8  C   UNL d   1      53.457  34.113  54.270  0.00  0.00     0.064 A 
ATOM      9  C   UNL d   1      52.559  35.120  53.844  0.00  0.00     0.006 A 
ATOM     10  C   UNL d   1      53.242  34.902  54.225  0.00  0.00     0.018 A 
ATOM     11  O   UNL d   1      50.617  32.781  52.452  0.00  0.00    -0.267 OA
ATOM     12  O   UNL d   1      51.143  35.573  53.055  0.00  0.00    -0.267 OA
ATOM     13  C   UNL d   1      51.994  32.373  53.223  0.00  0.00     0.005 A 
ATOM     14  C   UNL d   1      53.186  32.738  53.966  0.00  0.00     0.002 A 
ATOM     15  C   UNL d   1      52.700  32.148  53.617  0.00  0.00     0.000 A 
ENDROOT
BRANCH   1  16
ATOM     16  C   UNL d   1      50.186  34.429  52.370  0.00  0.00     0.113 C 
BRANCH  16  17
ATOM     17  C   UNL d   1      49.580  34.794  52.795  0.00  0.00     0.145 C 
BRANCH  17  18
ATOM     18  O   UNL d   1      48.904  35.029  52.411  0.00  0.00    -0.269 OA
BRANCH  18  19
ATOM     19  C   UNL d   1      48.337  35.449  52.814  0.00  0.00     0.300 C 
ATOM     20  O   UNL d   1      48.451  35.668  53.597  0.00  0.00    -0.259 OA
BRANCH  19  21
ATOM     21  C   UNL d   1      47.637  35.658  52.434  0.00  0.00     0.064 A 
ATOM     22  C   UNL d   1      47.118  36.177  52.803  0.00  0.00     0.006 A 
ATOM     23  C   UNL d   1      46.400  36.391  52.413  0.00  0.00     0.012 A 
ATOM     24  C   UNL d   1      46.230  36.078  51.670  0.00  0.00     0.058 A 
ATOM     25  C   UNL d   1      46.751  35.564  51.311  0.00  0.00     0.012 A 
ATOM     26 CL   UNL d   1      45.539  36.285  51.295  0.00  0.00    -0.082 Cl
ATOM     27  C   UNL d   1      47.446  35.356  51.688  0.00  0.00     0.006 A 
ENDBRANCH  19  21
ENDBRANCH  18  19
ENDBRANCH  17  18
ENDBRANCH  16  17
ENDBRANCH   1  16
BRANCH   8  28
ATOM     28  N   UNL d   1      54.157  33.889  54.660  0.00  0.00    -0.300 N 
ATOM     29  C   UNL d   1      54.134  33.658  55.443  0.00  0.00     0.107 A 
ATOM     30  C   UNL d   1      54.821  33.438  55.826  0.00  0.00     0.142 A 
ATOM     31  O   UNL d   1      55.533  33.449  55.427  0.00  0.00    -0.300 OA
ATOM     32  C   UNL d   1      55.562  33.682  54.635  0.00  0.00     0.142 A 
ATOM     33  C   UNL d   1      54.875  33.901  54.252  0.00  0.00     0.107 A 
ENDBRANCH   8  28
TORSDOF 6
ENDMDL
MODEL 3
REMARK VINA RESULT:      -6.2      2.429      6.671
REMARK  6 active torsions:
REMARK  status: ('A' for Active; 'I' for Inactive)
REMARK    1  A    between atoms: C_17  and  N_1 
REMARK    2  A    between atoms: N_9  and  C_8 
REMARK    3  A    between atoms: C_11  and  O_21 
REMARK    4  A    between atoms: C_15  and  C_11 
REMARK    5  A    between atoms: C_30  and  C_17 
REMARK    6  A    between atoms: O_21  and  C_30 
ROOT
ATOM      1  N   UNL d   1      51.333  34.246  53.052  0.00  0.00    -0.238 N 
ATOM      2  C   UNL d   1      51.163  33.497  52.757  0.00  0.00     0.267 A 
ATOM      3  C   UNL d   1      51.995  34.379  53.522  0.00  0.00     0.267 A 
ATOM      4  C   UNL d   1      51.677  32.853  52.941  0.00  0.00     0.057 A 
ATOM      5  C   UNL d   1      52.342  32.982  53.412  0.00  0.00     0.011 A 
ATOM      6  C   UNL d   1      52.497  33.751  53.701  0.00  0.00     0.057 A 
ATOM      7  C   UNL d   1      52.837  32.363  53.589  0.00  0.00     0.016 A 
ATOM      8  C   UNL d   1      52.673  31.606  53.297  0.00  0.00     0.064 A 
ATOM      9  C   UNL d   1      51.516  32.106  52.653  0.00  0.00     0.006 A 
ATOM     10  C   UNL d   1      52.011  31.487  52.830  0.00  0.00     0.018 A 
ATOM     11  O   UNL d   1      52.193  35.158  53.842  0.00  0.00    -0.267 OA
ATOM     12  O   UNL d   1      50.491  33.390  52.287  0.00  0.00    -0.267 OA
ATOM     13  C   UNL d   1      53.167  33.895  54.179  0.00  0.00     0.005 A 
ATOM     14  C   UNL d   1      53.505  32.488  54.061  0.00  0.00     0.002 A 
ATOM     15  C   UNL d   1      53.678  33.255  54.362  0.00  0.00     0.000 A 
ENDROOT
BRANCH   1  16
ATOM     16  C   UNL d   1      50.819  34.890  52.868  0.00  0.00     0.113 C 
BRANCH  16  17
ATOM     17  C   UNL d   1      50.085  34.946  53.241  0.00  0.00     0.145 C 
BRANCH  17  18
ATOM     18  O   UNL d   1      49.478  35.343  52.876  0.00  0.00    -0.269 OA
BRANCH  18  19
ATOM     19  C   UNL d   1      48.891  35.682  53.324  0.00  0.00     0.300 C 
ATOM     20  O   UNL d   1      48.997  35.813  54.128  0.00  0.00    -0.259 OA
BRANCH  19  21
ATOM     21  C   UNL d   1      48.180  35.898  52.970  0.00  0.00     0.064 A 
ATOM     22  C   UNL d   1      47.684  36.430  53.353  0.00  0.00     0.006 A 
ATOM     23  C   UNL d   1      46.954  36.651  52.989  0.00  0.00     0.012 A 
ATOM     24  C   UNL d   1      46.749  36.331  52.258  0.00  0.00     0.058 A 
ATOM     25  C   UNL d   1      47.247  35.803  51.886  0.00  0.00     0.012 A 
ATOM     26 CL   UNL d   1      46.047  36.544  51.909  0.00  0.00    -0.082 Cl
ATOM     27  C   UNL d   1      47.953  35.589  52.238  0.00  0.00     0.006 A 
ENDBRANCH  19  21
ENDBRANCH  18  19
ENDBRANCH  17  18
ENDBRANCH  16  17
ENDBRANCH   1  16
BRANCH   8  28
ATOM     28  N   UNL d   1      53.180  30.970  53.478  0.00  0.00    -0.300 N 
ATOM     29  C   UNL d   1      53.884  30.882  53.076  0.00  0.00     0.107 A 
ATOM     30  C   UNL d   1      54.382  30.259  53.253  0.00  0.00     0.142 A 
ATOM     31  O   UNL d   1      54.176  29.723  53.834  0.00  0.00    -0.300 OA
ATOM     32  C   UNL d   1      53.464  29.808  54.243  0.00  0.00     0.142 A 
ATOM     33  C   UNL d   1      52.967  30.431  54.066  0.00  0.00     0.107 A 
ENDBRANCH   8  28
TORSDOF 6
ENDMDL
