MODEL 1
REMARK VINA RESULT:      44.7      0.000      0.000
REMARK  11 active torsions:
REMARK  status: ('A' for Active; 'I' for Inactive)
REMARK    1  A    between atoms: C_2  and  C_1 
REMARK       I    between atoms: N_5  and  C_1 
REMARK    2  A    between atoms: C_4  and  C_2 
REMARK    3  A    between atoms: C_3  and  C_4 
REMARK    4  A    between atoms: O_10  and  C_3 
REMARK    5  A    between atoms: N_9  and  C_4 
REMARK    6  A    between atoms: C_8  and  N_5 
REMARK    7  A    between atoms: C_17  and  N_9 
REMARK    8  A    between atoms: O_16  and  C_11 
REMARK    9  A    between atoms: C_19  and  C_17 
REMARK   10  A    between atoms: C_21  and  C_19 
REMARK   11  A    between atoms: C_20  and  C_21 
ROOT
ATOM      1  C   UNK d   1      61.483  48.888  50.847  0.00  0.00     0.084 C 
ENDROOT
BRANCH   1   2
ATOM      2  C   UNK d   1      61.416  48.136  50.498  0.00  0.00     0.259 C 
ATOM      3  N   UNK d   1      61.346  47.468  50.972  0.00  0.00    -0.321 N 
ATOM      4  H   UNK d   1      61.342  47.539  51.795  0.00  0.00     0.169 HD
ATOM      5  O   UNK d   1      61.421  48.073  49.679  0.00  0.00    -0.267 OA
BRANCH   3   6
ATOM      6  C   UNK d   1      61.280  46.716  50.613  0.00  0.00     0.059 A 
ATOM      7  C   UNK d   1      61.419  46.635  49.808  0.00  0.00     0.019 A 
ATOM      8  C   UNK d   1      61.352  45.892  49.459  0.00  0.00     0.026 A 
ATOM      9  C   UNK d   1      61.147  45.233  49.910  0.00  0.00     0.094 A 
ATOM     10  C   UNK d   1      61.008  45.322  50.720  0.00  0.00     0.026 A 
ATOM     11  C   UNK d   1      61.076  46.070  51.067  0.00  0.00     0.019 A 
BRANCH   9  12
ATOM     12  O   UNK d   1      61.080  44.491  49.560  0.00  0.00    -0.328 OA
ATOM     13  C   UNK d   1      60.715  44.413  48.829  0.00  0.00     0.181 C 
ENDBRANCH   9  12
ENDBRANCH   3   6
ENDBRANCH   1   2
BRANCH   1  14
ATOM     14  C   UNK d   1      60.815  49.307  51.061  0.00  0.00     0.124 C 
BRANCH  14  15
ATOM     15  C   UNK d   1      60.679  49.490  51.853  0.00  0.00     0.194 C 
ATOM     16  O   UNK d   1      59.902  49.531  52.147  0.00  0.00    -0.645 OA
BRANCH  15  17
ATOM     17  O   UNK d   1      61.309  49.633  52.358  0.00  0.00    -0.772 OA
ATOM     18  H   UNK d   1      61.705  49.003  52.711  0.00  0.00     0.167 HD
ENDBRANCH  15  17
ENDBRANCH  14  15
BRANCH  14  19
ATOM     19  N   UNK d   1      60.273  49.548  50.479  0.00  0.00    -0.347 N 
ATOM     20  H   UNK d   1      60.529  50.021  49.855  0.00  0.00     0.166 HD
BRANCH  19  21
ATOM     21  C   UNK d   0      59.484  49.314  50.528  0.00  0.00     0.073 C 
BRANCH  21  22
ATOM     22  C   UNK d   0      58.920  49.674  50.045  0.00  0.00     0.018 C 
BRANCH  22  23
ATOM     23  C   UNK d   0      58.125  49.667  50.277  0.00  0.00     0.002 C 
BRANCH  23  24
ATOM     24  C   UNK d   0      57.525  49.600  49.718  0.00  0.00     0.000 C 
ATOM     25  C   UNK d   0      56.753  49.462  49.977  0.00  0.00     0.000 C 
ENDBRANCH  23  24
ENDBRANCH  22  23
ENDBRANCH  21  22
ENDBRANCH  19  21
ENDBRANCH  14  19
ENDBRANCH   1  14
TORSDOF 11
ENDMDL
