MODEL 1
REMARK VINA RESULT:      -3.2      0.000      0.000
REMARK  3 active torsions:
REMARK  status: ('A' for Active; 'I' for Inactive)
REMARK    1  A    between atoms: C_2  and  C_1 
REMARK    2  A    between atoms: C_3  and  C_1 
REMARK       I    between atoms: N_4  and  C_2 
REMARK    3  A    between atoms: C_6  and  N_4 
ROOT
ATOM      1  C   UNL d   1      32.326  16.957 -24.100  0.00  0.00     0.150 A 
ATOM      2  O   UNL d   1      33.037  16.277 -22.772  0.00  0.00    -0.304 OA
ATOM      3  C   UNL d   1      32.118  16.191 -23.867  0.00  0.00     0.019 A 
ATOM      4  C   UNL d   1      32.882  17.375 -23.673  0.00  0.00     0.019 A 
ATOM      5  C   UNL d   1      33.240  17.032 -23.004  0.00  0.00     0.119 A 
ATOM      6  C   UNL d   1      32.475  15.852 -23.201  0.00  0.00     0.119 A 
ENDROOT
BRANCH   1   7
ATOM      7  C   UNL d   1      31.762  16.533 -24.532  0.00  0.00     0.315 C 
ATOM      8  N   UNL d   1      30.957  16.653 -24.401  0.00  0.00    -0.367 NA
ATOM      9  O   UNL d   1      32.012  15.988 -25.097  0.00  0.00    -0.255 OA
BRANCH   8  10
ATOM     10  C   UNL d   1      30.153  16.768 -24.275  0.00  0.00     0.135 A 
ATOM     11  C   UNL d   1      29.730  16.173 -23.916  0.00  0.00     0.032 A 
ATOM     12  C   UNL d   1      28.910  16.287 -23.786  0.00  0.00     0.003 A 
ATOM     13  C   UNL d   1      28.475  15.685 -23.421  0.00  0.00     0.000 C 
ATOM     14  C   UNL d   1      28.566  16.966 -24.014  0.00  0.00     0.000 A 
ATOM     15  C   UNL d   1      28.988  17.557 -24.371  0.00  0.00     0.003 A 
ATOM     16  C   UNL d   1      29.784  17.453 -24.500  0.00  0.00     0.032 A 
ATOM     17  C   UNL d   1      28.624  18.257 -24.604  0.00  0.00     0.000 C 
ENDBRANCH   8  10
ENDBRANCH   1   7
BRANCH   1  18
ATOM     18  C   UNL d   1      32.532  17.724 -24.336  0.00  0.00     0.024 A 
ATOM     19  S   UNL d   1      32.518  18.409 -23.867  0.00  0.00    -0.090 SA
ATOM     20  C   UNL d   1      32.766  19.051 -24.322  0.00  0.00     0.035 A 
ATOM     21  C   UNL d   1      32.939  18.784 -25.078  0.00  0.00     0.007 A 
ATOM     22  C   UNL d   1      32.795  17.959 -25.090  0.00  0.00     0.004 A 
ENDBRANCH   1  18
TORSDOF 3
ENDMDL
MODEL 2
REMARK VINA RESULT:      -1.3      1.543      2.337
REMARK  3 active torsions:
REMARK  status: ('A' for Active; 'I' for Inactive)
REMARK    1  A    between atoms: C_2  and  C_1 
REMARK    2  A    between atoms: C_3  and  C_1 
REMARK       I    between atoms: N_4  and  C_2 
REMARK    3  A    between atoms: C_6  and  N_4 
ROOT
ATOM      1  C   UNL d   1      32.769  18.909 -23.877  0.00  0.00     0.150 A 
ATOM      2  O   UNL d   1      32.760  20.348 -24.691  0.00  0.00    -0.304 OA
ATOM      3  C   UNL d   1      32.619  18.922 -24.691  0.00  0.00     0.019 A 
ATOM      4  C   UNL d   1      32.912  19.606 -23.478  0.00  0.00     0.019 A 
ATOM      5  C   UNL d   1      32.907  20.331 -23.888  0.00  0.00     0.119 A 
ATOM      6  C   UNL d   1      32.615  19.644 -25.097  0.00  0.00     0.119 A 
ENDROOT
BRANCH   1   7
ATOM      7  C   UNL d   1      32.624  18.202 -24.282  0.00  0.00     0.315 C 
ATOM      8  N   UNL d   1      31.870  17.868 -24.285  0.00  0.00    -0.367 NA
ATOM      9  O   UNL d   1      33.241  17.833 -24.683  0.00  0.00    -0.255 OA
BRANCH   8  10
ATOM     10  C   UNL d   1      31.121  17.530 -24.292  0.00  0.00     0.135 A 
ATOM     11  C   UNL d   1      31.028  16.791 -23.965  0.00  0.00     0.032 A 
ATOM     12  C   UNL d   1      30.266  16.443 -23.970  0.00  0.00     0.003 A 
ATOM     13  C   UNL d   1      30.166  15.691 -23.639  0.00  0.00     0.000 C 
ATOM     14  C   UNL d   1      29.655  16.838 -24.290  0.00  0.00     0.000 A 
ATOM     15  C   UNL d   1      29.748  17.574 -24.615  0.00  0.00     0.003 A 
ATOM     16  C   UNL d   1      30.486  17.917 -24.614  0.00  0.00     0.032 A 
ATOM     17  C   UNL d   1      29.111  17.977 -24.945  0.00  0.00     0.000 C 
ENDBRANCH   8  10
ENDBRANCH   1   7
BRANCH   1  18
ATOM     18  C   UNL d   1      32.919  18.892 -23.062  0.00  0.00     0.024 A 
ATOM     19  S   UNL d   1      32.865  19.530 -22.534  0.00  0.00    -0.090 SA
ATOM     20  C   UNL d   1      33.061  19.269 -21.776  0.00  0.00     0.035 A 
ATOM     21  C   UNL d   1      33.240  18.469 -21.814  0.00  0.00     0.007 A 
ATOM     22  C   UNL d   1      33.152  18.232 -22.612  0.00  0.00     0.004 A 
ENDBRANCH   1  18
TORSDOF 3
ENDMDL
