MODEL 1
REMARK VINA RESULT:      -9.3      0.000      0.000
REMARK  5 active torsions:
REMARK  status: ('A' for Active; 'I' for Inactive)
REMARK    1  A    between atoms: C_10  and  N_1 
REMARK    2  A    between atoms: S_7  and  C_2 
REMARK    3  A    between atoms: C_12  and  S_7 
REMARK    4  A    between atoms: C_9  and  C_12 
REMARK    5  A    between atoms: O_16  and  C_9 
ROOT
ATOM      1  N   UNL d   1      52.765  33.555  53.737  0.00  0.00    -0.254 N 
ATOM      2  C   UNL d   1      53.131  32.812  53.683  0.00  0.00     0.182 A 
ATOM      3  C   UNL d   1      53.078  34.134  54.241  0.00  0.00     0.274 A 
ATOM      4  C   UNL d   1      53.753  33.972  54.687  0.00  0.00     0.104 A 
ATOM      5  N   UNL d   1      53.811  32.648  54.132  0.00  0.00    -0.222 NA
ATOM      6  C   UNL d   1      54.120  33.229  54.632  0.00  0.00     0.095 A 
ATOM      7  S   UNL d   1      54.181  34.424  55.220  0.00  0.00    -0.080 SA
ATOM      8  O   UNL d   1      52.714  34.872  54.295  0.00  0.00    -0.266 OA
ATOM      9  C   UNL d   1      54.771  33.228  55.132  0.00  0.00     0.027 A 
ATOM     10  C   UNL d   1      54.814  33.955  55.496  0.00  0.00     0.037 A 
ENDROOT
BRANCH   2  11
ATOM     11  S   UNL d   1      52.817  32.228  53.177  0.00  0.00    -0.044 SA
BRANCH  11  12
ATOM     12  C   UNL d   1      53.244  31.524  53.074  0.00  0.00     0.095 C 
ATOM     13  C   UNL d   1      54.064  31.533  53.116  0.00  0.00     0.013 C 
BRANCH  12  14
ATOM     14  C   UNL d   1      52.942  30.995  52.968  0.00  0.00     0.302 C 
ATOM     15  O   UNL d   1      52.635  30.838  52.221  0.00  0.00    -0.259 OA
BRANCH  14  16
ATOM     16  O   UNL d   1      52.848  30.444  53.582  0.00  0.00    -0.295 OA
ATOM     17  C   UNL d   1      52.620  29.667  53.415  0.00  0.00     0.185 C 
ENDBRANCH  14  16
ENDBRANCH  12  14
ENDBRANCH  11  12
ENDBRANCH   2  11
BRANCH   1  18
ATOM     18  C   UNL d   1      52.093  33.717  53.294  0.00  0.00     0.069 A 
ATOM     19  C   UNL d   1      52.165  34.072  52.548  0.00  0.00     0.018 A 
ATOM     20  C   UNL d   1      51.491  34.237  52.101  0.00  0.00     0.002 A 
ATOM     21  C   UNL d   1      50.744  34.048  52.396  0.00  0.00     0.000 A 
ATOM     22  C   UNL d   1      50.672  33.693  53.142  0.00  0.00     0.002 A 
ATOM     23  C   UNL d   1      51.346  33.529  53.589  0.00  0.00     0.018 A 
ENDBRANCH   1  18
TORSDOF 5
ENDMDL
MODEL 2
REMARK VINA RESULT:      -9.2      0.983      2.799
REMARK  5 active torsions:
REMARK  status: ('A' for Active; 'I' for Inactive)
REMARK    1  A    between atoms: C_10  and  N_1 
REMARK    2  A    between atoms: S_7  and  C_2 
REMARK    3  A    between atoms: C_12  and  S_7 
REMARK    4  A    between atoms: C_9  and  C_12 
REMARK    5  A    between atoms: O_16  and  C_9 
ROOT
ATOM      1  N   UNL d   1      53.143  33.312  53.894  0.00  0.00    -0.254 N 
ATOM      2  C   UNL d   1      52.922  32.583  53.564  0.00  0.00     0.182 A 
ATOM      3  C   UNL d   1      52.652  33.973  53.801  0.00  0.00     0.274 A 
ATOM      4  C   UNL d   1      51.945  33.907  53.382  0.00  0.00     0.104 A 
ATOM      5  N   UNL d   1      52.209  32.515  53.142  0.00  0.00    -0.222 NA
ATOM      6  C   UNL d   1      51.723  33.178  53.052  0.00  0.00     0.095 A 
ATOM      7  S   UNL d   1      51.359  34.452  53.202  0.00  0.00    -0.080 SA
ATOM      8  O   UNL d   1      52.872  34.698  54.129  0.00  0.00    -0.266 OA
ATOM      9  C   UNL d   1      51.003  33.278  52.671  0.00  0.00     0.027 A 
ATOM     10  C   UNL d   1      50.774  34.055  52.759  0.00  0.00     0.037 A 
ENDROOT
BRANCH   2  11
ATOM     11  S   UNL d   1      53.414  31.916  53.657  0.00  0.00    -0.044 SA
BRANCH  11  12
ATOM     12  C   UNL d   1      53.183  31.202  53.302  0.00  0.00     0.095 C 
ATOM     13  C   UNL d   1      52.624  31.207  52.701  0.00  0.00     0.013 C 
BRANCH  12  14
ATOM     14  C   UNL d   1      53.433  30.670  53.493  0.00  0.00     0.302 C 
ATOM     15  O   UNL d   1      54.177  30.444  53.224  0.00  0.00    -0.259 OA
BRANCH  14  16
ATOM     16  O   UNL d   1      53.014  30.185  54.020  0.00  0.00    -0.295 OA
ATOM     17  C   UNL d   1      53.304  29.436  54.220  0.00  0.00     0.185 C 
ENDBRANCH  14  16
ENDBRANCH  12  14
ENDBRANCH  11  12
ENDBRANCH   2  11
BRANCH   1  18
ATOM     18  C   UNL d   1      53.847  33.379  54.312  0.00  0.00     0.069 A 
ATOM     19  C   UNL d   1      53.854  33.258  55.132  0.00  0.00     0.018 A 
ATOM     20  C   UNL d   1      54.560  33.325  55.554  0.00  0.00     0.002 A 
ATOM     21  C   UNL d   1      55.260  33.514  55.160  0.00  0.00     0.000 A 
ATOM     22  C   UNL d   1      55.253  33.635  54.340  0.00  0.00     0.002 A 
ATOM     23  C   UNL d   1      54.547  33.567  53.918  0.00  0.00     0.018 A 
ENDBRANCH   1  18
TORSDOF 5
ENDMDL
MODEL 3
REMARK VINA RESULT:      -9.1      1.139      3.039
REMARK  5 active torsions:
REMARK  status: ('A' for Active; 'I' for Inactive)
REMARK    1  A    between atoms: C_10  and  N_1 
REMARK    2  A    between atoms: S_7  and  C_2 
REMARK    3  A    between atoms: C_12  and  S_7 
REMARK    4  A    between atoms: C_9  and  C_12 
REMARK    5  A    between atoms: O_16  and  C_9 
ROOT
ATOM      1  N   UNL d   1      52.665  32.477  53.316  0.00  0.00    -0.254 N 
ATOM      2  C   UNL d   1      53.275  32.507  53.878  0.00  0.00     0.182 A 
ATOM      3  C   UNL d   1      52.473  31.757  52.952  0.00  0.00     0.274 A 
ATOM      4  C   UNL d   1      52.888  31.072  53.148  0.00  0.00     0.104 A 
ATOM      5  N   UNL d   1      53.694  31.816  54.075  0.00  0.00    -0.222 NA
ATOM      6  C   UNL d   1      53.499  31.101  53.709  0.00  0.00     0.095 A 
ATOM      7  S   UNL d   1      52.825  30.298  52.886  0.00  0.00    -0.080 SA
ATOM      8  O   UNL d   1      51.866  31.728  52.394  0.00  0.00    -0.266 OA
ATOM      9  C   UNL d   1      53.809  30.346  53.790  0.00  0.00     0.027 A 
ATOM     10  C   UNL d   1      53.401  29.848  53.290  0.00  0.00     0.037 A 
ENDROOT
BRANCH   2  11
ATOM     11  S   UNL d   1      53.470  33.230  54.245  0.00  0.00    -0.044 SA
BRANCH  11  12
ATOM     12  C   UNL d   1      54.014  33.220  54.871  0.00  0.00     0.095 C 
ATOM     13  C   UNL d   1      54.003  32.603  55.413  0.00  0.00     0.013 C 
BRANCH  12  14
ATOM     14  C   UNL d   1      54.426  33.678  54.927  0.00  0.00     0.302 C 
ATOM     15  O   UNL d   1      54.188  34.417  55.200  0.00  0.00    -0.259 OA
BRANCH  14  16
ATOM     16  O   UNL d   1      55.220  33.544  54.725  0.00  0.00    -0.295 OA
ATOM     17  C   UNL d   1      55.789  34.131  54.852  0.00  0.00     0.185 C 
ENDBRANCH  14  16
ENDBRANCH  12  14
ENDBRANCH  11  12
ENDBRANCH   2  11
BRANCH   1  18
ATOM     18  C   UNL d   1      52.250  33.159  53.121  0.00  0.00     0.069 A 
ATOM     19  C   UNL d   1      51.544  33.341  53.515  0.00  0.00     0.018 A 
ATOM     20  C   UNL d   1      51.126  34.025  53.320  0.00  0.00     0.002 A 
ATOM     21  C   UNL d   1      51.411  34.529  52.732  0.00  0.00     0.000 A 
ATOM     22  C   UNL d   1      52.117  34.347  52.337  0.00  0.00     0.002 A 
ATOM     23  C   UNL d   1      52.534  33.663  52.532  0.00  0.00     0.018 A 
ENDBRANCH   1  18
TORSDOF 5
ENDMDL
MODEL 4
REMARK VINA RESULT:      -8.6      0.983      3.078
REMARK  5 active torsions:
REMARK  status: ('A' for Active; 'I' for Inactive)
REMARK    1  A    between atoms: C_10  and  N_1 
REMARK    2  A    between atoms: S_7  and  C_2 
REMARK    3  A    between atoms: C_12  and  S_7 
REMARK    4  A    between atoms: C_9  and  C_12 
REMARK    5  A    between atoms: O_16  and  C_9 
ROOT
ATOM      1  N   UNL d   1      52.332  32.850  53.191  0.00  0.00    -0.254 N 
ATOM      2  C   UNL d   1      52.920  33.133  53.703  0.00  0.00     0.182 A 
ATOM      3  C   UNL d   1      52.334  32.054  52.958  0.00  0.00     0.274 A 
ATOM      4  C   UNL d   1      52.920  31.544  53.235  0.00  0.00     0.104 A 
ATOM      5  N   UNL d   1      53.511  32.619  53.983  0.00  0.00    -0.222 NA
ATOM      6  C   UNL d   1      53.508  31.827  53.748  0.00  0.00     0.095 A 
ATOM      7  S   UNL d   1      53.062  30.748  53.104  0.00  0.00    -0.080 SA
ATOM      8  O   UNL d   1      51.749  31.774  52.449  0.00  0.00    -0.266 OA
ATOM      9  C   UNL d   1      54.010  31.203  53.930  0.00  0.00     0.027 A 
ATOM     10  C   UNL d   1      53.743  30.539  53.540  0.00  0.00     0.037 A 
ENDROOT
BRANCH   2  11
ATOM     11  S   UNL d   1      52.920  33.932  53.939  0.00  0.00    -0.044 SA
BRANCH  11  12
ATOM     12  C   UNL d   1      53.537  34.201  54.425  0.00  0.00     0.095 C 
ATOM     13  C   UNL d   1      54.258  33.810  54.424  0.00  0.00     0.013 C 
BRANCH  12  14
ATOM     14  C   UNL d   1      53.450  34.695  54.787  0.00  0.00     0.302 C 
ATOM     15  O   UNL d   1      53.326  34.600  55.594  0.00  0.00    -0.259 OA
BRANCH  14  16
ATOM     16  O   UNL d   1      53.457  35.455  54.452  0.00  0.00    -0.295 OA
ATOM     17  C   UNL d   1      53.207  36.108  54.894  0.00  0.00     0.185 C 
ENDBRANCH  14  16
ENDBRANCH  12  14
ENDBRANCH  11  12
ENDBRANCH   2  11
BRANCH   1  18
ATOM     18  C   UNL d   1      51.747  33.357  52.914  0.00  0.00     0.069 A 
ATOM     19  C   UNL d   1      51.033  33.430  53.328  0.00  0.00     0.018 A 
ATOM     20  C   UNL d   1      50.445  33.939  53.052  0.00  0.00     0.002 A 
ATOM     21  C   UNL d   1      50.567  34.375  52.362  0.00  0.00     0.000 A 
ATOM     22  C   UNL d   1      51.281  34.301  51.948  0.00  0.00     0.002 A 
ATOM     23  C   UNL d   1      51.869  33.793  52.224  0.00  0.00     0.018 A 
ENDBRANCH   1  18
TORSDOF 5
ENDMDL
MODEL 5
REMARK VINA RESULT:      -8.5      1.188      3.643
REMARK  5 active torsions:
REMARK  status: ('A' for Active; 'I' for Inactive)
REMARK    1  A    between atoms: C_10  and  N_1 
REMARK    2  A    between atoms: S_7  and  C_2 
REMARK    3  A    between atoms: C_12  and  S_7 
REMARK    4  A    between atoms: C_9  and  C_12 
REMARK    5  A    between atoms: O_16  and  C_9 
ROOT
ATOM      1  N   UNL d   1      53.618  32.318  53.911  0.00  0.00    -0.254 N 
ATOM      2  C   UNL d   1      52.959  32.619  53.505  0.00  0.00     0.182 A 
ATOM      3  C   UNL d   1      53.776  31.504  53.896  0.00  0.00     0.274 A 
ATOM      4  C   UNL d   1      53.279  30.994  53.479  0.00  0.00     0.104 A 
ATOM      5  N   UNL d   1      52.459  32.106  53.084  0.00  0.00    -0.222 NA
ATOM      6  C   UNL d   1      52.621  31.295  53.073  0.00  0.00     0.095 A 
ATOM      7  S   UNL d   1      53.294  30.183  53.366  0.00  0.00    -0.080 SA
ATOM      8  O   UNL d   1      54.430  31.205  54.299  0.00  0.00    -0.266 OA
ATOM      9  C   UNL d   1      52.233  30.667  52.713  0.00  0.00     0.027 A 
ATOM     10  C   UNL d   1      52.640  29.983  52.888  0.00  0.00     0.037 A 
ENDROOT
BRANCH   2  11
ATOM     11  S   UNL d   1      52.799  33.437  53.518  0.00  0.00    -0.044 SA
BRANCH  11  12
ATOM     12  C   UNL d   1      52.221  33.734  53.002  0.00  0.00     0.095 C 
ATOM     13  C   UNL d   1      52.215  33.499  52.216  0.00  0.00     0.013 C 
BRANCH  12  14
ATOM     14  C   UNL d   1      51.797  34.132  53.213  0.00  0.00     0.302 C 
ATOM     15  O   UNL d   1      52.026  34.872  53.489  0.00  0.00    -0.259 OA
BRANCH  14  16
ATOM     16  O   UNL d   1      50.995  33.915  53.215  0.00  0.00    -0.295 OA
ATOM     17  C   UNL d   1      50.406  34.494  53.237  0.00  0.00     0.185 C 
ENDBRANCH  14  16
ENDBRANCH  12  14
ENDBRANCH  11  12
ENDBRANCH   2  11
BRANCH   1  18
ATOM     18  C   UNL d   1      54.113  32.824  54.327  0.00  0.00     0.069 A 
ATOM     19  C   UNL d   1      53.961  32.989  55.125  0.00  0.00     0.018 A 
ATOM     20  C   UNL d   1      54.457  33.497  55.544  0.00  0.00     0.002 A 
ATOM     21  C   UNL d   1      55.106  33.842  55.170  0.00  0.00     0.000 A 
ATOM     22  C   UNL d   1      55.259  33.678  54.372  0.00  0.00     0.002 A 
ATOM     23  C   UNL d   1      54.762  33.170  53.952  0.00  0.00     0.018 A 
ENDBRANCH   1  18
TORSDOF 5
ENDMDL
MODEL 6
REMARK VINA RESULT:      -7.5      1.135      2.876
REMARK  5 active torsions:
REMARK  status: ('A' for Active; 'I' for Inactive)
REMARK    1  A    between atoms: C_10  and  N_1 
REMARK    2  A    between atoms: S_7  and  C_2 
REMARK    3  A    between atoms: C_12  and  S_7 
REMARK    4  A    between atoms: C_9  and  C_12 
REMARK    5  A    between atoms: O_16  and  C_9 
ROOT
ATOM      1  N   UNL d   1      53.241  32.438  53.821  0.00  0.00    -0.254 N 
ATOM      2  C   UNL d   1      52.802  33.125  53.665  0.00  0.00     0.182 A 
ATOM      3  C   UNL d   1      53.887  32.471  54.340  0.00  0.00     0.274 A 
ATOM      4  C   UNL d   1      54.094  33.184  54.699  0.00  0.00     0.104 A 
ATOM      5  N   UNL d   1      53.009  33.844  54.026  0.00  0.00    -0.222 NA
ATOM      6  C   UNL d   1      53.655  33.871  54.542  0.00  0.00     0.095 A 
ATOM      7  S   UNL d   1      54.691  33.382  55.223  0.00  0.00    -0.080 SA
ATOM      8  O   UNL d   1      54.324  31.788  54.496  0.00  0.00    -0.266 OA
ATOM      9  C   UNL d   1      53.984  34.488  54.971  0.00  0.00     0.027 A 
ATOM     10  C   UNL d   1      54.619  34.197  55.390  0.00  0.00     0.037 A 
ENDROOT
BRANCH   2  11
ATOM     11  S   UNL d   1      52.151  33.094  53.144  0.00  0.00    -0.044 SA
BRANCH  11  12
ATOM     12  C   UNL d   1      51.802  33.809  52.906  0.00  0.00     0.095 C 
ATOM     13  C   UNL d   1      52.269  34.475  52.794  0.00  0.00     0.013 C 
BRANCH  12  14
ATOM     14  C   UNL d   1      51.191  33.836  52.815  0.00  0.00     0.302 C 
ATOM     15  O   UNL d   1      50.674  33.720  53.443  0.00  0.00    -0.259 OA
BRANCH  14  16
ATOM     16  O   UNL d   1      50.897  33.991  52.054  0.00  0.00    -0.295 OA
ATOM     17  C   UNL d   1      50.097  34.173  51.945  0.00  0.00     0.185 C 
ENDBRANCH  14  16
ENDBRANCH  12  14
ENDBRANCH  11  12
ENDBRANCH   2  11
BRANCH   1  18
ATOM     18  C   UNL d   1      53.036  31.727  53.465  0.00  0.00     0.069 A 
ATOM     19  C   UNL d   1      52.501  31.216  53.838  0.00  0.00     0.018 A 
ATOM     20  C   UNL d   1      52.294  30.501  53.482  0.00  0.00     0.002 A 
ATOM     21  C   UNL d   1      52.621  30.294  52.753  0.00  0.00     0.000 A 
ATOM     22  C   UNL d   1      53.156  30.805  52.380  0.00  0.00     0.002 A 
ATOM     23  C   UNL d   1      53.363  31.519  52.736  0.00  0.00     0.018 A 
ENDBRANCH   1  18
TORSDOF 5
ENDMDL
MODEL 7
REMARK VINA RESULT:      -7.5      1.268      3.570
REMARK  5 active torsions:
REMARK  status: ('A' for Active; 'I' for Inactive)
REMARK    1  A    between atoms: C_10  and  N_1 
REMARK    2  A    between atoms: S_7  and  C_2 
REMARK    3  A    between atoms: C_12  and  S_7 
REMARK    4  A    between atoms: C_9  and  C_12 
REMARK    5  A    between atoms: O_16  and  C_9 
ROOT
ATOM      1  N   UNL d   1      52.821  32.434  53.379  0.00  0.00    -0.254 N 
ATOM      2  C   UNL d   1      53.094  33.035  53.882  0.00  0.00     0.182 A 
ATOM      3  C   UNL d   1      52.219  32.596  52.832  0.00  0.00     0.274 A 
ATOM      4  C   UNL d   1      51.893  33.352  52.787  0.00  0.00     0.104 A 
ATOM      5  N   UNL d   1      52.766  33.798  53.838  0.00  0.00    -0.222 NA
ATOM      6  C   UNL d   1      52.167  33.953  53.290  0.00  0.00     0.095 A 
ATOM      7  S   UNL d   1      51.306  33.671  52.312  0.00  0.00    -0.080 SA
ATOM      8  O   UNL d   1      51.947  31.999  52.332  0.00  0.00    -0.266 OA
ATOM      9  C   UNL d   1      51.747  34.638  53.123  0.00  0.00     0.027 A 
ATOM     10  C   UNL d   1      51.218  34.473  52.525  0.00  0.00     0.037 A 
ENDROOT
BRANCH   2  11
ATOM     11  S   UNL d   1      53.699  32.874  54.434  0.00  0.00    -0.044 SA
BRANCH  11  12
ATOM     12  C   UNL d   1      53.931  33.480  54.952  0.00  0.00     0.095 C 
ATOM     13  C   UNL d   1      53.387  34.048  55.187  0.00  0.00     0.013 C 
BRANCH  12  14
ATOM     14  C   UNL d   1      54.513  33.500  55.159  0.00  0.00     0.302 C 
ATOM     15  O   UNL d   1      54.748  33.015  55.780  0.00  0.00    -0.259 OA
BRANCH  14  16
ATOM     16  O   UNL d   1      55.057  34.019  54.807  0.00  0.00    -0.295 OA
ATOM     17  C   UNL d   1      55.834  34.063  55.086  0.00  0.00     0.185 C 
ENDBRANCH  14  16
ENDBRANCH  12  14
ENDBRANCH  11  12
ENDBRANCH   2  11
BRANCH   1  18
ATOM     18  C   UNL d   1      53.144  31.680  53.423  0.00  0.00     0.069 A 
ATOM     19  C   UNL d   1      52.787  31.104  53.899  0.00  0.00     0.018 A 
ATOM     20  C   UNL d   1      53.110  30.346  53.944  0.00  0.00     0.002 A 
ATOM     21  C   UNL d   1      53.789  30.161  53.514  0.00  0.00     0.000 A 
ATOM     22  C   UNL d   1      54.146  30.737  53.037  0.00  0.00     0.002 A 
ATOM     23  C   UNL d   1      53.823  31.495  52.993  0.00  0.00     0.018 A 
ENDBRANCH   1  18
TORSDOF 5
ENDMDL
