MODEL 1
REMARK VINA RESULT:      16.1      0.000      0.000
REMARK  4 active torsions:
REMARK  status: ('A' for Active; 'I' for Inactive)
REMARK    1  A    between atoms: S_6  and  C_1 
REMARK    2  A    between atoms: C_19  and  S_6 
REMARK    3  A    between atoms: C_7  and  C_19 
REMARK       I    between atoms: N_10  and  C_7 
REMARK    4  A    between atoms: C_14  and  N_10 
ROOT
ATOM      1  C   UNL d   1      46.015 -16.553  44.493  0.00  0.00     0.286 C 
ATOM      2  N   UNL d   1      45.697 -17.301  44.601  0.00  0.00    -0.207 NA
ATOM      3  O   UNL d   1      46.593 -16.437  43.913  0.00  0.00    -0.265 OA
ENDROOT
BRANCH   1   4
ATOM      4  C   UNL d   1      45.764 -15.924  44.955  0.00  0.00     0.099 C 
BRANCH   4   5
ATOM      5  S   UNL d   1      45.981 -15.159  44.764  0.00  0.00    -0.062 SA
BRANCH   5   6
ATOM      6  C   UNL d   1      45.407 -14.570  44.683  0.00  0.00     0.114 A 
ATOM      7  C   UNL d   1      45.627 -13.778  44.663  0.00  0.00     0.042 A 
ATOM      8  C   UNL d   1      45.052 -13.188  44.583  0.00  0.00     0.085 A 
ATOM      9  C   UNL d   1      46.424 -13.574  44.723  0.00  0.00     0.004 A 
ATOM     10  C   UNL d   1      45.276 -12.395  44.563  0.00  0.00     0.019 A 
ATOM     11  N   UNL d   1      44.259 -13.390  44.523  0.00  0.00    -0.224 NA
ATOM     12  C   UNL d   1      46.072 -12.190  44.623  0.00  0.00     0.002 A 
ATOM     13  C   UNL d   1      46.647 -12.780  44.703  0.00  0.00     0.000 A 
ATOM     14  C   UNL d   1      44.035 -14.184  44.543  0.00  0.00     0.200 A 
ATOM     15  N   UNL d   1      44.610 -14.774  44.623  0.00  0.00    -0.217 NA
ENDBRANCH   5   6
ENDBRANCH   4   5
ENDBRANCH   1   4
BRANCH   2  16
ATOM     16  C   UNL d   1      45.948 -17.934  44.138  0.00  0.00     0.087 A 
ATOM     17  C   UNL d   1      45.844 -17.908  43.325  0.00  0.00     0.045 A 
ATOM     18  C   UNL d   1      46.095 -18.542  42.860  0.00  0.00     0.121 A 
ATOM     19  O   UNL d   1      46.064 -18.669  42.042  0.00  0.00    -0.299 OA
ATOM     20  C   UNL d   1      46.448 -19.195  43.213  0.00  0.00     0.119 A 
ATOM     21  C   UNL d   1      46.400 -19.404  41.899  0.00  0.00     0.304 A 
ATOM     22  O   UNL d   1      46.639 -19.734  42.617  0.00  0.00    -0.300 OA
ATOM     23  C   UNL d   1      46.548 -19.212  44.030  0.00  0.00     0.028 A 
ATOM     24  C   UNL d   1      46.301 -18.587  44.492  0.00  0.00     0.021 A 
ENDBRANCH   2  16
TORSDOF 4
ENDMDL
