MODEL 1
REMARK VINA RESULT:      -5.8      0.000      0.000
REMARK  7 active torsions:
REMARK  status: ('A' for Active; 'I' for Inactive)
REMARK    1  A    between atoms: C_2  and  N_1 
REMARK    2  A    between atoms: C_4  and  O_6 
REMARK    3  A    between atoms: C_11  and  C_4 
REMARK    4  A    between atoms: O_6  and  C_12 
REMARK    5  A    between atoms: O_10  and  C_11 
REMARK    6  A    between atoms: C_13  and  O_10 
REMARK    7  A    between atoms: C_21  and  C_16 
ROOT
ATOM      1  C   UNL d   1     -41.480-123.199 -51.967  0.00  0.00     0.325 C 
ATOM      2  O   UNL d   1     -41.889-123.817 -52.343  0.00  0.00    -0.256 OA
ENDROOT
BRANCH   1   3
ATOM      3  O   UNL d   1     -41.125-122.601 -52.413  0.00  0.00    -0.272 OA
BRANCH   3   4
ATOM      4  C   UNL d   1     -41.399-122.438 -53.174  0.00  0.00     0.103 A 
ATOM      5  C   UNL d   1     -41.874-121.780 -53.310  0.00  0.00     0.026 A 
ATOM      6  C   UNL d   1     -42.145-121.628 -54.093  0.00  0.00     0.026 A 
ATOM      7  C   UNL d   1     -41.945-122.122 -54.718  0.00  0.00     0.127 A 
ATOM      8  C   UNL d   1     -41.454-122.800 -54.575  0.00  0.00     0.026 A 
ATOM      9  C   UNL d   1     -41.192-122.938 -53.791  0.00  0.00     0.026 A 
BRANCH   7  10
ATOM     10  N   UNL d   1     -42.219-121.959 -55.478  0.00  0.00    -0.114 N 
ATOM     11  O   UNL d   1     -41.787-121.537 -56.048  0.00  0.00    -0.532 OA
ATOM     12  O   UNL d   1     -42.946-122.188 -55.770  0.00  0.00    -0.532 OA
ENDBRANCH   7  10
ENDBRANCH   3   4
ENDBRANCH   1   3
BRANCH   1  13
ATOM     13  C   UNL d   1     -41.428-123.183 -51.144  0.00  0.00     0.191 C 
BRANCH  13  14
ATOM     14  O   UNL d   1     -42.107-123.293 -50.685  0.00  0.00    -0.300 OA
BRANCH  14  15
ATOM     15  C   UNL d   1     -42.054-123.272 -49.834  0.00  0.00     0.100 A 
ATOM     16  C   UNL d   1     -41.330-123.389 -49.462  0.00  0.00     0.025 A 
ATOM     17  C   UNL d   1     -41.279-123.369 -48.639  0.00  0.00     0.002 A 
ATOM     18  C   UNL d   1     -41.952-123.234 -48.188  0.00  0.00     0.000 A 
ATOM     19  C   UNL d   1     -42.681-123.116 -48.558  0.00  0.00     0.002 A 
ATOM     20  C   UNL d   1     -42.732-123.136 -49.381  0.00  0.00     0.025 A 
BRANCH  18  21
ATOM     21  C   UNL d   1     -41.899-123.214 -47.342  0.00  0.00     0.000 C 
ATOM     22  C   UNL d   1     -42.461-123.611 -46.883  0.00  0.00     0.000 C 
ENDBRANCH  18  21
ENDBRANCH  14  15
ENDBRANCH  13  14
ENDBRANCH   1  13
TORSDOF 7
ENDMDL
MODEL 2
REMARK VINA RESULT:      -5.7      2.203      5.825
REMARK  7 active torsions:
REMARK  status: ('A' for Active; 'I' for Inactive)
REMARK    1  A    between atoms: C_2  and  N_1 
REMARK    2  A    between atoms: C_4  and  O_6 
REMARK    3  A    between atoms: C_11  and  C_4 
REMARK    4  A    between atoms: O_6  and  C_12 
REMARK    5  A    between atoms: O_10  and  C_11 
REMARK    6  A    between atoms: C_13  and  O_10 
REMARK    7  A    between atoms: C_21  and  C_16 
ROOT
ATOM      1  C   UNL d   1     -41.358-122.959 -50.922  0.00  0.00     0.325 C 
ATOM      2  O   UNL d   1     -41.134-122.228 -50.593  0.00  0.00    -0.256 OA
ENDROOT
BRANCH   1   3
ATOM      3  O   UNL d   1     -41.473-123.617 -50.437  0.00  0.00    -0.272 OA
BRANCH   3   4
ATOM      4  C   UNL d   1     -41.683-123.514 -49.645  0.00  0.00     0.103 A 
ATOM      5  C   UNL d   1     -41.125-123.625 -49.052  0.00  0.00     0.026 A 
ATOM      6  C   UNL d   1     -41.356-123.516 -48.250  0.00  0.00     0.026 A 
ATOM      7  C   UNL d   1     -42.123-123.301 -48.051  0.00  0.00     0.127 A 
ATOM      8  C   UNL d   1     -42.697-123.186 -48.666  0.00  0.00     0.026 A 
ATOM      9  C   UNL d   1     -42.453-123.299 -49.460  0.00  0.00     0.026 A 
BRANCH   7  10
ATOM     10  N   UNL d   1     -42.333-123.197 -47.260  0.00  0.00    -0.114 N 
ATOM     11  O   UNL d   1     -42.407-123.817 -46.714  0.00  0.00    -0.532 OA
ATOM     12  O   UNL d   1     -42.494-122.477 -46.913  0.00  0.00    -0.532 OA
ENDBRANCH   7  10
ENDBRANCH   3   4
ENDBRANCH   1   3
BRANCH   1  13
ATOM     13  C   UNL d   1     -41.465-123.025 -51.737  0.00  0.00     0.191 C 
BRANCH  13  14
ATOM     14  O   UNL d   1     -41.237-122.405 -52.235  0.00  0.00    -0.300 OA
BRANCH  14  15
ATOM     15  C   UNL d   1     -41.437-122.429 -53.064  0.00  0.00     0.100 A 
ATOM     16  C   UNL d   1     -41.943-121.865 -53.383  0.00  0.00     0.025 A 
ATOM     17  C   UNL d   1     -42.136-121.888 -54.185  0.00  0.00     0.002 A 
ATOM     18  C   UNL d   1     -41.824-122.475 -54.667  0.00  0.00     0.000 A 
ATOM     19  C   UNL d   1     -41.316-123.044 -54.349  0.00  0.00     0.002 A 
ATOM     20  C   UNL d   1     -41.123-123.020 -53.548  0.00  0.00     0.025 A 
BRANCH  18  21
ATOM     21  C   UNL d   1     -42.023-122.499 -55.491  0.00  0.00     0.000 C 
ATOM     22  C   UNL d   1     -42.304-121.819 -55.868  0.00  0.00     0.000 C 
ENDBRANCH  18  21
ENDBRANCH  14  15
ENDBRANCH  13  14
ENDBRANCH   1  13
TORSDOF 7
ENDMDL
