MODEL 1
REMARK VINA RESULT:      24.6      0.000      0.000
REMARK  5 active torsions:
REMARK  status: ('A' for Active; 'I' for Inactive)
REMARK    1  A    between atoms: C_13  and  C_4 
REMARK    2  A    between atoms: C_7  and  S_11 
REMARK    3  A    between atoms: O_14  and  C_7 
REMARK    4  A    between atoms: S_11  and  C_13 
REMARK    5  A    between atoms: C_16  and  O_14 
ROOT
ATOM      1  C   UNL d   1      13.992  13.025  -2.689  0.00  0.00     0.148 A 
ATOM      2  N   UNL d   1      13.801  12.370  -2.212  0.00  0.00    -0.288 N 
ATOM      3  N   UNL d   1      14.506  13.504  -2.231  0.00  0.00    -0.226 NA
ATOM      4  C   UNL d   1      14.625  13.157  -1.501  0.00  0.00     0.107 A 
ATOM      5  C   UNL d   1      14.184  12.445  -1.487  0.00  0.00     0.101 A 
ATOM      6  C   UNL d   1      13.684  13.095  -3.450  0.00  0.00     0.035 A 
ATOM      7  C   UNL d   1      13.291  11.785  -2.519  0.00  0.00     0.082 A 
ATOM      8  C   UNL d   1      12.986  11.862  -3.281  0.00  0.00     0.019 A 
ATOM      9  C   UNL d   1      13.180  12.512  -3.745  0.00  0.00     0.004 A 
ATOM     10  C   UNL d   1      13.877  13.753  -3.926  0.00  0.00     0.003 C 
ENDROOT
BRANCH   4  11
ATOM     11  C   UNL d   1      15.091  13.444  -0.884  0.00  0.00     0.059 C 
BRANCH  11  12
ATOM     12  S   UNL d   1      14.883  14.133  -0.499  0.00  0.00    -0.049 SA
BRANCH  12  13
ATOM     13  C   UNL d   1      15.475  14.675  -0.273  0.00  0.00     0.185 C 
ATOM     14  S   UNL d   1      16.201  14.399  -0.027  0.00  0.00    -0.044 SA
BRANCH  13  15
ATOM     15  O   UNL d   1      15.319  15.482  -0.300  0.00  0.00    -0.288 OA
BRANCH  15  16
ATOM     16  C   UNL d   1      15.159  16.287  -0.319  0.00  0.00     0.124 C 
ATOM     17  C   UNL d   1      15.070  16.675  -1.046  0.00  0.00     0.029 C 
ENDBRANCH  15  16
ENDBRANCH  13  15
ENDBRANCH  12  13
ENDBRANCH  11  12
ENDBRANCH   4  11
TORSDOF 5
ENDMDL
