MODEL 1
REMARK VINA RESULT:      -4.2      0.000      0.000
REMARK  7 active torsions:
REMARK  status: ('A' for Active; 'I' for Inactive)
REMARK    1  A    between atoms: C_2  and  S_1 
REMARK    2  A    between atoms: N_3  and  S_1 
REMARK    3  A    between atoms: C_15  and  N_3 
REMARK    4  A    between atoms: C_4  and  C_9 
REMARK       I    between atoms: N_5  and  C_4 
REMARK    5  A    between atoms: C_16  and  N_5 
REMARK    6  A    between atoms: C_18  and  C_15 
REMARK    7  A    between atoms: C_17  and  C_16 
ROOT
ATOM      1  C   UNL d   1      58.150  -0.646  29.855  0.00  0.00     0.058 A 
ATOM      2  C   UNL d   1      57.663  -1.149  30.315  0.00  0.00     0.005 A 
ATOM      3  C   UNL d   1      58.167   0.162  30.021  0.00  0.00     0.005 A 
ATOM      4  C   UNL d   1      57.231  -0.030  31.084  0.00  0.00     0.020 A 
ATOM      5  C   UNL d   1      57.212  -0.836  30.921  0.00  0.00     0.002 A 
ATOM      6  C   UNL d   1      57.710   0.472  30.633  0.00  0.00     0.002 A 
ENDROOT
BRANCH   4   7
ATOM      7  C   UNL d   1      56.769   0.283  31.702  0.00  0.00     0.112 C 
BRANCH   7   8
ATOM      8  N   UNL d   1      56.952   0.105  32.489  0.00  0.00    -0.157 NA
BRANCH   8   9
ATOM      9  S   UNL d   1      56.393   0.249  33.091  0.00  0.00     0.285 S 
ATOM     10  O   UNL d   1      55.824   0.446  32.515  0.00  0.00    -0.198 OA
ATOM     11  O   UNL d   1      56.967   0.051  33.658  0.00  0.00    -0.198 OA
BRANCH   9  12
ATOM     12  C   UNL d   1      55.840   0.391  33.694  0.00  0.00     0.106 A 
ATOM     13  C   UNL d   1      56.079   0.420  34.480  0.00  0.00     0.024 A 
ATOM     14  C   UNL d   1      55.527   0.561  35.076  0.00  0.00     0.059 A 
ATOM     15 CL   UNL d   1      55.773   0.590  35.872  0.00  0.00    -0.082 Cl
ATOM     16  C   UNL d   1      54.736   0.674  34.885  0.00  0.00     0.011 A 
ATOM     17  C   UNL d   1      54.498   0.645  34.099  0.00  0.00     0.002 A 
ATOM     18  C   UNL d   1      55.050   0.504  33.503  0.00  0.00     0.013 A 
ENDBRANCH   9  12
ENDBRANCH   8   9
ENDBRANCH   7   8
ENDBRANCH   4   7
BRANCH   1  19
ATOM     19  C   UNL d   1      58.614  -0.955  29.236  0.00  0.00     0.279 C 
ATOM     20  N   UNL d   1      59.071  -1.626  29.364  0.00  0.00    -0.205 NA
ATOM     21  O   UNL d   1      58.614  -0.585  28.489  0.00  0.00    -0.265 OA
BRANCH  20  22
ATOM     22  C   UNL d   1      59.534  -1.936  28.750  0.00  0.00     0.121 C 
BRANCH  22  23
ATOM     23  C   UNL d   1      59.929  -2.655  28.863  0.00  0.00     0.101 A 
ATOM     24  N   UNL d   1      59.542  -3.360  28.681  0.00  0.00    -0.242 NA
ATOM     25  C   UNL d   1      59.940  -4.072  28.796  0.00  0.00     0.099 A 
ATOM     26  C   UNL d   1      60.709  -4.085  29.086  0.00  0.00     0.021 A 
ATOM     27  C   UNL d   1      61.088  -3.367  29.266  0.00  0.00     0.003 A 
ATOM     28  C   UNL d   1      60.691  -2.651  29.151  0.00  0.00     0.021 A 
ENDBRANCH  22  23
ENDBRANCH  20  22
ENDBRANCH   1  19
TORSDOF 7
ENDMDL
