MODEL 1
REMARK VINA RESULT:      -6.9      0.000      0.000
REMARK  9 active torsions:
REMARK  status: ('A' for Active; 'I' for Inactive)
REMARK    1  A    between atoms: C_14  and  N_1 
REMARK    2  A    between atoms: S_6  and  C_2 
REMARK    3  A    between atoms: C_8  and  C_3 
REMARK    4  A    between atoms: C_16  and  S_6 
REMARK    5  A    between atoms: O_11  and  C_8 
REMARK    6  A    between atoms: C_9  and  C_16 
REMARK    7  A    between atoms: O_19  and  C_9 
REMARK    8  A    between atoms: C_12  and  O_11 
REMARK    9  A    between atoms: C_15  and  C_14 
ROOT
ATOM      1  N   UNL d   1     -47.046  12.418  22.962  0.00  0.00    -0.266 N 
ATOM      2  C   UNL d   1     -46.716  11.795  23.379  0.00  0.00     0.202 A 
ATOM      3  C   UNL d   1     -47.868  12.351  23.016  0.00  0.00     0.196 A 
ATOM      4  N   UNL d   1     -47.328  11.340  23.692  0.00  0.00    -0.121 NA
ATOM      5  N   UNL d   1     -48.045  11.687  23.466  0.00  0.00    -0.126 NA
ENDROOT
BRANCH   3   6
ATOM      6  C   UNL d   1     -48.420  12.863  22.676  0.00  0.00     0.162 C 
BRANCH   6   7
ATOM      7  O   UNL d   1     -49.175  12.933  23.004  0.00  0.00    -0.300 OA
BRANCH   7   8
ATOM      8  C   UNL d   1     -49.791  13.262  22.564  0.00  0.00     0.118 A 
ATOM      9  C   UNL d   1     -50.118  13.977  22.795  0.00  0.00     0.104 A 
ATOM     10  N   UNL d   1     -49.831  14.366  23.466  0.00  0.00    -0.242 NA
ATOM     11  C   UNL d   1     -50.733  14.311  22.361  0.00  0.00     0.020 A 
ATOM     12  C   UNL d   1     -50.157  15.080  23.696  0.00  0.00     0.099 A 
ATOM     13  C   UNL d   1     -50.777  15.422  23.263  0.00  0.00     0.021 A 
ATOM     14  C   UNL d   1     -51.061  15.031  22.594  0.00  0.00     0.003 A 
ATOM     15  C   UNL d   1     -51.023  13.925  21.690  0.00  0.00     0.002 A 
ATOM     16  C   UNL d   1     -50.690  13.205  21.461  0.00  0.00     0.002 A 
ATOM     17  C   UNL d   1     -50.082  12.876  21.892  0.00  0.00     0.026 A 
ENDBRANCH   7   8
ENDBRANCH   6   7
ENDBRANCH   3   6
BRANCH   1  18
ATOM     18  C   UNL d   1     -46.638  13.005  22.561  0.00  0.00     0.084 C 
BRANCH  18  19
ATOM     19  C   UNL d   1     -46.461  13.714  22.945  0.00  0.00     0.019 C 
ATOM     20  C   UNL d   1     -46.107  14.328  22.529  0.00  0.00     0.002 C 
ENDBRANCH  18  19
ENDBRANCH   1  18
BRANCH   2  21
ATOM     21  S   UNL d   1     -45.916  11.642  23.473  0.00  0.00    -0.042 SA
BRANCH  21  22
ATOM     22  C   UNL d   1     -45.609  10.889  23.336  0.00  0.00     0.107 C 
BRANCH  22  23
ATOM     23  C   UNL d   1     -44.802  10.751  23.384  0.00  0.00     0.303 C 
ATOM     24  O   UNL d   1     -44.265  11.325  23.119  0.00  0.00    -0.259 OA
BRANCH  23  25
ATOM     25  O   UNL d   1     -44.514  10.043  23.696  0.00  0.00    -0.295 OA
ATOM     26  C   UNL d   1     -43.761   9.776  23.505  0.00  0.00     0.185 C 
ENDBRANCH  23  25
ENDBRANCH  22  23
ENDBRANCH  21  22
ENDBRANCH   2  21
TORSDOF 9
ENDMDL
MODEL 2
REMARK VINA RESULT:      -5.5      1.827      5.652
REMARK  9 active torsions:
REMARK  status: ('A' for Active; 'I' for Inactive)
REMARK    1  A    between atoms: C_14  and  N_1 
REMARK    2  A    between atoms: S_6  and  C_2 
REMARK    3  A    between atoms: C_8  and  C_3 
REMARK    4  A    between atoms: C_16  and  S_6 
REMARK    5  A    between atoms: O_11  and  C_8 
REMARK    6  A    between atoms: C_9  and  C_16 
REMARK    7  A    between atoms: O_19  and  C_9 
REMARK    8  A    between atoms: C_12  and  O_11 
REMARK    9  A    between atoms: C_15  and  C_14 
ROOT
ATOM      1  N   UNL d   1     -48.166  13.117  23.121  0.00  0.00    -0.266 N 
ATOM      2  C   UNL d   1     -48.505  13.831  22.902  0.00  0.00     0.202 A 
ATOM      3  C   UNL d   1     -47.356  13.162  22.962  0.00  0.00     0.196 A 
ATOM      4  N   UNL d   1     -47.909  14.320  22.608  0.00  0.00    -0.121 NA
ATOM      5  N   UNL d   1     -47.195  13.902  22.646  0.00  0.00    -0.126 NA
ENDROOT
BRANCH   3   6
ATOM      6  C   UNL d   1     -46.803  12.565  23.097  0.00  0.00     0.162 C 
BRANCH   6   7
ATOM      7  O   UNL d   1     -46.024  12.657  22.835  0.00  0.00    -0.300 OA
BRANCH   7   8
ATOM      8  C   UNL d   1     -45.468  12.061  22.965  0.00  0.00     0.118 A 
ATOM      9  C   UNL d   1     -44.734  12.105  22.605  0.00  0.00     0.104 A 
ATOM     10  N   UNL d   1     -44.552  12.744  22.113  0.00  0.00    -0.242 NA
ATOM     11  C   UNL d   1     -44.173  11.514  22.730  0.00  0.00     0.020 A 
ATOM     12  C   UNL d   1     -43.819  12.789  21.752  0.00  0.00     0.099 A 
ATOM     13  C   UNL d   1     -43.251  12.197  21.874  0.00  0.00     0.021 A 
ATOM     14  C   UNL d   1     -43.435  11.560  22.366  0.00  0.00     0.003 A 
ATOM     15  C   UNL d   1     -44.351  10.874  23.221  0.00  0.00     0.002 A 
ATOM     16  C   UNL d   1     -45.092  10.834  23.582  0.00  0.00     0.002 A 
ATOM     17  C   UNL d   1     -45.645  11.419  23.457  0.00  0.00     0.026 A 
ENDBRANCH   7   8
ENDBRANCH   6   7
ENDBRANCH   3   6
BRANCH   1  18
ATOM     18  C   UNL d   1     -48.558  12.472  23.440  0.00  0.00     0.084 C 
BRANCH  18  19
ATOM     19  C   UNL d   1     -48.803  11.858  22.946  0.00  0.00     0.019 C 
ATOM     20  C   UNL d   1     -49.278  11.257  23.245  0.00  0.00     0.002 C 
ENDBRANCH  18  19
ENDBRANCH   1  18
BRANCH   2  21
ATOM     21  S   UNL d   1     -49.297  14.033  22.963  0.00  0.00    -0.042 SA
BRANCH  21  22
ATOM     22  C   UNL d   1     -49.544  14.813  22.862  0.00  0.00     0.107 C 
BRANCH  22  23
ATOM     23  C   UNL d   1     -50.343  15.003  22.871  0.00  0.00     0.303 C 
ATOM     24  O   UNL d   1     -50.774  15.017  22.162  0.00  0.00    -0.259 OA
BRANCH  23  25
ATOM     25  O   UNL d   1     -50.725  15.182  23.579  0.00  0.00    -0.295 OA
ATOM     26  C   UNL d   1     -51.064  15.922  23.698  0.00  0.00     0.185 C 
ENDBRANCH  23  25
ENDBRANCH  22  23
ENDBRANCH  21  22
ENDBRANCH   2  21
TORSDOF 9
ENDMDL
MODEL 3
REMARK VINA RESULT:      -4.6      1.519      5.505
REMARK  9 active torsions:
REMARK  status: ('A' for Active; 'I' for Inactive)
REMARK    1  A    between atoms: C_14  and  N_1 
REMARK    2  A    between atoms: S_6  and  C_2 
REMARK    3  A    between atoms: C_8  and  C_3 
REMARK    4  A    between atoms: C_16  and  S_6 
REMARK    5  A    between atoms: O_11  and  C_8 
REMARK    6  A    between atoms: C_9  and  C_16 
REMARK    7  A    between atoms: O_19  and  C_9 
REMARK    8  A    between atoms: C_12  and  O_11 
REMARK    9  A    between atoms: C_15  and  C_14 
ROOT
ATOM      1  N   UNL d   1     -47.733  12.996  23.222  0.00  0.00    -0.266 N 
ATOM      2  C   UNL d   1     -48.464  12.626  23.254  0.00  0.00     0.202 A 
ATOM      3  C   UNL d   1     -47.154  12.409  23.161  0.00  0.00     0.196 A 
ATOM      4  N   UNL d   1     -48.342  11.811  23.213  0.00  0.00    -0.121 NA
ATOM      5  N   UNL d   1     -47.527  11.677  23.155  0.00  0.00    -0.126 NA
ENDROOT
BRANCH   3   6
ATOM      6  C   UNL d   1     -46.340  12.534  23.114  0.00  0.00     0.162 C 
BRANCH   6   7
ATOM      7  O   UNL d   1     -45.820  11.892  23.152  0.00  0.00    -0.300 OA
BRANCH   7   8
ATOM      8  C   UNL d   1     -45.059  11.954  22.838  0.00  0.00     0.118 A 
ATOM      9  C   UNL d   1     -44.498  11.385  23.020  0.00  0.00     0.104 A 
ATOM     10  N   UNL d   1     -44.695  10.753  23.515  0.00  0.00    -0.242 NA
ATOM     11  C   UNL d   1     -43.736  11.440  22.711  0.00  0.00     0.020 A 
ATOM     12  C   UNL d   1     -44.135  10.185  23.697  0.00  0.00     0.099 A 
ATOM     13  C   UNL d   1     -43.366  10.235  23.389  0.00  0.00     0.021 A 
ATOM     14  C   UNL d   1     -43.173  10.867  22.896  0.00  0.00     0.003 A 
ATOM     15  C   UNL d   1     -43.535  12.071  22.216  0.00  0.00     0.002 A 
ATOM     16  C   UNL d   1     -44.104  12.641  22.036  0.00  0.00     0.002 A 
ATOM     17  C   UNL d   1     -44.857  12.585  22.342  0.00  0.00     0.026 A 
ENDBRANCH   7   8
ENDBRANCH   6   7
ENDBRANCH   3   6
BRANCH   1  18
ATOM     18  C   UNL d   1     -47.596  13.804  23.247  0.00  0.00     0.084 C 
BRANCH  18  19
ATOM     19  C   UNL d   1     -47.480  14.220  22.543  0.00  0.00     0.019 C 
ATOM     20  C   UNL d   1     -47.330  15.028  22.565  0.00  0.00     0.002 C 
ENDBRANCH  18  19
ENDBRANCH   1  18
BRANCH   2  21
ATOM     21  S   UNL d   1     -49.193  12.994  23.316  0.00  0.00    -0.042 SA
BRANCH  21  22
ATOM     22  C   UNL d   1     -49.883  12.611  23.076  0.00  0.00     0.107 C 
BRANCH  22  23
ATOM     23  C   UNL d   1     -50.539  13.042  22.835  0.00  0.00     0.303 C 
ATOM     24  O   UNL d   1     -51.026  13.407  23.399  0.00  0.00    -0.259 OA
BRANCH  23  25
ATOM     25  O   UNL d   1     -50.721  13.118  22.034  0.00  0.00    -0.295 OA
ATOM     26  C   UNL d   1     -51.064  13.807  21.746  0.00  0.00     0.185 C 
ENDBRANCH  23  25
ENDBRANCH  22  23
ENDBRANCH  21  22
ENDBRANCH   2  21
TORSDOF 9
ENDMDL
