MODEL 1
REMARK VINA RESULT:      61.9      0.000      0.000
REMARK  5 active torsions:
REMARK  status: ('A' for Active; 'I' for Inactive)
REMARK    1  A    between atoms: C_5  and  C_1 
REMARK    2  A    between atoms: C_12  and  C_5 
REMARK    3  A    between atoms: C_7  and  C_22 
REMARK       I    between atoms: N_21  and  C_12 
REMARK    4  A    between atoms: C_23  and  N_21 
REMARK    5  A    between atoms: C_22  and  C_23 
ROOT
ATOM      1  C   UNL d   1     -49.463  27.937  34.082  0.00  0.00     0.102 C 
ENDROOT
BRANCH   1   2
ATOM      2  C   UNL d   1     -49.798  27.713  33.362  0.00  0.00     0.026 C 
BRANCH   2   3
ATOM      3  C   UNL d   1     -50.415  27.147  33.348  0.00  0.00     0.059 A 
ATOM      4  C   UNL d   1     -51.200  27.395  33.323  0.00  0.00     0.279 A 
ATOM      5  N   UNL d   1     -51.808  26.841  33.310  0.00  0.00    -0.208 NA
ATOM      6  O   UNL d   1     -51.376  28.211  33.311  0.00  0.00    -0.265 OA
ATOM      7  C   UNL d   1     -51.638  26.040  33.321  0.00  0.00     0.085 A 
ATOM      8  C   UNL d   1     -50.845  25.789  33.347  0.00  0.00     0.018 A 
ATOM      9  C   UNL d   1     -52.242  25.484  33.308  0.00  0.00     0.019 A 
ATOM     10  C   UNL d   1     -50.233  26.343  33.360  0.00  0.00     0.006 A 
ATOM     11  C   UNL d   1     -50.668  24.987  33.358  0.00  0.00     0.002 A 
ATOM     12  C   UNL d   1     -51.279  24.432  33.345  0.00  0.00     0.000 A 
ATOM     13  C   UNL d   1     -52.068  24.683  33.320  0.00  0.00     0.002 A 
ATOM     14  C   UNL d   1     -51.103  23.616  33.357  0.00  0.00     0.000 C 
ATOM     15  C   UNL d   1     -52.680  24.129  33.306  0.00  0.00     0.000 C 
ENDBRANCH   2   3
ENDBRANCH   1   2
BRANCH   1  16
ATOM     16  N   UNL d   1     -48.699  27.700  34.263  0.00  0.00    -0.204 NA
ATOM     17  C   UNL d   1     -48.129  28.264  34.441  0.00  0.00     0.318 C 
ATOM     18  O   UNL d   1     -47.361  28.029  34.624  0.00  0.00    -0.262 OA
BRANCH  17  19
ATOM     19  C   UNL d   1     -48.325  29.073  34.437  0.00  0.00     0.254 C 
ATOM     20  O   UNL d   1     -48.906  29.349  33.919  0.00  0.00    -0.281 OA
BRANCH  19  21
ATOM     21  C   UNL d   1     -47.942  29.589  34.946  0.00  0.00     0.064 A 
ATOM     22  C   UNL d   1     -47.592  29.405  35.672  0.00  0.00     0.102 A 
ATOM     23  N   UNL d   1     -47.271  30.088  35.997  0.00  0.00    -0.244 NA
ATOM     24  C   UNL d   1     -47.420  30.707  35.472  0.00  0.00     0.082 A 
ATOM     25  C   UNL d   1     -47.833  30.400  34.824  0.00  0.00     0.022 A 
ATOM     26  C   UNL d   1     -47.234  31.510  35.498  0.00  0.00     0.019 A 
ATOM     27  C   UNL d   1     -48.058  30.895  34.207  0.00  0.00     0.002 A 
ATOM     28  C   UNL d   1     -47.869  31.706  34.235  0.00  0.00     0.000 A 
ATOM     29  C   UNL d   1     -47.459  32.005  34.881  0.00  0.00     0.002 A 
ENDBRANCH  19  21
ENDBRANCH  17  19
ENDBRANCH   1  16
TORSDOF 5
ENDMDL
