MODEL 1
REMARK VINA RESULT:      -2.6      0.000      0.000
REMARK  6 active torsions:
REMARK  status: ('A' for Active; 'I' for Inactive)
REMARK    1  A    between atoms: C_13  and  C_3 
REMARK    2  A    between atoms: N_16  and  C_4 
REMARK    3  A    between atoms: N_11  and  C_17 
REMARK    4  A    between atoms: C_20  and  N_16 
REMARK    5  A    between atoms: C_17  and  C_18 
REMARK    6  A    between atoms: C_18  and  C_20 
ROOT
ATOM      1  C   UNL d   1      32.899  21.166 -22.094  0.00  0.00     0.167 A 
ATOM      2  N   UNL d   1      32.984  20.348 -22.148  0.00  0.00    -0.195 N 
ATOM      3  C   UNL d   1      32.736  21.350 -21.313  0.00  0.00     0.057 A 
ATOM      4  C   UNL d   1      33.152  19.999 -22.875  0.00  0.00     0.167 A 
ATOM      5  N   UNL d   1      32.871  20.034 -21.401  0.00  0.00    -0.161 NA
ATOM      6  N   UNL d   1      32.983  21.635 -22.766  0.00  0.00    -0.227 NA
ATOM      7  C   UNL d   1      33.236  20.472 -23.549  0.00  0.00     0.058 A 
ATOM      8  C   UNL d   1      32.720  20.643 -20.888  0.00  0.00     0.124 A 
ATOM      9  C   UNL d   1      33.153  21.281 -23.495  0.00  0.00     0.086 A 
ATOM     10  C   UNL d   1      33.241  21.733 -24.181  0.00  0.00     0.021 C 
ENDROOT
BRANCH   4  11
ATOM     11  N   UNL d   1      33.237  19.181 -22.929  0.00  0.00    -0.225 NA
BRANCH  11  12
ATOM     12  C   UNL d   1      33.029  18.791 -23.624  0.00  0.00     0.102 C 
BRANCH  12  13
ATOM     13  C   UNL d   1      32.788  17.994 -23.598  0.00  0.00     0.040 C 
BRANCH  13  14
ATOM     14  C   UNL d   1      32.398  17.664 -24.241  0.00  0.00     0.083 C 
BRANCH  14  15
ATOM     15  N   UNL d   1      32.060  16.910 -24.175  0.00  0.00    -0.285 N 
ATOM     16  C   UNL d   1      31.577  16.557 -23.595  0.00  0.00     0.183 A 
ATOM     17  N   UNL d   1      31.414  15.797 -23.831  0.00  0.00    -0.222 NA
ATOM     18  C   UNL d   1      31.784  15.657 -24.549  0.00  0.00     0.120 A 
ATOM     19  C   UNL d   1      32.185  16.346 -24.764  0.00  0.00     0.102 A 
ENDBRANCH  14  15
ENDBRANCH  13  14
ENDBRANCH  12  13
ENDBRANCH  11  12
ENDBRANCH   4  11
BRANCH   3  20
ATOM     20  C   UNL d   1      32.620  22.136 -21.080  0.00  0.00     0.004 A 
ATOM     21  C   UNL d   1      33.206  22.516 -20.636  0.00  0.00     0.000 A 
ATOM     22  C   UNL d   1      33.099  23.295 -20.401  0.00  0.00     0.000 A 
ATOM     23  C   UNL d   1      32.402  23.702 -20.608  0.00  0.00     0.000 A 
ATOM     24  C   UNL d   1      31.825  23.315 -21.050  0.00  0.00     0.000 A 
ATOM     25  C   UNL d   1      31.936  22.532 -21.285  0.00  0.00     0.000 A 
ENDBRANCH   3  20
TORSDOF 6
ENDMDL
MODEL 2
REMARK VINA RESULT:      -0.5      1.438      5.726
REMARK  6 active torsions:
REMARK  status: ('A' for Active; 'I' for Inactive)
REMARK    1  A    between atoms: C_13  and  C_3 
REMARK    2  A    between atoms: N_16  and  C_4 
REMARK    3  A    between atoms: N_11  and  C_17 
REMARK    4  A    between atoms: C_20  and  N_16 
REMARK    5  A    between atoms: C_17  and  C_18 
REMARK    6  A    between atoms: C_18  and  C_20 
ROOT
ATOM      1  C   UNL d   1      31.398  17.448 -23.843  0.00  0.00     0.167 A 
ATOM      2  N   UNL d   1      31.698  18.212 -23.777  0.00  0.00    -0.195 N 
ATOM      3  C   UNL d   1      30.672  17.494 -24.217  0.00  0.00     0.057 A 
ATOM      4  C   UNL d   1      32.429  18.339 -23.420  0.00  0.00     0.167 A 
ATOM      5  N   UNL d   1      31.154  18.724 -24.112  0.00  0.00    -0.161 NA
ATOM      6  N   UNL d   1      31.829  16.810 -23.550  0.00  0.00    -0.227 NA
ATOM      7  C   UNL d   1      32.861  17.696 -23.126  0.00  0.00     0.058 A 
ATOM      8  C   UNL d   1      30.526  18.289 -24.382  0.00  0.00     0.124 A 
ATOM      9  C   UNL d   1      32.564  16.939 -23.191  0.00  0.00     0.086 A 
ATOM     10  C   UNL d   1      33.012  16.314 -22.891  0.00  0.00     0.021 C 
ENDROOT
BRANCH   4  11
ATOM     11  N   UNL d   1      32.728  19.104 -23.354  0.00  0.00    -0.225 NA
BRANCH  11  12
ATOM     12  C   UNL d   1      33.127  19.334 -22.671  0.00  0.00     0.102 C 
BRANCH  12  13
ATOM     13  C   UNL d   1      33.045  20.111 -22.382  0.00  0.00     0.040 C 
BRANCH  13  14
ATOM     14  C   UNL d   1      32.752  20.236 -21.625  0.00  0.00     0.083 C 
BRANCH  14  15
ATOM     15  N   UNL d   1      32.928  20.941 -21.227  0.00  0.00    -0.285 N 
ATOM     16  C   UNL d   1      33.127  21.107 -20.434  0.00  0.00     0.183 A 
ATOM     17  N   UNL d   1      33.241  21.907 -20.364  0.00  0.00    -0.222 NA
ATOM     18  C   UNL d   1      33.119  22.257 -21.096  0.00  0.00     0.120 A 
ATOM     19  C   UNL d   1      32.925  21.659 -21.632  0.00  0.00     0.102 A 
ENDBRANCH  14  15
ENDBRANCH  13  14
ENDBRANCH  12  13
ENDBRANCH  11  12
ENDBRANCH   4  11
BRANCH   3  20
ATOM     20  C   UNL d   1      30.229  16.811 -24.365  0.00  0.00     0.004 A 
ATOM     21  C   UNL d   1      29.511  16.700 -23.968  0.00  0.00     0.000 A 
ATOM     22  C   UNL d   1      29.066  16.025 -24.109  0.00  0.00     0.000 A 
ATOM     23  C   UNL d   1      29.336  15.453 -24.652  0.00  0.00     0.000 A 
ATOM     24  C   UNL d   1      30.051  15.572 -25.042  0.00  0.00     0.000 A 
ATOM     25  C   UNL d   1      30.496  16.252 -24.898  0.00  0.00     0.000 A 
ENDBRANCH   3  20
TORSDOF 6
ENDMDL
MODEL 3
REMARK VINA RESULT:      -0.3      1.141      1.658
REMARK  6 active torsions:
REMARK  status: ('A' for Active; 'I' for Inactive)
REMARK    1  A    between atoms: C_13  and  C_3 
REMARK    2  A    between atoms: N_16  and  C_4 
REMARK    3  A    between atoms: N_11  and  C_17 
REMARK    4  A    between atoms: C_20  and  N_16 
REMARK    5  A    between atoms: C_17  and  C_18 
REMARK    6  A    between atoms: C_18  and  C_20 
ROOT
ATOM      1  C   UNL d   1      32.939  21.709 -20.782  0.00  0.00     0.167 A 
ATOM      2  N   UNL d   1      33.065  20.948 -21.073  0.00  0.00    -0.195 N 
ATOM      3  C   UNL d   1      32.916  21.664 -19.965  0.00  0.00     0.057 A 
ATOM      4  C   UNL d   1      33.114  20.821 -21.885  0.00  0.00     0.167 A 
ATOM      5  N   UNL d   1      33.119  20.441 -20.434  0.00  0.00    -0.161 NA
ATOM      6  N   UNL d   1      32.861  22.342 -21.303  0.00  0.00    -0.227 NA
ATOM      7  C   UNL d   1      33.036  21.460 -22.407  0.00  0.00     0.058 A 
ATOM      8  C   UNL d   1      33.028  20.874 -19.755  0.00  0.00     0.124 A 
ATOM      9  C   UNL d   1      32.911  22.212 -22.119  0.00  0.00     0.086 A 
ATOM     10  C   UNL d   1      32.836  22.833 -22.659  0.00  0.00     0.021 C 
ENDROOT
BRANCH   4  11
ATOM     11  N   UNL d   1      33.241  20.061 -22.177  0.00  0.00    -0.225 NA
BRANCH  11  12
ATOM     12  C   UNL d   1      32.699  19.724 -22.697  0.00  0.00     0.102 C 
BRANCH  12  13
ATOM     13  C   UNL d   1      32.933  19.099 -23.196  0.00  0.00     0.040 C 
BRANCH  13  14
ATOM     14  C   UNL d   1      32.560  18.370 -23.139  0.00  0.00     0.083 C 
BRANCH  14  15
ATOM     15  N   UNL d   1      32.477  17.896 -23.815  0.00  0.00    -0.285 N 
ATOM     16  C   UNL d   1      32.771  17.965 -24.592  0.00  0.00     0.183 A 
ATOM     17  N   UNL d   1      32.506  17.329 -25.020  0.00  0.00    -0.222 NA
ATOM     18  C   UNL d   1      32.048  16.854 -24.533  0.00  0.00     0.120 A 
ATOM     19  C   UNL d   1      32.029  17.205 -23.785  0.00  0.00     0.102 A 
ENDBRANCH  14  15
ENDBRANCH  13  14
ENDBRANCH  12  13
ENDBRANCH  11  12
ENDBRANCH   4  11
BRANCH   3  20
ATOM     20  C   UNL d   1      32.796  22.344 -19.508  0.00  0.00     0.004 A 
ATOM     21  C   UNL d   1      32.220  22.891 -19.740  0.00  0.00     0.000 A 
ATOM     22  C   UNL d   1      32.096  23.567 -19.292  0.00  0.00     0.000 A 
ATOM     23  C   UNL d   1      32.547  23.702 -18.605  0.00  0.00     0.000 A 
ATOM     24  C   UNL d   1      33.117  23.151 -18.382  0.00  0.00     0.000 A 
ATOM     25  C   UNL d   1      33.240  22.472 -18.835  0.00  0.00     0.000 A 
ENDBRANCH   3  20
TORSDOF 6
ENDMDL
