MODEL 1
REMARK VINA RESULT:      25.9      0.000      0.000
REMARK  4 active torsions:
REMARK  status: ('A' for Active; 'I' for Inactive)
REMARK    1  A    between atoms: N_3  and  C_1 
REMARK    2  A    between atoms: C_6  and  C_2 
REMARK    3  A    between atoms: C_13  and  N_8 
REMARK    4  A    between atoms: C_16  and  C_13 
ROOT
ATOM      1  N   UNL d   1      45.655 -15.879  44.526  0.00  0.00    -0.286 N 
ATOM      2  N   UNL d   1      46.315 -17.279  43.916  0.00  0.00    -0.300 N 
ATOM      3  C   UNL d   1      45.337 -16.223  43.848  0.00  0.00     0.101 A 
ATOM      4  C   UNL d   1      46.306 -16.229  44.911  0.00  0.00     0.101 A 
ATOM      5  C   UNL d   1      46.631 -16.922  44.607  0.00  0.00     0.100 A 
ATOM      6  C   UNL d   1      45.667 -16.922  43.543  0.00  0.00     0.100 A 
ENDROOT
BRANCH   1   7
ATOM      7  C   UNL d   1      45.171 -15.213  44.631  0.00  0.00     0.149 A 
ATOM      8  C   UNL d   1      45.519 -14.453  44.622  0.00  0.00     0.056 A 
ATOM      9  C   UNL d   1      45.040 -13.793  44.726  0.00  0.00     0.006 A 
ATOM     10  C   UNL d   1      45.368 -13.027  44.720  0.00  0.00     0.000 C 
ATOM     11  C   UNL d   1      44.218 -13.890  44.837  0.00  0.00     0.019 A 
ATOM     12  C   UNL d   1      43.882 -14.651  44.844  0.00  0.00     0.083 A 
ATOM     13  N   UNL d   1      44.364 -15.309  44.740  0.00  0.00    -0.228 NA
ATOM     14  C   UNL d   1      43.066 -14.743  44.955  0.00  0.00     0.021 C 
BRANCH   8  15
ATOM     15  C   UNL d   1      46.328 -14.365  44.512  0.00  0.00     0.125 C 
ATOM     16  N   UNL d   1      46.615 -13.781  44.008  0.00  0.00    -0.146 N 
ENDBRANCH   8  15
ENDBRANCH   1   7
BRANCH   2  17
ATOM     17  C   UNL d   1      46.647 -17.973  43.619  0.00  0.00     0.080 C 
BRANCH  17  18
ATOM     18  C   UNL d   1      46.308 -18.705  43.793  0.00  0.00     0.018 A 
ATOM     19  C   UNL d   1      46.302 -18.977  44.568  0.00  0.00     0.002 A 
ATOM     20  C   UNL d   1      45.963 -19.709  44.742  0.00  0.00     0.000 A 
ATOM     21  C   UNL d   1      45.636 -20.157  44.139  0.00  0.00     0.000 A 
ATOM     22  C   UNL d   1      45.640 -19.886  43.359  0.00  0.00     0.000 A 
ATOM     23  C   UNL d   1      45.980 -19.153  43.190  0.00  0.00     0.002 A 
ENDBRANCH  17  18
ENDBRANCH   2  17
TORSDOF 4
ENDMDL
