MODEL 1
REMARK VINA RESULT:      -5.0      0.000      0.000
REMARK  4 active torsions:
REMARK  status: ('A' for Active; 'I' for Inactive)
REMARK    1  A    between atoms: C_10  and  C_1 
REMARK    2  A    between atoms: N_7  and  C_4 
REMARK    3  A    between atoms: N_16  and  C_9 
REMARK    4  A    between atoms: C_15  and  C_10 
ROOT
ATOM      1  C   UNL d   1     -41.739-122.524 -51.488  0.00  0.00     0.143 A 
ATOM      2  C   UNL d   1     -41.597-123.324 -51.326  0.00  0.00     0.086 A 
ATOM      3  C   UNL d   1     -41.580-122.218 -52.238  0.00  0.00     0.025 A 
ATOM      4  C   UNL d   1     -41.295-123.813 -51.923  0.00  0.00     0.019 A 
ATOM      5  C   UNL d   1     -41.281-122.713 -52.823  0.00  0.00     0.002 A 
ATOM      6  C   UNL d   1     -41.139-123.513 -52.661  0.00  0.00     0.002 A 
ENDROOT
BRANCH   5   7
ATOM      7  C   UNL d   1     -41.123-122.406 -53.571  0.00  0.00     0.010 C 
BRANCH   7   8
ATOM      8  C   UNL d   1     -41.739-122.386 -54.137  0.00  0.00     0.116 A 
ATOM      9  C   UNL d   1     -41.918-123.073 -54.542  0.00  0.00     0.288 A 
ATOM     10  N   UNL d   1     -42.524-123.060 -55.101  0.00  0.00    -0.152 NA
ATOM     11  O   UNL d   1     -41.504-123.764 -54.397  0.00  0.00    -0.265 OA
ATOM     12  C   UNL d   1     -42.943-122.362 -55.247  0.00  0.00     0.374 A 
ATOM     13  N   UNL d   1     -42.752-121.684 -54.834  0.00  0.00    -0.152 NA
ATOM     14  O   UNL d   1     -43.553-122.342 -55.807  0.00  0.00    -0.242 OA
ATOM     15  C   UNL d   1     -42.158-121.688 -54.284  0.00  0.00     0.288 A 
ATOM     16  O   UNL d   1     -41.975-120.987 -53.870  0.00  0.00    -0.265 OA
ENDBRANCH   7   8
ENDBRANCH   5   7
BRANCH   1  17
ATOM     17  N   UNL d   1     -42.036-122.037 -50.904  0.00  0.00    -0.112 N 
ATOM     18  O   UNL d   1     -41.514-121.625 -50.424  0.00  0.00    -0.532 OA
ATOM     19  O   UNL d   1     -42.843-121.975 -50.817  0.00  0.00    -0.532 OA
ENDBRANCH   1  17
BRANCH   2  20
ATOM     20  N   UNL d   1     -41.755-123.623 -50.583  0.00  0.00    -0.300 N 
ATOM     21  C   UNL d   1     -41.130-123.800 -50.068  0.00  0.00     0.100 C 
ATOM     22  C   UNL d   1     -42.522-123.741 -50.365  0.00  0.00     0.100 C 
ENDBRANCH   2  20
TORSDOF 4
ENDMDL
MODEL 2
REMARK VINA RESULT:      -4.8      1.052      3.700
REMARK  4 active torsions:
REMARK  status: ('A' for Active; 'I' for Inactive)
REMARK    1  A    between atoms: C_10  and  C_1 
REMARK    2  A    between atoms: N_7  and  C_4 
REMARK    3  A    between atoms: N_16  and  C_9 
REMARK    4  A    between atoms: C_15  and  C_10 
ROOT
ATOM      1  C   UNL d   1     -41.818-122.111 -53.729  0.00  0.00     0.143 A 
ATOM      2  C   UNL d   1     -41.618-122.854 -54.036  0.00  0.00     0.086 A 
ATOM      3  C   UNL d   1     -41.672-121.936 -52.936  0.00  0.00     0.025 A 
ATOM      4  C   UNL d   1     -41.269-123.418 -53.541  0.00  0.00     0.019 A 
ATOM      5  C   UNL d   1     -41.324-122.505 -52.453  0.00  0.00     0.002 A 
ATOM      6  C   UNL d   1     -41.124-123.248 -52.760  0.00  0.00     0.002 A 
ENDROOT
BRANCH   5   7
ATOM      7  C   UNL d   1     -41.178-122.329 -51.662  0.00  0.00     0.010 C 
BRANCH   7   8
ATOM      8  C   UNL d   1     -41.750-122.544 -51.089  0.00  0.00     0.116 A 
ATOM      9  C   UNL d   1     -41.709-123.291 -50.759  0.00  0.00     0.288 A 
ATOM     10  N   UNL d   1     -42.269-123.508 -50.195  0.00  0.00    -0.152 NA
ATOM     11  O   UNL d   1     -41.123-123.816 -50.986  0.00  0.00    -0.265 OA
ATOM     12  C   UNL d   1     -42.861-122.978 -49.966  0.00  0.00     0.374 A 
ATOM     13  N   UNL d   1     -42.888-122.235 -50.305  0.00  0.00    -0.152 NA
ATOM     14  O   UNL d   1     -43.426-123.190 -49.400  0.00  0.00    -0.242 OA
ATOM     15  C   UNL d   1     -42.342-122.014 -50.861  0.00  0.00     0.288 A 
ATOM     16  O   UNL d   1     -42.383-121.251 -51.197  0.00  0.00    -0.265 OA
ENDBRANCH   7   8
ENDBRANCH   5   7
BRANCH   1  17
ATOM     17  N   UNL d   1     -42.163-121.550 -54.212  0.00  0.00    -0.112 N 
ATOM     18  O   UNL d   1     -41.688-121.116 -54.721  0.00  0.00    -0.532 OA
ATOM     19  O   UNL d   1     -42.968-121.440 -54.174  0.00  0.00    -0.532 OA
ENDBRANCH   1  17
BRANCH   2  20
ATOM     20  N   UNL d   1     -41.765-123.023 -54.821  0.00  0.00    -0.300 N 
ATOM     21  C   UNL d   1     -41.233-122.769 -55.405  0.00  0.00     0.100 C 
ATOM     22  C   UNL d   1     -42.429-123.437 -55.014  0.00  0.00     0.100 C 
ENDBRANCH   2  20
TORSDOF 4
ENDMDL
MODEL 3
REMARK VINA RESULT:      -3.6      1.018      3.871
REMARK  4 active torsions:
REMARK  status: ('A' for Active; 'I' for Inactive)
REMARK    1  A    between atoms: C_10  and  C_1 
REMARK    2  A    between atoms: N_7  and  C_4 
REMARK    3  A    between atoms: N_16  and  C_9 
REMARK    4  A    between atoms: C_15  and  C_10 
ROOT
ATOM      1  C   UNL d   1     -41.903-122.153 -53.748  0.00  0.00     0.143 A 
ATOM      2  C   UNL d   1     -41.670-122.896 -54.031  0.00  0.00     0.086 A 
ATOM      3  C   UNL d   1     -41.745-121.938 -52.967  0.00  0.00     0.025 A 
ATOM      4  C   UNL d   1     -41.278-123.421 -53.524  0.00  0.00     0.019 A 
ATOM      5  C   UNL d   1     -41.355-122.468 -52.471  0.00  0.00     0.002 A 
ATOM      6  C   UNL d   1     -41.122-123.211 -52.755  0.00  0.00     0.002 A 
ENDROOT
BRANCH   5   7
ATOM      7  C   UNL d   1     -41.199-122.253 -51.692  0.00  0.00     0.010 C 
BRANCH   7   8
ATOM      8  C   UNL d   1     -41.724-122.504 -51.091  0.00  0.00     0.116 A 
ATOM      9  C   UNL d   1     -42.274-121.971 -50.808  0.00  0.00     0.288 A 
ATOM     10  N   UNL d   1     -42.795-122.212 -50.216  0.00  0.00    -0.152 NA
ATOM     11  O   UNL d   1     -42.310-121.209 -51.106  0.00  0.00    -0.265 OA
ATOM     12  C   UNL d   1     -42.759-122.981 -49.914  0.00  0.00     0.374 A 
ATOM     13  N   UNL d   1     -42.202-123.502 -50.208  0.00  0.00    -0.152 NA
ATOM     14  O   UNL d   1     -43.278-123.230 -49.320  0.00  0.00    -0.242 OA
ATOM     15  C   UNL d   1     -41.687-123.274 -50.790  0.00  0.00     0.288 A 
ATOM     16  O   UNL d   1     -41.125-123.817 -51.080  0.00  0.00    -0.265 OA
ENDBRANCH   7   8
ENDBRANCH   5   7
BRANCH   1  17
ATOM     17  N   UNL d   1     -42.289-121.631 -54.243  0.00  0.00    -0.112 N 
ATOM     18  O   UNL d   1     -41.851-121.189 -54.777  0.00  0.00    -0.532 OA
ATOM     19  O   UNL d   1     -43.099-121.567 -54.191  0.00  0.00    -0.532 OA
ENDBRANCH   1  17
BRANCH   2  20
ATOM     20  N   UNL d   1     -41.827-123.105 -54.805  0.00  0.00    -0.300 N 
ATOM     21  C   UNL d   1     -42.603-123.288 -55.033  0.00  0.00     0.100 C 
ATOM     22  C   UNL d   1     -41.220-123.128 -55.334  0.00  0.00     0.100 C 
ENDBRANCH   2  20
TORSDOF 4
ENDMDL
