MODEL 1
REMARK VINA RESULT:      46.6      0.000      0.000
REMARK  4 active torsions:
REMARK  status: ('A' for Active; 'I' for Inactive)
REMARK    1  A    between atoms: N_6  and  C_1 
REMARK    2  A    between atoms: C_8  and  N_4 
REMARK    3  A    between atoms: C_9  and  N_6 
REMARK    4  A    between atoms: C_13  and  C_9 
ROOT
ATOM      1  C   UNL d   1     -50.865  25.409  33.365  0.00  0.00     0.157 A 
ATOM      2  C   UNL d   1     -51.688  25.350  33.353  0.00  0.00     0.298 A 
ATOM      3  N   UNL d   1     -51.205  24.116  33.433  0.00  0.00    -0.238 N 
ATOM      4  N   UNL d   1     -51.894  24.547  33.396  0.00  0.00    -0.209 N 
ATOM      5  C   UNL d   1     -50.548  24.648  33.415  0.00  0.00     0.104 A 
ATOM      6  O   UNL d   1     -52.231  26.002  33.306  0.00  0.00    -0.263 OA
ATOM      7  C   UNL d   1     -51.127  23.237  33.486  0.00  0.00     0.120 C 
ATOM      8  C   UNL d   1     -49.717  24.431  33.442  0.00  0.00     0.022 C 
ENDROOT
BRANCH   1   9
ATOM      9  N   UNL d   1     -50.413  26.127  33.331  0.00  0.00    -0.238 NA
BRANCH   9  10
ATOM     10  C   UNL d   1     -50.200  26.527  34.022  0.00  0.00     0.099 C 
BRANCH  10  11
ATOM     11  C   UNL d   1     -49.973  27.331  33.982  0.00  0.00     0.022 A 
ATOM     12  C   UNL d   1     -50.539  27.902  33.966  0.00  0.00     0.022 A 
ATOM     13  C   UNL d   1     -50.316  28.703  33.926  0.00  0.00     0.099 A 
ATOM     14  N   UNL d   1     -49.548  28.924  33.903  0.00  0.00    -0.242 NA
ATOM     15  C   UNL d   1     -48.954  28.357  33.919  0.00  0.00     0.099 A 
ATOM     16  C   UNL d   1     -49.174  27.534  33.960  0.00  0.00     0.022 A 
ENDBRANCH  10  11
ENDBRANCH   9  10
ENDBRANCH   1   9
BRANCH   4  17
ATOM     17  C   UNL d   1     -52.693  24.269  33.398  0.00  0.00     0.085 A 
ATOM     18  C   UNL d   1     -52.836  23.470  33.487  0.00  0.00     0.019 A 
ATOM     19  C   UNL d   1     -53.639  23.190  33.488  0.00  0.00     0.002 A 
ATOM     20  C   UNL d   1     -54.248  23.727  33.401  0.00  0.00     0.000 A 
ATOM     21  C   UNL d   1     -54.107  24.531  33.312  0.00  0.00     0.002 A 
ATOM     22  C   UNL d   1     -53.303  24.811  33.310  0.00  0.00     0.019 A 
ENDBRANCH   4  17
TORSDOF 4
ENDMDL
