MODEL 1
REMARK VINA RESULT:      -8.3      0.000      0.000
REMARK  6 active torsions:
REMARK  status: ('A' for Active; 'I' for Inactive)
REMARK       I    between atoms: C_2  and  N_1 
REMARK    1  A    between atoms: C_3  and  C_2 
REMARK    2  A    between atoms: C_12  and  C_4 
REMARK       I    between atoms: C_5  and  N_8 
REMARK    3  A    between atoms: C_6  and  C_5 
REMARK       I    between atoms: N_9  and  C_6 
REMARK    4  A    between atoms: N_8  and  C_12 
REMARK    5  A    between atoms: C_19  and  N_9 
REMARK    6  A    between atoms: C_20  and  C_19 
ROOT
ATOM      1  C   UNL d   1      52.071  34.707  53.375  0.00  0.00     0.337 C 
ATOM      2  N   UNL d   1      52.622  34.167  53.651  0.00  0.00    -0.199 NA
ATOM      3  O   UNL d   1      52.017  35.450  53.722  0.00  0.00    -0.260 OA
ENDROOT
BRANCH   2   4
ATOM      4  C   UNL d   1      52.676  33.422  53.304  0.00  0.00     0.146 C 
BRANCH   4   5
ATOM      5  C   UNL d   1      53.355  32.959  53.428  0.00  0.00     0.190 A 
ATOM      6  N   UNL d   1      53.365  32.137  53.454  0.00  0.00    -0.250 N 
ATOM      7  C   UNL d   1      52.765  31.570  53.372  0.00  0.00     0.272 C 
ATOM      8  C   UNL d   1      54.149  31.910  53.589  0.00  0.00     0.112 A 
ATOM      9  O   UNL d   1      51.986  31.812  53.238  0.00  0.00    -0.266 OA
ATOM     10  C   UNL d   1      54.610  32.588  53.644  0.00  0.00     0.144 A 
ATOM     11  O   UNL d   1      54.106  33.239  53.543  0.00  0.00    -0.285 OA
BRANCH   7  12
ATOM     12  C   UNL d   1      52.941  30.768  53.424  0.00  0.00     0.086 A 
ATOM     13  S   UNL d   1      53.202  30.305  54.061  0.00  0.00    -0.082 SA
ATOM     14  C   UNL d   1      53.287  29.520  53.782  0.00  0.00     0.036 A 
ATOM     15  C   UNL d   1      53.078  29.516  52.984  0.00  0.00     0.008 A 
ATOM     16  C   UNL d   1      52.865  30.278  52.760  0.00  0.00     0.012 A 
ENDBRANCH   7  12
ENDBRANCH   4   5
ENDBRANCH   2   4
BRANCH   1  17
ATOM     17  C   UNL d   1      51.563  34.512  52.748  0.00  0.00     0.337 C 
ATOM     18  N   UNL d   1      50.750  34.541  52.843  0.00  0.00    -0.202 NA
ATOM     19  O   UNL d   1      51.884  34.286  52.024  0.00  0.00    -0.260 OA
BRANCH  18  20
ATOM     20  C   UNL d   1      50.236  34.354  52.239  0.00  0.00     0.102 C 
BRANCH  20  21
ATOM     21  C   UNL d   1      49.490  34.710  52.177  0.00  0.00     0.019 A 
ATOM     22  C   UNL d   1      49.085  34.687  51.476  0.00  0.00     0.002 A 
ATOM     23  C   UNL d   1      48.347  35.037  51.406  0.00  0.00     0.000 A 
ATOM     24  C   UNL d   1      48.003  35.425  52.061  0.00  0.00     0.000 A 
ATOM     25  C   UNL d   1      48.416  35.446  52.768  0.00  0.00     0.000 A 
ATOM     26  C   UNL d   1      47.247  35.781  51.982  0.00  0.00     0.000 C 
ATOM     27  C   UNL d   1      49.158  35.087  52.817  0.00  0.00     0.002 A 
ENDBRANCH  20  21
ENDBRANCH  18  20
ENDBRANCH   1  17
TORSDOF 6
ENDMDL
MODEL 2
REMARK VINA RESULT:      -7.8      1.298      2.313
REMARK  6 active torsions:
REMARK  status: ('A' for Active; 'I' for Inactive)
REMARK       I    between atoms: C_2  and  N_1 
REMARK    1  A    between atoms: C_3  and  C_2 
REMARK    2  A    between atoms: C_12  and  C_4 
REMARK       I    between atoms: C_5  and  N_8 
REMARK    3  A    between atoms: C_6  and  C_5 
REMARK       I    between atoms: N_9  and  C_6 
REMARK    4  A    between atoms: N_8  and  C_12 
REMARK    5  A    between atoms: C_19  and  N_9 
REMARK    6  A    between atoms: C_20  and  C_19 
ROOT
ATOM      1  C   UNL d   1      51.023  34.092  51.863  0.00  0.00     0.337 C 
ATOM      2  N   UNL d   1      51.749  33.781  52.084  0.00  0.00    -0.199 NA
ATOM      3  O   UNL d   1      50.911  34.361  51.094  0.00  0.00    -0.260 OA
ENDROOT
BRANCH   2   4
ATOM      4  C   UNL d   1      51.862  33.511  52.853  0.00  0.00     0.146 C 
BRANCH   4   5
ATOM      5  C   UNL d   1      52.451  32.945  53.008  0.00  0.00     0.190 A 
ATOM      6  N   UNL d   1      53.049  33.029  53.566  0.00  0.00    -0.250 N 
ATOM      7  C   UNL d   1      53.235  33.639  54.096  0.00  0.00     0.272 C 
ATOM      8  C   UNL d   1      53.505  32.340  53.535  0.00  0.00     0.112 A 
ATOM      9  O   UNL d   1      52.768  34.323  54.116  0.00  0.00    -0.266 OA
ATOM     10  C   UNL d   1      53.187  31.843  52.963  0.00  0.00     0.144 A 
ATOM     11  O   UNL d   1      52.528  32.229  52.639  0.00  0.00    -0.285 OA
BRANCH   7  12
ATOM     12  C   UNL d   1      53.880  33.570  54.601  0.00  0.00     0.086 A 
ATOM     13  S   UNL d   1      54.018  33.069  55.247  0.00  0.00    -0.082 SA
ATOM     14  C   UNL d   1      54.777  33.251  55.549  0.00  0.00     0.036 A 
ATOM     15  C   UNL d   1      55.090  33.858  55.085  0.00  0.00     0.008 A 
ATOM     16  C   UNL d   1      54.544  34.057  54.503  0.00  0.00     0.012 A 
ENDBRANCH   7  12
ENDBRANCH   4   5
ENDBRANCH   2   4
BRANCH   1  17
ATOM     17  C   UNL d   1      50.399  34.139  52.408  0.00  0.00     0.337 C 
ATOM     18  N   UNL d   1      49.883  34.776  52.399  0.00  0.00    -0.202 NA
ATOM     19  O   UNL d   1      50.298  33.538  52.961  0.00  0.00    -0.260 OA
BRANCH  18  20
ATOM     20  C   UNL d   1      49.265  34.840  52.926  0.00  0.00     0.102 C 
BRANCH  20  21
ATOM     21  C   UNL d   1      48.600  35.307  52.760  0.00  0.00     0.019 A 
ATOM     22  C   UNL d   1      48.190  35.201  52.069  0.00  0.00     0.002 A 
ATOM     23  C   UNL d   1      47.532  35.659  51.896  0.00  0.00     0.000 A 
ATOM     24  C   UNL d   1      47.276  36.244  52.436  0.00  0.00     0.000 A 
ATOM     25  C   UNL d   1      47.693  36.348  53.133  0.00  0.00     0.000 A 
ATOM     26  C   UNL d   1      46.601  36.709  52.252  0.00  0.00     0.000 C 
ATOM     27  C   UNL d   1      48.354  35.876  53.286  0.00  0.00     0.002 A 
ENDBRANCH  20  21
ENDBRANCH  18  20
ENDBRANCH   1  17
TORSDOF 6
ENDMDL
MODEL 3
REMARK VINA RESULT:      -7.8      2.404      5.875
REMARK  6 active torsions:
REMARK  status: ('A' for Active; 'I' for Inactive)
REMARK       I    between atoms: C_2  and  N_1 
REMARK    1  A    between atoms: C_3  and  C_2 
REMARK    2  A    between atoms: C_12  and  C_4 
REMARK       I    between atoms: C_5  and  N_8 
REMARK    3  A    between atoms: C_6  and  C_5 
REMARK       I    between atoms: N_9  and  C_6 
REMARK    4  A    between atoms: N_8  and  C_12 
REMARK    5  A    between atoms: C_19  and  N_9 
REMARK    6  A    between atoms: C_20  and  C_19 
ROOT
ATOM      1  C   UNL d   1      51.200  34.132  51.807  0.00  0.00     0.337 C 
ATOM      2  N   UNL d   1      50.509  34.505  51.574  0.00  0.00    -0.199 NA
ATOM      3  O   UNL d   1      51.826  34.061  51.279  0.00  0.00    -0.260 OA
ENDROOT
BRANCH   2   4
ATOM      4  C   UNL d   1      49.883  34.575  52.103  0.00  0.00     0.146 C 
BRANCH   4   5
ATOM      5  C   UNL d   1      49.124  34.763  51.819  0.00  0.00     0.190 A 
ATOM      6  N   UNL d   1      48.562  35.200  52.232  0.00  0.00    -0.250 N 
ATOM      7  C   UNL d   1      48.573  35.554  52.982  0.00  0.00     0.272 C 
ATOM      8  C   UNL d   1      47.894  35.252  51.747  0.00  0.00     0.112 A 
ATOM      9  O   UNL d   1      49.249  35.493  53.456  0.00  0.00    -0.266 OA
ATOM     10  C   UNL d   1      48.049  34.850  51.047  0.00  0.00     0.144 A 
ATOM     11  O   UNL d   1      48.820  34.548  51.101  0.00  0.00    -0.285 OA
BRANCH   7  12
ATOM     12  C   UNL d   1      47.917  35.966  53.257  0.00  0.00     0.086 A 
ATOM     13  S   UNL d   1      47.354  36.428  52.860  0.00  0.00    -0.082 SA
ATOM     14  C   UNL d   1      46.811  36.709  53.431  0.00  0.00     0.036 A 
ATOM     15  C   UNL d   1      47.048  36.415  54.165  0.00  0.00     0.008 A 
ATOM     16  C   UNL d   1      47.725  35.959  54.064  0.00  0.00     0.012 A 
ENDBRANCH   7  12
ENDBRANCH   4   5
ENDBRANCH   2   4
BRANCH   1  17
ATOM     17  C   UNL d   1      51.278  33.824  52.574  0.00  0.00     0.337 C 
ATOM     18  N   UNL d   1      51.952  33.969  53.018  0.00  0.00    -0.202 NA
ATOM     19  O   UNL d   1      50.670  33.367  52.890  0.00  0.00    -0.260 OA
BRANCH  18  20
ATOM     20  C   UNL d   1      52.045  33.675  53.772  0.00  0.00     0.102 C 
BRANCH  20  21
ATOM     21  C   UNL d   1      52.786  33.666  54.145  0.00  0.00     0.019 A 
ATOM     22  C   UNL d   1      53.267  33.019  54.078  0.00  0.00     0.002 A 
ATOM     23  C   UNL d   1      54.002  33.001  54.443  0.00  0.00     0.000 A 
ATOM     24  C   UNL d   1      54.262  33.656  54.892  0.00  0.00     0.000 A 
ATOM     25  C   UNL d   1      53.772  34.309  54.957  0.00  0.00     0.000 A 
ATOM     26  C   UNL d   1      55.015  33.630  55.263  0.00  0.00     0.000 C 
ATOM     27  C   UNL d   1      53.036  34.306  54.581  0.00  0.00     0.002 A 
ENDBRANCH  20  21
ENDBRANCH  18  20
ENDBRANCH   1  17
TORSDOF 6
ENDMDL
MODEL 4
REMARK VINA RESULT:      -7.7      1.569      4.968
REMARK  6 active torsions:
REMARK  status: ('A' for Active; 'I' for Inactive)
REMARK       I    between atoms: C_2  and  N_1 
REMARK    1  A    between atoms: C_3  and  C_2 
REMARK    2  A    between atoms: C_12  and  C_4 
REMARK       I    between atoms: C_5  and  N_8 
REMARK    3  A    between atoms: C_6  and  C_5 
REMARK       I    between atoms: N_9  and  C_6 
REMARK    4  A    between atoms: N_8  and  C_12 
REMARK    5  A    between atoms: C_19  and  N_9 
REMARK    6  A    between atoms: C_20  and  C_19 
ROOT
ATOM      1  C   UNL d   1      54.348  33.161  54.959  0.00  0.00     0.337 C 
ATOM      2  N   UNL d   1      53.772  33.744  54.940  0.00  0.00    -0.199 NA
ATOM      3  O   UNL d   1      54.823  33.076  55.624  0.00  0.00    -0.260 OA
ENDROOT
BRANCH   2   4
ATOM      4  C   UNL d   1      53.296  33.829  54.274  0.00  0.00     0.146 C 
BRANCH   4   5
ATOM      5  C   UNL d   1      52.888  34.543  54.149  0.00  0.00     0.190 A 
ATOM      6  N   UNL d   1      52.171  34.611  53.753  0.00  0.00    -0.250 N 
ATOM      7  C   UNL d   1      51.679  34.050  53.390  0.00  0.00     0.272 C 
ATOM      8  C   UNL d   1      51.969  35.413  53.758  0.00  0.00     0.112 A 
ATOM      9  O   UNL d   1      51.895  33.251  53.393  0.00  0.00    -0.266 OA
ATOM     10  C   UNL d   1      52.558  35.827  54.153  0.00  0.00     0.144 A 
ATOM     11  O   UNL d   1      53.128  35.276  54.395  0.00  0.00    -0.285 OA
BRANCH   7  12
ATOM     12  C   UNL d   1      50.979  34.282  53.028  0.00  0.00     0.086 A 
ATOM     13  S   UNL d   1      50.267  34.567  53.344  0.00  0.00    -0.082 SA
ATOM     14  C   UNL d   1      49.748  34.713  52.704  0.00  0.00     0.036 A 
ATOM     15  C   UNL d   1      50.149  34.517  52.009  0.00  0.00     0.008 A 
ATOM     16  C   UNL d   1      50.904  34.252  52.202  0.00  0.00     0.012 A 
ENDBRANCH   7  12
ENDBRANCH   4   5
ENDBRANCH   2   4
BRANCH   1  17
ATOM     17  C   UNL d   1      54.456  32.652  54.312  0.00  0.00     0.337 C 
ATOM     18  N   UNL d   1      54.095  31.916  54.293  0.00  0.00    -0.202 NA
ATOM     19  O   UNL d   1      54.933  32.891  53.685  0.00  0.00    -0.260 OA
BRANCH  18  20
ATOM     20  C   UNL d   1      54.190  31.404  53.667  0.00  0.00     0.102 C 
BRANCH  20  21
ATOM     21  C   UNL d   1      53.709  30.734  53.577  0.00  0.00     0.019 A 
ATOM     22  C   UNL d   1      53.227  30.663  52.930  0.00  0.00     0.002 A 
ATOM     23  C   UNL d   1      52.747  30.005  52.833  0.00  0.00     0.000 A 
ATOM     24  C   UNL d   1      52.751  29.397  53.406  0.00  0.00     0.000 A 
ATOM     25  C   UNL d   1      53.240  29.472  54.059  0.00  0.00     0.000 A 
ATOM     26  C   UNL d   1      52.257  28.725  53.300  0.00  0.00     0.000 C 
ATOM     27  C   UNL d   1      53.715  30.144  54.136  0.00  0.00     0.002 A 
ENDBRANCH  20  21
ENDBRANCH  18  20
ENDBRANCH   1  17
TORSDOF 6
ENDMDL
MODEL 5
REMARK VINA RESULT:      -6.5      1.916      5.758
REMARK  6 active torsions:
REMARK  status: ('A' for Active; 'I' for Inactive)
REMARK       I    between atoms: C_2  and  N_1 
REMARK    1  A    between atoms: C_3  and  C_2 
REMARK    2  A    between atoms: C_12  and  C_4 
REMARK       I    between atoms: C_5  and  N_8 
REMARK    3  A    between atoms: C_6  and  C_5 
REMARK       I    between atoms: N_9  and  C_6 
REMARK    4  A    between atoms: N_8  and  C_12 
REMARK    5  A    between atoms: C_19  and  N_9 
REMARK    6  A    between atoms: C_20  and  C_19 
ROOT
ATOM      1  C   UNL d   1      51.793  34.436  52.503  0.00  0.00     0.337 C 
ATOM      2  N   UNL d   1      51.107  34.739  52.172  0.00  0.00    -0.199 NA
ATOM      3  O   UNL d   1      52.526  34.712  52.251  0.00  0.00    -0.260 OA
ENDROOT
BRANCH   2   4
ATOM      4  C   UNL d   1      50.374  34.463  52.424  0.00  0.00     0.146 C 
BRANCH   4   5
ATOM      5  C   UNL d   1      49.711  34.549  51.930  0.00  0.00     0.190 A 
ATOM      6  N   UNL d   1      49.036  34.980  52.120  0.00  0.00    -0.250 N 
ATOM      7  C   UNL d   1      48.826  35.418  52.793  0.00  0.00     0.272 C 
ATOM      8  C   UNL d   1      48.522  34.917  51.476  0.00  0.00     0.112 A 
ATOM      9  O   UNL d   1      49.352  35.471  53.430  0.00  0.00    -0.266 OA
ATOM     10  C   UNL d   1      48.881  34.453  50.901  0.00  0.00     0.144 A 
ATOM     11  O   UNL d   1      49.624  34.228  51.193  0.00  0.00    -0.285 OA
BRANCH   7  12
ATOM     12  C   UNL d   1      48.098  35.799  52.830  0.00  0.00     0.086 A 
ATOM     13  S   UNL d   1      47.429  35.751  52.342  0.00  0.00    -0.082 SA
ATOM     14  C   UNL d   1      46.852  36.270  52.655  0.00  0.00     0.036 A 
ATOM     15  C   UNL d   1      47.175  36.626  53.326  0.00  0.00     0.008 A 
ATOM     16  C   UNL d   1      47.939  36.340  53.438  0.00  0.00     0.012 A 
ENDBRANCH   7  12
ENDBRANCH   4   5
ENDBRANCH   2   4
BRANCH   1  17
ATOM     17  C   UNL d   1      51.758  33.852  53.091  0.00  0.00     0.337 C 
ATOM     18  N   UNL d   1      52.100  33.116  52.972  0.00  0.00    -0.202 NA
ATOM     19  O   UNL d   1      51.375  34.015  53.801  0.00  0.00    -0.260 OA
BRANCH  18  20
ATOM     20  C   UNL d   1      52.075  32.530  53.538  0.00  0.00     0.102 C 
BRANCH  20  21
ATOM     21  C   UNL d   1      52.526  31.838  53.465  0.00  0.00     0.019 A 
ATOM     22  C   UNL d   1      52.237  31.206  53.050  0.00  0.00     0.002 A 
ATOM     23  C   UNL d   1      52.676  30.517  52.973  0.00  0.00     0.000 A 
ATOM     24  C   UNL d   1      53.431  30.461  53.325  0.00  0.00     0.000 A 
ATOM     25  C   UNL d   1      53.720  31.103  53.744  0.00  0.00     0.000 A 
ATOM     26  C   UNL d   1      53.875  29.753  53.242  0.00  0.00     0.000 C 
ATOM     27  C   UNL d   1      53.261  31.787  53.809  0.00  0.00     0.002 A 
ENDBRANCH  20  21
ENDBRANCH  18  20
ENDBRANCH   1  17
TORSDOF 6
ENDMDL
MODEL 6
REMARK VINA RESULT:      -5.4      9.372     10.952
REMARK  6 active torsions:
REMARK  status: ('A' for Active; 'I' for Inactive)
REMARK       I    between atoms: C_2  and  N_1 
REMARK    1  A    between atoms: C_3  and  C_2 
REMARK    2  A    between atoms: C_12  and  C_4 
REMARK       I    between atoms: C_5  and  N_8 
REMARK    3  A    between atoms: C_6  and  C_5 
REMARK       I    between atoms: N_9  and  C_6 
REMARK    4  A    between atoms: N_8  and  C_12 
REMARK    5  A    between atoms: C_19  and  N_9 
REMARK    6  A    between atoms: C_20  and  C_19 
ROOT
ATOM      1  C   UNL d   1      45.681  26.894  58.110  0.00  0.00     0.337 C 
ATOM      2  N   UNL d   1      45.665  27.709  58.199  0.00  0.00    -0.199 NA
ATOM      3  O   UNL d   1      46.359  26.474  58.307  0.00  0.00    -0.260 OA
ENDROOT
BRANCH   2   4
ATOM      4  C   UNL d   1      44.986  28.130  58.002  0.00  0.00     0.146 C 
BRANCH   4   5
ATOM      5  C   UNL d   1      44.821  28.848  58.387  0.00  0.00     0.190 A 
ATOM      6  N   UNL d   1      44.732  29.574  58.010  0.00  0.00    -0.250 N 
ATOM      7  C   UNL d   1      44.772  29.796  57.212  0.00  0.00     0.272 C 
ATOM      8  C   UNL d   1      44.574  30.133  58.599  0.00  0.00     0.112 A 
ATOM      9  O   UNL d   1      44.931  29.226  56.634  0.00  0.00    -0.266 OA
ATOM     10  C   UNL d   1      44.569  29.749  59.326  0.00  0.00     0.144 A 
ATOM     11  O   UNL d   1      44.724  28.947  59.184  0.00  0.00    -0.285 OA
BRANCH   7  12
ATOM     12  C   UNL d   1      44.657  30.580  56.992  0.00  0.00     0.086 A 
ATOM     13  S   UNL d   1      44.778  31.289  57.406  0.00  0.00    -0.082 SA
ATOM     14  C   UNL d   1      44.562  31.917  56.897  0.00  0.00     0.036 A 
ATOM     15  C   UNL d   1      44.314  31.585  56.183  0.00  0.00     0.008 A 
ATOM     16  C   UNL d   1      44.370  30.766  56.236  0.00  0.00     0.012 A 
ENDBRANCH   7  12
ENDBRANCH   4   5
ENDBRANCH   2   4
BRANCH   1  17
ATOM     17  C   UNL d   1      45.017  26.487  57.821  0.00  0.00     0.337 C 
ATOM     18  N   UNL d   1      45.057  26.068  57.117  0.00  0.00    -0.202 NA
ATOM     19  O   UNL d   1      44.314  26.505  58.248  0.00  0.00    -0.260 OA
BRANCH  18  20
ATOM     20  C   UNL d   1      44.417  25.663  56.818  0.00  0.00     0.102 C 
BRANCH  20  21
ATOM     21  C   UNL d   1      44.506  25.086  56.229  0.00  0.00     0.019 A 
ATOM     22  C   UNL d   1      44.575  25.305  55.452  0.00  0.00     0.002 A 
ATOM     23  C   UNL d   1      44.663  24.742  54.863  0.00  0.00     0.000 A 
ATOM     24  C   UNL d   1      44.682  23.930  55.059  0.00  0.00     0.000 A 
ATOM     25  C   UNL d   1      44.612  23.712  55.846  0.00  0.00     0.000 A 
ATOM     26  C   UNL d   1      44.773  23.359  54.450  0.00  0.00     0.000 C 
ATOM     27  C   UNL d   1      44.524  24.296  56.424  0.00  0.00     0.002 A 
ENDBRANCH  20  21
ENDBRANCH  18  20
ENDBRANCH   1  17
TORSDOF 6
ENDMDL
MODEL 7
REMARK VINA RESULT:      -5.4     10.067     11.527
REMARK  6 active torsions:
REMARK  status: ('A' for Active; 'I' for Inactive)
REMARK       I    between atoms: C_2  and  N_1 
REMARK    1  A    between atoms: C_3  and  C_2 
REMARK    2  A    between atoms: C_12  and  C_4 
REMARK       I    between atoms: C_5  and  N_8 
REMARK    3  A    between atoms: C_6  and  C_5 
REMARK       I    between atoms: N_9  and  C_6 
REMARK    4  A    between atoms: N_8  and  C_12 
REMARK    5  A    between atoms: C_19  and  N_9 
REMARK    6  A    between atoms: C_20  and  C_19 
ROOT
ATOM      1  C   UNL d   1      45.668  27.413  56.976  0.00  0.00     0.337 C 
ATOM      2  N   UNL d   1      45.691  28.152  57.329  0.00  0.00    -0.199 NA
ATOM      3  O   UNL d   1      46.324  27.135  56.566  0.00  0.00    -0.260 OA
ENDROOT
BRANCH   2   4
ATOM      4  C   UNL d   1      45.034  28.431  57.739  0.00  0.00     0.146 C 
BRANCH   4   5
ATOM      5  C   UNL d   1      44.952  29.246  57.879  0.00  0.00     0.190 A 
ATOM      6  N   UNL d   1      44.827  29.586  58.618  0.00  0.00    -0.250 N 
ATOM      7  C   UNL d   1      44.750  29.259  59.376  0.00  0.00     0.272 C 
ATOM      8  C   UNL d   1      44.779  30.404  58.501  0.00  0.00     0.112 A 
ATOM      9  O   UNL d   1      44.800  28.439  59.477  0.00  0.00    -0.266 OA
ATOM     10  C   UNL d   1      44.875  30.558  57.700  0.00  0.00     0.144 A 
ATOM     11  O   UNL d   1      44.983  29.829  57.319  0.00  0.00    -0.285 OA
BRANCH   7  12
ATOM     12  C   UNL d   1      44.625  29.744  60.028  0.00  0.00     0.086 A 
ATOM     13  S   UNL d   1      44.685  30.566  60.118  0.00  0.00    -0.082 SA
ATOM     14  C   UNL d   1      44.491  30.747  60.912  0.00  0.00     0.036 A 
ATOM     15  C   UNL d   1      44.317  30.036  61.294  0.00  0.00     0.008 A 
ATOM     16  C   UNL d   1      44.398  29.419  60.756  0.00  0.00     0.012 A 
ENDBRANCH   7  12
ENDBRANCH   4   5
ENDBRANCH   2   4
BRANCH   1  17
ATOM     17  C   UNL d   1      44.988  26.939  57.027  0.00  0.00     0.337 C 
ATOM     18  N   UNL d   1      44.983  26.264  57.491  0.00  0.00    -0.202 NA
ATOM     19  O   UNL d   1      44.314  27.153  56.606  0.00  0.00    -0.260 OA
BRANCH  18  20
ATOM     20  C   UNL d   1      44.325  25.787  57.554  0.00  0.00     0.102 C 
BRANCH  20  21
ATOM     21  C   UNL d   1      44.378  25.012  57.843  0.00  0.00     0.019 A 
ATOM     22  C   UNL d   1      44.314  24.869  58.638  0.00  0.00     0.002 A 
ATOM     23  C   UNL d   1      44.365  24.105  58.933  0.00  0.00     0.000 A 
ATOM     24  C   UNL d   1      44.484  23.463  58.413  0.00  0.00     0.000 A 
ATOM     25  C   UNL d   1      44.548  23.611  57.610  0.00  0.00     0.000 A 
ATOM     26  C   UNL d   1      44.535  22.683  58.723  0.00  0.00     0.000 C 
ATOM     27  C   UNL d   1      44.493  24.388  57.334  0.00  0.00     0.002 A 
ENDBRANCH  20  21
ENDBRANCH  18  20
ENDBRANCH   1  17
TORSDOF 6
ENDMDL
