MODEL 1
REMARK VINA RESULT:      -6.6      0.000      0.000
REMARK  3 active torsions:
REMARK  status: ('A' for Active; 'I' for Inactive)
REMARK    1  A    between atoms: N_3  and  C_1 
REMARK       I    between atoms: C_5  and  N_3 
REMARK    2  A    between atoms: C_4  and  C_5 
REMARK    3  A    between atoms: C_12  and  C_6 
ROOT
ATOM      1  C   UNL d   1      57.963  -0.603  30.391  0.00  0.00     0.249 A 
ATOM      2  N   UNL d   1      57.381  -0.816  30.940  0.00  0.00    -0.210 NA
ATOM      3  C   UNL d   1      57.198  -0.140  31.394  0.00  0.00     0.091 A 
ATOM      4  S   UNL d   1      58.148   0.193  30.492  0.00  0.00    -0.033 SA
ATOM      5  C   UNL d   1      57.667   0.482  31.122  0.00  0.00     0.059 A 
ENDROOT
BRANCH   1   6
ATOM      6  N   UNL d   1      58.301  -1.108  29.834  0.00  0.00    -0.337 NA
ATOM      7  C   UNL d   1      58.619  -1.399  29.130  0.00  0.00     0.355 C 
ATOM      8  O   UNL d   1      58.678  -0.906  28.463  0.00  0.00    -0.249 OA
BRANCH   7   9
ATOM      9  C   UNL d   1      58.882  -2.185  29.085  0.00  0.00     0.197 A 
ATOM     10  O   UNL d   1      58.404  -2.870  29.118  0.00  0.00    -0.205 OA
ATOM     11  N   UNL d   1      58.900  -3.532  29.051  0.00  0.00    -0.124 NA
ATOM     12  C   UNL d   1      59.680  -3.261  28.978  0.00  0.00     0.130 A 
ATOM     13  C   UNL d   1      59.676  -2.431  28.998  0.00  0.00     0.056 A 
ENDBRANCH   7   9
ENDBRANCH   1   6
BRANCH   3  14
ATOM     14  C   UNL d   1      56.650  -0.100  32.003  0.00  0.00     0.018 A 
ATOM     15  C   UNL d   1      56.378  -0.786  32.356  0.00  0.00     0.002 A 
ATOM     16  C   UNL d   1      55.827  -0.748  32.968  0.00  0.00     0.000 A 
ATOM     17  C   UNL d   1      55.553  -0.013  33.221  0.00  0.00     0.000 A 
ATOM     18  C   UNL d   1      55.824   0.682  32.869  0.00  0.00     0.000 A 
ATOM     19  C   UNL d   1      54.999   0.032  33.836  0.00  0.00     0.000 C 
ATOM     20  C   UNL d   1      56.378   0.637  32.254  0.00  0.00     0.002 A 
ENDBRANCH   3  14
TORSDOF 3
ENDMDL
MODEL 2
REMARK VINA RESULT:      -5.2      1.804      2.068
REMARK  3 active torsions:
REMARK  status: ('A' for Active; 'I' for Inactive)
REMARK    1  A    between atoms: N_3  and  C_1 
REMARK       I    between atoms: C_5  and  N_3 
REMARK    2  A    between atoms: C_4  and  C_5 
REMARK    3  A    between atoms: C_12  and  C_6 
ROOT
ATOM      1  C   UNL d   1      57.402  -0.326  31.004  0.00  0.00     0.249 A 
ATOM      2  N   UNL d   1      57.066   0.163  31.580  0.00  0.00    -0.210 NA
ATOM      3  C   UNL d   1      56.700  -0.326  32.150  0.00  0.00     0.091 A 
ATOM      4  S   UNL d   1      57.254  -1.112  31.200  0.00  0.00    -0.033 SA
ATOM      5  C   UNL d   1      56.814  -1.110  31.919  0.00  0.00     0.059 A 
ENDROOT
BRANCH   1   6
ATOM      6  N   UNL d   1      57.817  -0.067  30.341  0.00  0.00    -0.337 NA
ATOM      7  C   UNL d   1      57.997   0.287  29.618  0.00  0.00     0.355 C 
ATOM      8  O   UNL d   1      57.406   0.682  29.187  0.00  0.00    -0.249 OA
BRANCH   7   9
ATOM      9  C   UNL d   1      58.771   0.252  29.317  0.00  0.00     0.197 A 
ATOM     10  O   UNL d   1      59.451   0.600  29.656  0.00  0.00    -0.205 OA
ATOM     11  N   UNL d   1      60.099   0.422  29.169  0.00  0.00    -0.124 NA
ATOM     12  C   UNL d   1      59.824  -0.033  28.532  0.00  0.00     0.130 A 
ATOM     13  C   UNL d   1      59.005  -0.141  28.618  0.00  0.00     0.056 A 
ENDBRANCH   7   9
ENDBRANCH   1   6
BRANCH   3  14
ATOM     14  C   UNL d   1      56.299  -0.074  32.819  0.00  0.00     0.018 A 
ATOM     15  C   UNL d   1      56.670   0.414  33.360  0.00  0.00     0.002 A 
ATOM     16  C   UNL d   1      56.269   0.669  34.033  0.00  0.00     0.000 A 
ATOM     17  C   UNL d   1      55.490   0.429  34.156  0.00  0.00     0.000 A 
ATOM     18  C   UNL d   1      55.111  -0.063  33.614  0.00  0.00     0.000 A 
ATOM     19  C   UNL d   1      55.082   0.682  34.832  0.00  0.00     0.000 C 
ATOM     20  C   UNL d   1      55.520  -0.316  32.939  0.00  0.00     0.002 A 
ENDBRANCH   3  14
TORSDOF 3
ENDMDL
MODEL 3
REMARK VINA RESULT:      -4.7      2.126      4.914
REMARK  3 active torsions:
REMARK  status: ('A' for Active; 'I' for Inactive)
REMARK    1  A    between atoms: N_3  and  C_1 
REMARK       I    between atoms: C_5  and  N_3 
REMARK    2  A    between atoms: C_4  and  C_5 
REMARK    3  A    between atoms: C_12  and  C_6 
ROOT
ATOM      1  C   UNL d   1      57.146   0.032  31.362  0.00  0.00     0.249 A 
ATOM      2  N   UNL d   1      57.774  -0.419  31.066  0.00  0.00    -0.210 NA
ATOM      3  C   UNL d   1      58.054  -0.044  30.375  0.00  0.00     0.091 A 
ATOM      4  S   UNL d   1      57.028   0.682  30.870  0.00  0.00    -0.033 SA
ATOM      5  C   UNL d   1      57.598   0.633  30.252  0.00  0.00     0.059 A 
ENDROOT
BRANCH   1   6
ATOM      6  N   UNL d   1      56.711  -0.143  32.039  0.00  0.00    -0.337 NA
ATOM      7  C   UNL d   1      56.305  -0.560  32.625  0.00  0.00     0.355 C 
ATOM      8  O   UNL d   1      56.241  -1.387  32.581  0.00  0.00    -0.249 OA
BRANCH   7   9
ATOM      9  C   UNL d   1      55.959  -0.154  33.262  0.00  0.00     0.197 A 
ATOM     10  O   UNL d   1      56.351   0.118  33.948  0.00  0.00    -0.205 OA
ATOM     11  N   UNL d   1      55.790   0.490  34.432  0.00  0.00    -0.124 NA
ATOM     12  C   UNL d   1      55.055   0.451  34.050  0.00  0.00     0.130 A 
ATOM     13  C   UNL d   1      55.152   0.055  33.327  0.00  0.00     0.056 A 
ENDBRANCH   7   9
ENDBRANCH   1   6
BRANCH   3  14
ATOM     14  C   UNL d   1      58.673  -0.301  29.902  0.00  0.00     0.018 A 
ATOM     15  C   UNL d   1      59.378   0.114  29.886  0.00  0.00     0.002 A 
ATOM     16  C   UNL d   1      60.001  -0.143  29.411  0.00  0.00     0.000 A 
ATOM     17  C   UNL d   1      59.908  -0.822  28.953  0.00  0.00     0.000 A 
ATOM     18  C   UNL d   1      59.200  -1.244  28.965  0.00  0.00     0.000 A 
ATOM     19  C   UNL d   1      60.531  -1.085  28.474  0.00  0.00     0.000 C 
ATOM     20  C   UNL d   1      58.577  -0.981  29.444  0.00  0.00     0.002 A 
ENDBRANCH   3  14
TORSDOF 3
ENDMDL
