MODEL 1
REMARK VINA RESULT:     102.5      0.000      0.000
REMARK  4 active torsions:
REMARK  status: ('A' for Active; 'I' for Inactive)
REMARK    1  A    between atoms: N_3  and  S_1 
REMARK    2  A    between atoms: C_13  and  S_1 
REMARK    3  A    between atoms: C_2  and  N_3 
REMARK    4  A    between atoms: N_8  and  C_4 
REMARK       I    between atoms: C_10  and  N_9 
ROOT
ATOM      1  C   UNL d   1      60.711  49.006  50.689  0.00  0.00     0.110 A 
ATOM      2  C   UNL d   1      59.719  49.230  51.004  0.00  0.00     0.083 A 
ATOM      3  C   UNL d   1      61.129  49.083  51.392  0.00  0.00     0.020 A 
ATOM      4  C   UNL d   1      59.806  49.382  51.811  0.00  0.00     0.018 A 
ATOM      5  C   UNL d   1      60.608  49.288  51.982  0.00  0.00     0.003 A 
ATOM      6  C   UNL d   1      60.882  49.403  52.752  0.00  0.00     0.000 A 
ATOM      7  C   UNL d   1      61.940  48.985  51.549  0.00  0.00     0.002 A 
ATOM      8  C   UNL d   1      59.285  49.587  52.400  0.00  0.00     0.002 A 
ATOM      9  C   UNL d   1      59.547  49.707  53.188  0.00  0.00     0.000 A 
ATOM     10  C   UNL d   1      62.204  49.104  52.333  0.00  0.00     0.000 A 
ATOM     11  C   UNL d   1      60.355  49.610  53.348  0.00  0.00     0.000 A 
ATOM     12  C   UNL d   1      61.678  49.312  52.929  0.00  0.00     0.000 A 
ENDROOT
BRANCH   1  13
ATOM     13  N   UNL d   1      61.081  48.803  49.991  0.00  0.00    -0.157 NA
BRANCH  13  14
ATOM     14  S   UNL d   1      61.343  48.034  49.849  0.00  0.00     0.285 S 
ATOM     15  O   UNL d   1      60.618  47.746  50.122  0.00  0.00    -0.198 OA
ATOM     16  O   UNL d   1      62.060  48.325  49.580  0.00  0.00    -0.198 OA
BRANCH  14  17
ATOM     17  C   UNL d   1      61.597  47.269  49.710  0.00  0.00     0.105 A 
ATOM     18  C   UNL d   1      61.050  46.680  49.542  0.00  0.00     0.013 A 
ATOM     19  C   UNL d   1      61.287  45.901  49.399  0.00  0.00     0.001 A 
ATOM     20  C   UNL d   1      62.111  45.727  49.430  0.00  0.00     0.000 A 
ATOM     21  C   UNL d   1      62.655  46.314  49.597  0.00  0.00     0.001 A 
ATOM     22  C   UNL d   1      62.404  47.081  49.737  0.00  0.00     0.013 A 
ENDBRANCH  14  17
ENDBRANCH  13  14
ENDBRANCH   1  13
BRANCH   2  23
ATOM     23  N   UNL d   1      58.978  49.278  50.659  0.00  0.00    -0.300 N 
ATOM     24  C   UNL d   1      58.315  49.040  51.088  0.00  0.00     0.100 A 
ATOM     25  C   UNL d   1      57.598  49.090  50.746  0.00  0.00     0.102 A 
ATOM     26  N   UNL d   1      57.477  49.376  49.956  0.00  0.00    -0.269 N 
ATOM     27  C   UNL d   1      58.135  49.611  49.533  0.00  0.00     0.102 A 
ATOM     28  C   UNL d   1      56.735  49.430  49.597  0.00  0.00     0.265 C 
ATOM     29  C   UNL d   1      58.924  49.559  49.902  0.00  0.00     0.100 A 
ATOM     30  O   UNL d   1      56.033  49.206  49.979  0.00  0.00    -0.267 OA
ATOM     31  C   UNL d   1      56.612  49.706  48.831  0.00  0.00     0.066 C 
ENDBRANCH   2  23
TORSDOF 4
ENDMDL
