MODEL 1
REMARK VINA RESULT:      15.4      0.000      0.000
REMARK  4 active torsions:
REMARK  status: ('A' for Active; 'I' for Inactive)
REMARK    1  A    between atoms: N_15  and  C_6 
REMARK    2  A    between atoms: N_14  and  C_19 
REMARK    3  A    between atoms: C_18  and  N_15 
REMARK    4  A    between atoms: C_19  and  C_18 
ROOT
ATOM      1  N   UNL d   1      46.261 -18.066  43.601  0.00  0.00    -0.183 N 
ATOM      2  C   UNL d   1      46.371 -18.795  43.230  0.00  0.00     0.169 A 
ATOM      3  C   UNL d   1      46.439 -18.843  42.421  0.00  0.00     0.073 A 
ATOM      4  C   UNL d   1      46.397 -18.157  41.985  0.00  0.00     0.185 A 
ATOM      5  N   UNL d   1      46.287 -17.428  42.356  0.00  0.00    -0.142 NA
ATOM      6  C   UNL d   1      46.195 -18.039  44.410  0.00  0.00     0.218 A 
ATOM      7  N   UNL d   1      46.411 -19.477  43.678  0.00  0.00    -0.226 NA
ATOM      8  C   UNL d   1      46.547 -19.563  42.054  0.00  0.00     0.007 A 
ATOM      9  N   UNL d   1      46.464 -18.188  41.164  0.00  0.00    -0.225 NA
ATOM     10  C   UNL d   1      46.235 -18.711  44.858  0.00  0.00     0.071 A 
ATOM     11  C   UNL d   1      46.615 -19.611  41.244  0.00  0.00     0.019 A 
ATOM     12  C   UNL d   1      46.344 -19.440  44.487  0.00  0.00     0.087 A 
ATOM     13  C   UNL d   1      46.573 -18.917  40.793  0.00  0.00     0.083 A 
ATOM     14  C   UNL d   1      46.588 -20.247  42.505  0.00  0.00     0.000 C 
ATOM     15  C   UNL d   1      46.386 -20.146  44.955  0.00  0.00     0.021 C 
ATOM     16  C   UNL d   1      46.640 -18.956  39.988  0.00  0.00     0.021 C 
ENDROOT
BRANCH   6  17
ATOM     17  N   UNL d   1      46.082 -17.283  44.786  0.00  0.00    -0.379 NA
BRANCH  17  18
ATOM     18  C   UNL d   1      45.974 -16.470  44.953  0.00  0.00     0.182 C 
BRANCH  18  19
ATOM     19  C   UNL d   1      45.301 -16.079  44.628  0.00  0.00     0.116 C 
BRANCH  19  20
ATOM     20  N   UNL d   1      45.252 -15.229  44.686  0.00  0.00    -0.297 N 
ATOM     21  C   UNL d   1      44.515 -14.867  44.822  0.00  0.00     0.107 A 
ATOM     22  C   UNL d   1      44.467 -14.013  44.880  0.00  0.00     0.142 A 
ATOM     23  O   UNL d   1      45.158 -13.541  44.800  0.00  0.00    -0.300 OA
ATOM     24  C   UNL d   1      45.908 -13.915  44.661  0.00  0.00     0.142 A 
ATOM     25  C   UNL d   1      45.959 -14.762  44.604  0.00  0.00     0.107 A 
ENDBRANCH  19  20
ENDBRANCH  18  19
ENDBRANCH  17  18
ENDBRANCH   6  17
TORSDOF 4
ENDMDL
