MODEL 1
REMARK VINA RESULT:      75.7      0.000      0.000
REMARK  7 active torsions:
REMARK  status: ('A' for Active; 'I' for Inactive)
REMARK    1  A    between atoms: N_2  and  S_1 
REMARK    2  A    between atoms: C_6  and  S_1 
REMARK    3  A    between atoms: C_11  and  C_3 
REMARK    4  A    between atoms: C_4  and  C_5 
REMARK       I    between atoms: N_7  and  C_4 
REMARK       I    between atoms: C_5  and  N_10 
REMARK    5  A    between atoms: C_19  and  N_7 
REMARK    6  A    between atoms: N_10  and  C_11 
REMARK    7  A    between atoms: O_23  and  C_18 
ROOT
ATOM      1  N   UNL d   1     -52.906  24.171  33.943  0.00  0.00    -0.209 N 
ATOM      2  C   UNL d   1     -53.092  23.917  34.708  0.00  0.00     0.197 A 
ATOM      3  O   UNL d   1     -53.736  23.430  34.845  0.00  0.00    -0.287 OA
ATOM      4  C   UNL d   1     -53.380  23.926  33.306  0.00  0.00     0.096 A 
ATOM      5  C   UNL d   1     -54.025  23.438  33.443  0.00  0.00     0.047 A 
ATOM      6  C   UNL d   1     -54.204  23.190  34.206  0.00  0.00     0.126 A 
ENDROOT
BRANCH   2   7
ATOM      7  C   UNL d   1     -52.617  24.162  35.347  0.00  0.00     0.146 C 
BRANCH   7   8
ATOM      8  N   UNL d   1     -52.895  24.086  36.120  0.00  0.00    -0.199 NA
ATOM      9  C   UNL d   1     -52.894  24.732  36.621  0.00  0.00     0.337 C 
ATOM     10  O   UNL d   1     -52.616  25.466  36.357  0.00  0.00    -0.260 OA
BRANCH   9  11
ATOM     11  C   UNL d   1     -53.172  24.655  37.394  0.00  0.00     0.337 C 
ATOM     12  N   UNL d   1     -52.641  24.582  38.018  0.00  0.00    -0.204 NA
ATOM     13  O   UNL d   1     -53.985  24.651  37.542  0.00  0.00    -0.260 OA
BRANCH  12  14
ATOM     14  C   UNL d   1     -52.920  24.505  38.794  0.00  0.00     0.085 A 
ATOM     15  C   UNL d   1     -53.054  23.729  39.009  0.00  0.00     0.019 A 
ATOM     16  C   UNL d   1     -53.327  23.741  39.789  0.00  0.00     0.002 A 
ATOM     17  C   UNL d   1     -53.359  24.518  40.046  0.00  0.00     0.002 A 
ATOM     18  C   UNL d   1     -53.101  25.003  39.416  0.00  0.00     0.019 A 
ENDBRANCH  12  14
ENDBRANCH   9  11
ENDBRANCH   7   8
ENDBRANCH   2   7
BRANCH   1  19
ATOM     19  S   UNL d   1     -52.256  24.661  33.817  0.00  0.00     0.273 S 
ATOM     20  O   UNL d   1     -52.765  25.314  33.772  0.00  0.00    -0.200 OA
ATOM     21  O   UNL d   1     -51.750  24.009  33.861  0.00  0.00    -0.200 OA
BRANCH  19  22
ATOM     22  C   UNL d   1     -51.611  25.159  33.690  0.00  0.00     0.104 A 
ATOM     23  C   UNL d   1     -50.862  24.835  33.579  0.00  0.00     0.015 A 
ATOM     24  C   UNL d   1     -50.214  25.333  33.452  0.00  0.00     0.025 A 
ATOM     25  C   UNL d   1     -50.315  26.146  33.437  0.00  0.00     0.094 A 
ATOM     26  C   UNL d   1     -51.065  26.482  33.547  0.00  0.00     0.025 A 
ATOM     27  C   UNL d   1     -51.717  25.985  33.675  0.00  0.00     0.015 A 
BRANCH  25  28
ATOM     28  O   UNL d   1     -49.664  26.644  33.309  0.00  0.00    -0.328 OA
ATOM     29  C   UNL d   1     -49.753  27.463  33.361  0.00  0.00     0.181 C 
ENDBRANCH  25  28
ENDBRANCH  19  22
ENDBRANCH   1  19
TORSDOF 7
ENDMDL
