MODEL 1
REMARK VINA RESULT:      28.6      0.000      0.000
REMARK  5 active torsions:
REMARK  status: ('A' for Active; 'I' for Inactive)
REMARK    1  A    between atoms: C_2  and  C_1 
REMARK    2  A    between atoms: C_7  and  C_2 
REMARK    3  A    between atoms: O_17  and  C_6 
REMARK    4  A    between atoms: C_10  and  C_7 
REMARK    5  A    between atoms: O_18  and  C_8 
ROOT
ATOM      1  C   UNL d   1     -56.127 -98.925 -44.710  0.00  0.00     0.042 C 
ENDROOT
BRANCH   1   2
ATOM      2  C   UNL d   1     -55.509 -99.249 -44.279  0.00  0.00     0.199 C 
ATOM      3  O   UNL d   1     -55.062 -98.759 -43.768  0.00  0.00    -0.286 OA
BRANCH   2   4
ATOM      4  C   UNL d   1     -55.316-100.053 -44.337  0.00  0.00     0.078 A 
ATOM      5  C   UNL d   1     -55.163-100.381 -45.092  0.00  0.00     0.202 A 
ATOM      6  C   UNL d   1     -54.970-101.180 -45.162  0.00  0.00     0.084 A 
ATOM      7  O   UNL d   1     -55.206 -99.899 -45.772  0.00  0.00    -0.286 OA
ATOM      8  C   UNL d   1     -54.929-101.647 -44.494  0.00  0.00     0.199 A 
ATOM      9  C   UNL d   1     -55.082-101.318 -43.739  0.00  0.00     0.042 A 
ATOM     10  O   UNL d   1     -54.735-102.452 -44.561  0.00  0.00    -0.286 OA
ATOM     11  C   UNL d   1     -55.272-100.532 -43.673  0.00  0.00     0.010 A 
ENDBRANCH   2   4
ENDBRANCH   1   2
BRANCH   1  12
ATOM     12  C   UNL d   1     -56.890 -98.886 -44.401  0.00  0.00     0.005 A 
ATOM     13  C   UNL d   1     -57.530 -98.865 -44.904  0.00  0.00     0.026 A 
ATOM     14  C   UNL d   1     -58.298 -98.825 -44.583  0.00  0.00     0.116 A 
ATOM     15  C   UNL d   1     -58.415 -98.807 -43.776  0.00  0.00     0.116 A 
ATOM     16  C   UNL d   1     -57.753 -98.829 -43.264  0.00  0.00     0.026 A 
ATOM     17  C   UNL d   1     -56.980 -98.869 -43.577  0.00  0.00     0.002 A 
BRANCH  14  18
ATOM     18  O   UNL d   1     -58.954 -98.803 -45.092  0.00  0.00    -0.326 OA
ATOM     19  C   UNL d   1     -58.843 -98.816 -45.912  0.00  0.00     0.181 C 
ENDBRANCH  14  18
BRANCH  15  20
ATOM     20  O   UNL d   1     -59.169 -98.767 -43.445  0.00  0.00    -0.326 OA
ATOM     21  C   UNL d   1     -59.275 -98.798 -42.633  0.00  0.00     0.181 C 
ENDBRANCH  15  20
ENDBRANCH   1  12
TORSDOF 5
ENDMDL
MODEL 2
REMARK VINA RESULT:      30.6      0.752      1.444
REMARK  5 active torsions:
REMARK  status: ('A' for Active; 'I' for Inactive)
REMARK    1  A    between atoms: C_2  and  C_1 
REMARK    2  A    between atoms: C_7  and  C_2 
REMARK    3  A    between atoms: O_17  and  C_6 
REMARK    4  A    between atoms: C_10  and  C_7 
REMARK    5  A    between atoms: O_18  and  C_8 
ROOT
ATOM      1  C   UNL d   1     -56.011 -98.757 -44.314  0.00  0.00     0.042 C 
ENDROOT
BRANCH   1   2
ATOM      2  C   UNL d   1     -55.535 -99.357 -44.606  0.00  0.00     0.199 C 
ATOM      3  O   UNL d   1     -55.248 -99.309 -45.391  0.00  0.00    -0.286 OA
BRANCH   2   4
ATOM      4  C   UNL d   1     -55.332-100.013 -44.142  0.00  0.00     0.078 A 
ATOM      5  C   UNL d   1     -55.066-100.711 -44.519  0.00  0.00     0.202 A 
ATOM      6  C   UNL d   1     -54.860-101.370 -44.068  0.00  0.00     0.084 A 
ATOM      7  O   UNL d   1     -55.009-100.739 -45.351  0.00  0.00    -0.286 OA
ATOM      8  C   UNL d   1     -54.917-101.337 -43.254  0.00  0.00     0.199 A 
ATOM      9  C   UNL d   1     -55.183-100.639 -42.877  0.00  0.00     0.042 A 
ATOM     10  O   UNL d   1     -54.711-101.999 -42.796  0.00  0.00    -0.286 OA
ATOM     11  C   UNL d   1     -55.385 -99.991 -43.324  0.00  0.00     0.010 A 
ENDBRANCH   2   4
ENDBRANCH   1   2
BRANCH   1  12
ATOM     12  C   UNL d   1     -56.826 -98.759 -44.436  0.00  0.00     0.005 A 
ATOM     13  C   UNL d   1     -57.332 -98.764 -43.798  0.00  0.00     0.026 A 
ATOM     14  C   UNL d   1     -58.155 -98.766 -43.932  0.00  0.00     0.116 A 
ATOM     15  C   UNL d   1     -58.457 -98.763 -44.690  0.00  0.00     0.116 A 
ATOM     16  C   UNL d   1     -57.932 -98.757 -45.342  0.00  0.00     0.026 A 
ATOM     17  C   UNL d   1     -57.106 -98.755 -45.217  0.00  0.00     0.002 A 
BRANCH  14  18
ATOM     18  O   UNL d   1     -58.675 -98.771 -43.284  0.00  0.00    -0.326 OA
ATOM     19  C   UNL d   1     -59.308 -99.303 -43.266  0.00  0.00     0.181 C 
ENDBRANCH  14  18
BRANCH  15  20
ATOM     20  O   UNL d   1     -59.269 -98.764 -44.836  0.00  0.00    -0.326 OA
ATOM     21  C   UNL d   1     -59.559 -98.868 -45.595  0.00  0.00     0.181 C 
ENDBRANCH  15  20
ENDBRANCH   1  12
TORSDOF 5
ENDMDL
