MODEL 1
REMARK VINA RESULT:      19.7      0.000      0.000
REMARK  4 active torsions:
REMARK  status: ('A' for Active; 'I' for Inactive)
REMARK    1  A    between atoms: C_4  and  C_1 
REMARK    2  A    between atoms: C_13  and  N_3 
REMARK    3  A    between atoms: C_11  and  N_5 
REMARK    4  A    between atoms: C_14  and  C_11 
ROOT
ATOM      1  C   UNL d   1      45.832 -16.332  44.600  0.00  0.00     0.057 A 
ATOM      2  N   UNL d   1      46.215 -17.579  44.281  0.00  0.00    -0.272 N 
ATOM      3  C   UNL d   1      45.522 -17.629  44.737  0.00  0.00     0.265 A 
ATOM      4  C   UNL d   1      46.400 -16.784  44.200  0.00  0.00     0.086 A 
ATOM      5  C   UNL d   1      45.289 -16.865  44.932  0.00  0.00     0.066 A 
ATOM      6  O   UNL d   1      45.142 -18.331  44.952  0.00  0.00    -0.267 OA
ENDROOT
BRANCH   1   7
ATOM      7  C   UNL d   1      45.852 -15.516  44.630  0.00  0.00     0.149 A 
ATOM      8  N   UNL d   1      46.473 -15.022  44.581  0.00  0.00    -0.227 NA
ATOM      9  C   UNL d   1      46.199 -14.243  44.642  0.00  0.00     0.099 A 
ATOM     10  C   UNL d   1      46.591 -13.527  44.627  0.00  0.00     0.021 A 
ATOM     11  C   UNL d   1      45.390 -14.276  44.730  0.00  0.00     0.083 A 
ATOM     12  C   UNL d   1      46.149 -12.829  44.703  0.00  0.00     0.002 A 
ATOM     13  C   UNL d   1      45.339 -12.862  44.791  0.00  0.00     0.002 A 
ATOM     14  C   UNL d   1      44.947 -13.594  44.806  0.00  0.00     0.019 A 
ATOM     15  N   UNL d   1      45.173 -15.075  44.723  0.00  0.00    -0.289 N 
BRANCH  15  16
ATOM     16  C   UNL d   1      44.397 -15.378  44.796  0.00  0.00     0.082 C 
ATOM     17  C   UNL d   1      43.740 -14.855  44.792  0.00  0.00     0.021 C 
ENDBRANCH  15  16
ENDBRANCH   1   7
BRANCH   2  18
ATOM     18  C   UNL d   1      46.644 -18.222  43.963  0.00  0.00     0.083 C 
BRANCH  18  19
ATOM     19  C   UNL d   1      46.487 -18.472  43.185  0.00  0.00     0.018 A 
ATOM     20  C   UNL d   1      46.250 -19.256  43.054  0.00  0.00     0.002 A 
ATOM     21  C   UNL d   1      46.095 -19.500  42.282  0.00  0.00     0.000 A 
ATOM     22  C   UNL d   1      46.173 -18.982  41.651  0.00  0.00     0.000 A 
ATOM     23  C   UNL d   1      46.408 -18.203  41.786  0.00  0.00     0.000 A 
ATOM     24  C   UNL d   1      46.567 -17.948  42.560  0.00  0.00     0.002 A 
ENDBRANCH  18  19
ENDBRANCH   2  18
TORSDOF 4
ENDMDL
