MODEL 1
REMARK VINA RESULT:      63.1      0.000      0.000
REMARK  4 active torsions:
REMARK  status: ('A' for Active; 'I' for Inactive)
REMARK    1  A    between atoms: C_7  and  C_1 
REMARK    2  A    between atoms: O_10  and  C_2 
REMARK    3  A    between atoms: C_17  and  O_10 
REMARK    4  A    between atoms: C_19  and  C_12 
ROOT
ATOM      1  C   UNL d   1     -58.498 -98.944 -44.689  0.00  0.00     0.197 A 
ATOM      2  C   UNL d   1     -57.708 -98.896 -44.935  0.00  0.00     0.165 A 
ATOM      3  O   UNL d   1     -59.085 -98.943 -45.255  0.00  0.00    -0.301 OA
ATOM      4  C   UNL d   1     -57.528 -98.848 -45.741  0.00  0.00     0.222 A 
ATOM      5  C   UNL d   1     -58.130 -98.850 -46.278  0.00  0.00     0.064 A 
ATOM      6  C   UNL d   1     -58.920 -98.898 -46.031  0.00  0.00     0.106 A 
ATOM      7  C   UNL d   1     -57.949 -98.802 -47.083  0.00  0.00     0.008 A 
ATOM      8  C   UNL d   1     -59.507 -98.897 -46.598  0.00  0.00     0.067 A 
ATOM      9  C   UNL d   1     -59.346 -98.851 -47.389  0.00  0.00     0.198 A 
ATOM     10  C   UNL d   1     -58.556 -98.803 -47.636  0.00  0.00     0.039 A 
ATOM     11  O   UNL d   1     -56.760 -98.801 -45.980  0.00  0.00    -0.284 OA
ATOM     12  O   UNL d   1     -59.952 -98.851 -47.949  0.00  0.00    -0.286 OA
ENDROOT
BRANCH   2  13
ATOM     13  O   UNL d   1     -57.100 -98.895 -44.376  0.00  0.00    -0.302 OA
BRANCH  13  14
ATOM     14  C   UNL d   1     -56.396 -99.288 -44.534  0.00  0.00     0.100 A 
ATOM     15  C   UNL d   1     -55.702 -98.842 -44.624  0.00  0.00     0.025 A 
ATOM     16  C   UNL d   1     -55.012 -99.227 -44.779  0.00  0.00     0.002 A 
ATOM     17  C   UNL d   1     -55.008-100.061 -44.845  0.00  0.00     0.000 A 
ATOM     18  C   UNL d   1     -55.687-100.480 -44.755  0.00  0.00     0.002 A 
ATOM     19  C   UNL d   1     -56.391-100.087 -44.597  0.00  0.00     0.025 A 
ENDBRANCH  13  14
ENDBRANCH   2  13
BRANCH   1  20
ATOM     20  C   UNL d   1     -58.676 -98.991 -43.885  0.00  0.00     0.442 C 
ATOM     21  F   UNL d   1     -58.851 -99.038 -43.069  0.00  0.00    -0.164 F 
ATOM     22  F   UNL d   1     -57.901 -98.774 -43.701  0.00  0.00    -0.164 F 
ATOM     23  F   UNL d   1     -59.452 -99.209 -44.071  0.00  0.00    -0.164 F 
ENDBRANCH   1  20
BRANCH  10  24
ATOM     24  C   UNL d   1     -58.375 -98.755 -48.440  0.00  0.00     0.003 C 
ATOM     25  C   UNL d   1     -57.792 -99.243 -48.758  0.00  0.00     0.000 C 
ENDBRANCH  10  24
TORSDOF 4
ENDMDL
MODEL 2
REMARK VINA RESULT:      65.9      0.906      3.336
REMARK  4 active torsions:
REMARK  status: ('A' for Active; 'I' for Inactive)
REMARK    1  A    between atoms: C_7  and  C_1 
REMARK    2  A    between atoms: O_10  and  C_2 
REMARK    3  A    between atoms: C_17  and  O_10 
REMARK    4  A    between atoms: C_19  and  C_12 
ROOT
ATOM      1  C   UNL d   1     -58.491 -98.988 -44.391  0.00  0.00     0.197 A 
ATOM      2  C   UNL d   1     -58.476 -98.887 -45.214  0.00  0.00     0.165 A 
ATOM      3  O   UNL d   1     -57.784 -99.081 -43.996  0.00  0.00    -0.301 OA
ATOM      4  C   UNL d   1     -57.754 -98.882 -45.617  0.00  0.00     0.222 A 
ATOM      5  C   UNL d   1     -57.071 -98.977 -45.199  0.00  0.00     0.064 A 
ATOM      6  C   UNL d   1     -57.086 -99.078 -44.377  0.00  0.00     0.106 A 
ATOM      7  C   UNL d   1     -56.349 -98.972 -45.603  0.00  0.00     0.008 A 
ATOM      8  C   UNL d   1     -56.379 -99.171 -43.981  0.00  0.00     0.067 A 
ATOM      9  C   UNL d   1     -55.665 -99.169 -44.362  0.00  0.00     0.198 A 
ATOM     10  C   UNL d   1     -55.650 -99.068 -45.185  0.00  0.00     0.039 A 
ATOM     11  O   UNL d   1     -57.740 -98.784 -46.417  0.00  0.00    -0.284 OA
ATOM     12  O   UNL d   1     -54.959 -99.265 -43.947  0.00  0.00    -0.286 OA
ENDROOT
BRANCH   2  13
ATOM     13  O   UNL d   1     -59.182 -98.791 -45.632  0.00  0.00    -0.302 OA
BRANCH  13  14
ATOM     14  C   UNL d   1     -59.214 -98.969 -46.433  0.00  0.00     0.100 A 
ATOM     15  C   UNL d   1     -58.558 -98.791 -46.907  0.00  0.00     0.025 A 
ATOM     16  C   UNL d   1     -58.589 -98.966 -47.692  0.00  0.00     0.002 A 
ATOM     17  C   UNL d   1     -59.276 -99.321 -48.012  0.00  0.00     0.000 A 
ATOM     18  C   UNL d   1     -59.903 -99.489 -47.541  0.00  0.00     0.002 A 
ATOM     19  C   UNL d   1     -59.872 -99.310 -46.740  0.00  0.00     0.025 A 
ENDBRANCH  13  14
ENDBRANCH   2  13
BRANCH   1  20
ATOM     20  C   UNL d   1     -59.212 -98.993 -43.990  0.00  0.00     0.442 C 
ATOM     21  F   UNL d   1     -59.939 -98.995 -43.580  0.00  0.00    -0.164 F 
ATOM     22  F   UNL d   1     -58.827 -98.765 -43.296  0.00  0.00    -0.164 F 
ATOM     23  F   UNL d   1     -59.595 -99.221 -44.687  0.00  0.00    -0.164 F 
ENDBRANCH   1  20
BRANCH  10  24
ATOM     24  C   UNL d   1     -54.929 -99.063 -45.588  0.00  0.00     0.003 C 
ATOM     25  C   UNL d   1     -54.751 -99.671 -46.115  0.00  0.00     0.000 C 
ENDBRANCH  10  24
TORSDOF 4
ENDMDL
