MODEL 1
REMARK VINA RESULT:      31.4      0.000      0.000
REMARK  4 active torsions:
REMARK  status: ('A' for Active; 'I' for Inactive)
REMARK    1  A    between atoms: S_2  and  N_1 
REMARK    2  A    between atoms: C_7  and  S_2 
REMARK    3  A    between atoms: S_8  and  C_5 
REMARK    4  A    between atoms: C_16  and  S_8 
ROOT
ATOM      1  N   UNL d   1      13.633  12.339  -2.824  0.00  0.00    -0.151 N 
ATOM      2  C   UNL d   1      13.421  13.073  -3.128  0.00  0.00     0.102 A 
ATOM      3  N   UNL d   1      13.483  11.779  -3.409  0.00  0.00    -0.155 NA
ATOM      4  C   UNL d   1      13.143  12.973  -3.894  0.00  0.00     0.067 A 
ATOM      5  C   UNL d   1      13.183  12.165  -4.066  0.00  0.00     0.110 A 
ATOM      6  C   UNL d   1      13.476  13.811  -2.731  0.00  0.00     0.022 C 
ATOM      7  C   UNL d   1      12.958  11.811  -4.777  0.00  0.00     0.023 C 
ENDROOT
BRANCH   1   8
ATOM      8  S   UNL d   1      13.937  12.183  -2.080  0.00  0.00     0.292 S 
ATOM      9  O   UNL d   1      14.639  12.564  -2.290  0.00  0.00    -0.198 OA
ATOM     10  O   UNL d   1      13.244  11.806  -1.869  0.00  0.00    -0.198 OA
BRANCH   8  11
ATOM     11  C   UNL d   1      14.251  12.028  -1.329  0.00  0.00     0.135 A 
ATOM     12  S   UNL d   1      13.827  11.921  -0.639  0.00  0.00    -0.073 SA
ATOM     13  C   UNL d   1      14.361  11.781  -0.027  0.00  0.00     0.036 A 
ATOM     14  C   UNL d   1      15.124  11.802  -0.343  0.00  0.00     0.008 A 
ATOM     15  C   UNL d   1      15.057  11.956  -1.154  0.00  0.00     0.020 A 
ENDBRANCH   8  11
ENDBRANCH   1   8
BRANCH   4  16
ATOM     16  S   UNL d   1      12.857  13.504  -4.462  0.00  0.00    -0.084 SA
BRANCH  16  17
ATOM     17  C   UNL d   1      13.244  14.224  -4.580  0.00  0.00     0.029 A 
ATOM     18  C   UNL d   1      13.076  14.873  -4.098  0.00  0.00     0.006 A 
ATOM     19  C   UNL d   1      13.469  15.582  -4.228  0.00  0.00     0.001 A 
ATOM     20  C   UNL d   1      14.027  15.654  -4.828  0.00  0.00     0.000 A 
ATOM     21  C   UNL d   1      14.193  15.006  -5.306  0.00  0.00     0.001 A 
ATOM     22  C   UNL d   1      13.804  14.293  -5.183  0.00  0.00     0.006 A 
ENDBRANCH  16  17
ENDBRANCH   4  16
TORSDOF 4
ENDMDL
MODEL 2
REMARK VINA RESULT:      32.5      1.542      3.801
REMARK  4 active torsions:
REMARK  status: ('A' for Active; 'I' for Inactive)
REMARK    1  A    between atoms: S_2  and  N_1 
REMARK    2  A    between atoms: C_7  and  S_2 
REMARK    3  A    between atoms: S_8  and  C_5 
REMARK    4  A    between atoms: C_16  and  S_8 
ROOT
ATOM      1  N   UNL d   1      13.717  12.427  -2.703  0.00  0.00    -0.151 N 
ATOM      2  C   UNL d   1      13.765  13.144  -2.304  0.00  0.00     0.102 A 
ATOM      3  N   UNL d   1      13.830  11.830  -2.147  0.00  0.00    -0.155 NA
ATOM      4  C   UNL d   1      13.905  12.997  -1.509  0.00  0.00     0.067 A 
ATOM      5  C   UNL d   1      13.946  12.177  -1.414  0.00  0.00     0.110 A 
ATOM      6  C   UNL d   1      13.684  13.908  -2.643  0.00  0.00     0.022 C 
ATOM      7  C   UNL d   1      14.079  11.779  -0.704  0.00  0.00     0.023 C 
ENDROOT
BRANCH   1   8
ATOM      8  S   UNL d   1      13.583  12.315  -3.503  0.00  0.00     0.292 S 
ATOM      9  O   UNL d   1      14.292  11.895  -3.559  0.00  0.00    -0.198 OA
ATOM     10  O   UNL d   1      12.882  12.730  -3.450  0.00  0.00    -0.198 OA
BRANCH   8  11
ATOM     11  C   UNL d   1      13.454  12.197  -4.313  0.00  0.00     0.135 A 
ATOM     12  S   UNL d   1      13.926  12.469  -4.922  0.00  0.00    -0.073 SA
ATOM     13  C   UNL d   1      13.591  12.225  -5.635  0.00  0.00     0.036 A 
ATOM     14  C   UNL d   1      12.905  11.799  -5.464  0.00  0.00     0.008 A 
ATOM     15  C   UNL d   1      12.819  11.781  -4.640  0.00  0.00     0.020 A 
ENDBRANCH   8  11
ENDBRANCH   1   8
BRANCH   4  16
ATOM     16  S   UNL d   1      14.003  13.495  -0.854  0.00  0.00    -0.084 SA
BRANCH  16  17
ATOM     17  C   UNL d   1      14.764  13.671  -0.585  0.00  0.00     0.029 A 
ATOM     18  C   UNL d   1      15.354  13.092  -0.588  0.00  0.00     0.006 A 
ATOM     19  C   UNL d   1      16.105  13.282  -0.318  0.00  0.00     0.001 A 
ATOM     20  C   UNL d   1      16.279  14.038  -0.045  0.00  0.00     0.000 A 
ATOM     21  C   UNL d   1      15.691  14.613  -0.042  0.00  0.00     0.001 A 
ATOM     22  C   UNL d   1      14.937  14.431  -0.311  0.00  0.00     0.006 A 
ENDBRANCH  16  17
ENDBRANCH   4  16
TORSDOF 4
ENDMDL
MODEL 3
REMARK VINA RESULT:      32.7      1.015      1.989
REMARK  4 active torsions:
REMARK  status: ('A' for Active; 'I' for Inactive)
REMARK    1  A    between atoms: S_2  and  N_1 
REMARK    2  A    between atoms: C_7  and  S_2 
REMARK    3  A    between atoms: S_8  and  C_5 
REMARK    4  A    between atoms: C_16  and  S_8 
ROOT
ATOM      1  N   UNL d   1      13.867  13.080  -2.567  0.00  0.00    -0.151 N 
ATOM      2  C   UNL d   1      13.489  12.612  -3.127  0.00  0.00     0.102 A 
ATOM      3  N   UNL d   1      13.837  13.857  -2.837  0.00  0.00    -0.155 NA
ATOM      4  C   UNL d   1      13.226  13.090  -3.740  0.00  0.00     0.067 A 
ATOM      5  C   UNL d   1      13.444  13.866  -3.556  0.00  0.00     0.110 A 
ATOM      6  C   UNL d   1      13.383  11.780  -3.089  0.00  0.00     0.022 C 
ATOM      7  C   UNL d   1      13.292  14.532  -4.019  0.00  0.00     0.023 C 
ENDROOT
BRANCH   1   8
ATOM      8  S   UNL d   1      14.212  12.831  -1.867  0.00  0.00     0.292 S 
ATOM      9  O   UNL d   1      14.959  12.976  -2.189  0.00  0.00    -0.198 OA
ATOM     10  O   UNL d   1      13.475  12.687  -1.547  0.00  0.00    -0.198 OA
BRANCH   8  11
ATOM     11  C   UNL d   1      14.569  12.581  -1.163  0.00  0.00     0.135 A 
ATOM     12  S   UNL d   1      14.475  11.853  -0.804  0.00  0.00    -0.073 SA
ATOM     13  C   UNL d   1      14.930  11.843  -0.117  0.00  0.00     0.036 A 
ATOM     14  C   UNL d   1      15.310  12.573  -0.051  0.00  0.00     0.008 A 
ATOM     15  C   UNL d   1      15.085  13.034  -0.702  0.00  0.00     0.020 A 
ENDBRANCH   8  11
ENDBRANCH   1   8
BRANCH   4  16
ATOM     16  S   UNL d   1      12.817  12.930  -4.442  0.00  0.00    -0.084 SA
BRANCH  16  17
ATOM     17  C   UNL d   1      13.207  12.552  -5.065  0.00  0.00     0.029 A 
ATOM     18  C   UNL d   1      14.032  12.565  -5.112  0.00  0.00     0.006 A 
ATOM     19  C   UNL d   1      14.404  12.185  -5.736  0.00  0.00     0.001 A 
ATOM     20  C   UNL d   1      13.971  11.792  -6.314  0.00  0.00     0.000 A 
ATOM     21  C   UNL d   1      13.149  11.780  -6.265  0.00  0.00     0.001 A 
ATOM     22  C   UNL d   1      12.769  12.158  -5.644  0.00  0.00     0.006 A 
ENDBRANCH  16  17
ENDBRANCH   4  16
TORSDOF 4
ENDMDL
