MODEL 1
REMARK VINA RESULT:      -8.5      0.000      0.000
REMARK  5 active torsions:
REMARK  status: ('A' for Active; 'I' for Inactive)
REMARK    1  A    between atoms: N_2  and  C_1 
REMARK    2  A    between atoms: C_9  and  C_5 
REMARK       I    between atoms: N_6  and  C_7 
REMARK    3  A    between atoms: C_11  and  N_6 
REMARK    4  A    between atoms: C_7  and  C_10 
REMARK    5  A    between atoms: C_10  and  C_9 
ROOT
ATOM      1  N   UNL d   1      53.377  32.987  54.017  0.00  0.00    -0.208 NA
ATOM      2  C   UNL d   1      53.298  32.501  53.385  0.00  0.00     0.279 C 
ATOM      3  O   UNL d   1      53.011  32.775  52.670  0.00  0.00    -0.265 OA
ENDROOT
BRANCH   2   4
ATOM      4  C   UNL d   1      53.510  31.705  53.452  0.00  0.00     0.063 C 
BRANCH   4   5
ATOM      5  C   UNL d   1      53.049  31.104  53.100  0.00  0.00     0.011 C 
BRANCH   5   6
ATOM      6  C   UNL d   1      53.030  30.356  53.409  0.00  0.00     0.031 A 
ATOM      7  S   UNL d   1      53.334  30.035  54.104  0.00  0.00    -0.064 SA
ATOM      8  C   UNL d   1      53.138  29.253  54.110  0.00  0.00     0.156 A 
ATOM      9  C   UNL d   1      52.720  29.080  53.437  0.00  0.00     0.031 A 
ATOM     10  C   UNL d   1      52.648  29.750  52.999  0.00  0.00     0.009 A 
BRANCH   8  11
ATOM     11  N   UNL d   1      53.345  28.725  54.726  0.00  0.00    -0.107 N 
ATOM     12  O   UNL d   1      53.140  28.859  55.497  0.00  0.00    -0.531 OA
ATOM     13  O   UNL d   1      53.779  28.041  54.525  0.00  0.00    -0.531 OA
ENDBRANCH   8  11
ENDBRANCH   5   6
ENDBRANCH   4   5
ENDBRANCH   2   4
BRANCH   1  14
ATOM     14  C   UNL d   1      53.166  33.780  53.949  0.00  0.00     0.085 A 
ATOM     15  C   UNL d   1      53.453  34.332  54.498  0.00  0.00     0.018 A 
ATOM     16  C   UNL d   1      53.947  34.086  55.108  0.00  0.00     0.002 C 
ATOM     17  C   UNL d   1      53.242  35.122  54.431  0.00  0.00     0.002 A 
ATOM     18  C   UNL d   1      52.742  35.373  53.814  0.00  0.00     0.000 A 
ATOM     19  C   UNL d   1      52.460  34.815  53.270  0.00  0.00     0.002 A 
ATOM     20  C   UNL d   1      52.670  34.026  53.337  0.00  0.00     0.019 A 
ENDBRANCH   1  14
TORSDOF 5
ENDMDL
MODEL 2
REMARK VINA RESULT:      -8.1      3.083      5.000
REMARK  5 active torsions:
REMARK  status: ('A' for Active; 'I' for Inactive)
REMARK    1  A    between atoms: N_2  and  C_1 
REMARK    2  A    between atoms: C_9  and  C_5 
REMARK       I    between atoms: N_6  and  C_7 
REMARK    3  A    between atoms: C_11  and  N_6 
REMARK    4  A    between atoms: C_7  and  C_10 
REMARK    5  A    between atoms: C_10  and  C_9 
ROOT
ATOM      1  N   UNL d   1      52.784  34.220  53.623  0.00  0.00    -0.208 NA
ATOM      2  C   UNL d   1      52.191  33.833  53.249  0.00  0.00     0.279 C 
ATOM      3  O   UNL d   1      52.204  33.021  53.159  0.00  0.00    -0.265 OA
ENDROOT
BRANCH   2   4
ATOM      4  C   UNL d   1      51.550  34.259  52.948  0.00  0.00     0.063 C 
BRANCH   4   5
ATOM      5  C   UNL d   1      50.799  33.904  52.857  0.00  0.00     0.011 C 
BRANCH   5   6
ATOM      6  C   UNL d   1      50.147  34.345  52.670  0.00  0.00     0.031 A 
ATOM      7  S   UNL d   1      49.683  34.863  53.111  0.00  0.00    -0.064 SA
ATOM      8  C   UNL d   1      49.105  35.139  52.622  0.00  0.00     0.156 A 
ATOM      9  C   UNL d   1      49.198  34.807  51.888  0.00  0.00     0.031 A 
ATOM     10  C   UNL d   1      49.835  34.318  51.906  0.00  0.00     0.009 A 
BRANCH   8  11
ATOM     11  N   UNL d   1      48.514  35.682  52.859  0.00  0.00    -0.107 N 
ATOM     12  O   UNL d   1      48.599  36.156  53.509  0.00  0.00    -0.531 OA
ATOM     13  O   UNL d   1      47.818  35.728  52.401  0.00  0.00    -0.531 OA
ENDBRANCH   8  11
ENDBRANCH   5   6
ENDBRANCH   4   5
ENDBRANCH   2   4
BRANCH   1  14
ATOM     14  C   UNL d   1      53.422  33.796  53.922  0.00  0.00     0.085 A 
ATOM     15  C   UNL d   1      53.757  34.011  54.651  0.00  0.00     0.018 A 
ATOM     16  C   UNL d   1      53.449  34.648  55.071  0.00  0.00     0.002 C 
ATOM     17  C   UNL d   1      54.393  33.588  54.949  0.00  0.00     0.002 A 
ATOM     18  C   UNL d   1      54.705  32.943  54.525  0.00  0.00     0.000 A 
ATOM     19  C   UNL d   1      54.366  32.734  53.799  0.00  0.00     0.002 A 
ATOM     20  C   UNL d   1      53.730  33.157  53.500  0.00  0.00     0.019 A 
ENDBRANCH   1  14
TORSDOF 5
ENDMDL
MODEL 3
REMARK VINA RESULT:      -7.8      2.765      4.019
REMARK  5 active torsions:
REMARK  status: ('A' for Active; 'I' for Inactive)
REMARK    1  A    between atoms: N_2  and  C_1 
REMARK    2  A    between atoms: C_9  and  C_5 
REMARK       I    between atoms: N_6  and  C_7 
REMARK    3  A    between atoms: C_11  and  N_6 
REMARK    4  A    between atoms: C_7  and  C_10 
REMARK    5  A    between atoms: C_10  and  C_9 
ROOT
ATOM      1  N   UNL d   1      50.406  34.334  52.884  0.00  0.00    -0.208 NA
ATOM      2  C   UNL d   1      51.142  34.181  52.607  0.00  0.00     0.279 C 
ATOM      3  O   UNL d   1      51.310  34.208  51.808  0.00  0.00    -0.265 OA
ENDROOT
BRANCH   2   4
ATOM      4  C   UNL d   1      51.747  33.991  53.138  0.00  0.00     0.063 C 
BRANCH   4   5
ATOM      5  C   UNL d   1      52.451  33.624  52.877  0.00  0.00     0.011 C 
BRANCH   5   6
ATOM      6  C   UNL d   1      53.020  33.391  53.402  0.00  0.00     0.031 A 
ATOM      7  S   UNL d   1      53.327  33.744  54.081  0.00  0.00    -0.064 SA
ATOM      8  C   UNL d   1      53.888  33.245  54.374  0.00  0.00     0.156 A 
ATOM      9  C   UNL d   1      53.938  32.592  53.896  0.00  0.00     0.031 A 
ATOM     10  C   UNL d   1      53.410  32.671  53.296  0.00  0.00     0.009 A 
BRANCH   8  11
ATOM     11  N   UNL d   1      54.334  33.400  55.065  0.00  0.00    -0.107 N 
ATOM     12  O   UNL d   1      54.750  34.087  55.166  0.00  0.00    -0.531 OA
ATOM     13  O   UNL d   1      54.342  32.819  55.665  0.00  0.00    -0.531 OA
ENDBRANCH   8  11
ENDBRANCH   5   6
ENDBRANCH   4   5
ENDBRANCH   2   4
BRANCH   1  14
ATOM     14  C   UNL d   1      49.803  34.522  52.356  0.00  0.00     0.085 A 
ATOM     15  C   UNL d   1      49.182  35.017  52.597  0.00  0.00     0.018 A 
ATOM     16  C   UNL d   1      49.171  35.318  53.362  0.00  0.00     0.002 C 
ATOM     17  C   UNL d   1      48.582  35.205  52.071  0.00  0.00     0.002 A 
ATOM     18  C   UNL d   1      48.592  34.902  51.295  0.00  0.00     0.000 A 
ATOM     19  C   UNL d   1      49.215  34.408  51.063  0.00  0.00     0.002 A 
ATOM     20  C   UNL d   1      49.816  34.220  51.589  0.00  0.00     0.019 A 
ENDBRANCH   1  14
TORSDOF 5
ENDMDL
MODEL 4
REMARK VINA RESULT:      -7.8      1.886      4.800
REMARK  5 active torsions:
REMARK  status: ('A' for Active; 'I' for Inactive)
REMARK    1  A    between atoms: N_2  and  C_1 
REMARK    2  A    between atoms: C_9  and  C_5 
REMARK       I    between atoms: N_6  and  C_7 
REMARK    3  A    between atoms: C_11  and  N_6 
REMARK    4  A    between atoms: C_7  and  C_10 
REMARK    5  A    between atoms: C_10  and  C_9 
ROOT
ATOM      1  N   UNL d   1      53.380  31.323  53.668  0.00  0.00    -0.208 NA
ATOM      2  C   UNL d   1      53.072  31.851  53.150  0.00  0.00     0.279 C 
ATOM      3  O   UNL d   1      52.603  31.610  52.526  0.00  0.00    -0.265 OA
ENDROOT
BRANCH   2   4
ATOM      4  C   UNL d   1      53.231  32.657  53.245  0.00  0.00     0.063 C 
BRANCH   4   5
ATOM      5  C   UNL d   1      52.630  33.229  53.148  0.00  0.00     0.011 C 
BRANCH   5   6
ATOM      6  C   UNL d   1      52.709  33.975  53.453  0.00  0.00     0.031 A 
ATOM      7  S   UNL d   1      52.929  34.249  54.198  0.00  0.00    -0.064 SA
ATOM      8  C   UNL d   1      52.907  35.054  54.170  0.00  0.00     0.156 A 
ATOM      9  C   UNL d   1      52.681  35.288  53.427  0.00  0.00     0.031 A 
ATOM     10  C   UNL d   1      52.556  34.633  52.979  0.00  0.00     0.009 A 
BRANCH   8  11
ATOM     11  N   UNL d   1      53.094  35.548  54.820  0.00  0.00    -0.107 N 
ATOM     12  O   UNL d   1      53.310  35.250  55.540  0.00  0.00    -0.531 OA
ATOM     13  O   UNL d   1      53.053  36.375  54.707  0.00  0.00    -0.531 OA
ENDBRANCH   8  11
ENDBRANCH   5   6
ENDBRANCH   4   5
ENDBRANCH   2   4
BRANCH   1  14
ATOM     14  C   UNL d   1      53.223  30.521  53.573  0.00  0.00     0.085 A 
ATOM     15  C   UNL d   1      53.294  30.006  54.220  0.00  0.00     0.018 A 
ATOM     16  C   UNL d   1      53.523  30.299  54.954  0.00  0.00     0.002 C 
ATOM     17  C   UNL d   1      53.137  29.206  54.125  0.00  0.00     0.002 A 
ATOM     18  C   UNL d   1      52.906  28.909  53.383  0.00  0.00     0.000 A 
ATOM     19  C   UNL d   1      52.837  29.429  52.742  0.00  0.00     0.002 A 
ATOM     20  C   UNL d   1      52.994  30.228  52.836  0.00  0.00     0.019 A 
ENDBRANCH   1  14
TORSDOF 5
ENDMDL
MODEL 5
REMARK VINA RESULT:      -7.7      3.550      4.937
REMARK  5 active torsions:
REMARK  status: ('A' for Active; 'I' for Inactive)
REMARK    1  A    between atoms: N_2  and  C_1 
REMARK    2  A    between atoms: C_9  and  C_5 
REMARK       I    between atoms: N_6  and  C_7 
REMARK    3  A    between atoms: C_11  and  N_6 
REMARK    4  A    between atoms: C_7  and  C_10 
REMARK    5  A    between atoms: C_10  and  C_9 
ROOT
ATOM      1  N   UNL d   1      49.080  35.243  52.983  0.00  0.00    -0.208 NA
ATOM      2  C   UNL d   1      49.569  34.754  52.578  0.00  0.00     0.279 C 
ATOM      3  O   UNL d   1      49.406  34.531  51.809  0.00  0.00    -0.265 OA
ENDROOT
BRANCH   2   4
ATOM      4  C   UNL d   1      50.254  34.468  52.942  0.00  0.00     0.063 C 
BRANCH   4   5
ATOM      5  C   UNL d   1      50.938  34.290  52.497  0.00  0.00     0.011 C 
BRANCH   5   6
ATOM      6  C   UNL d   1      51.630  34.081  52.859  0.00  0.00     0.031 A 
ATOM      7  S   UNL d   1      51.911  33.361  53.146  0.00  0.00    -0.064 SA
ATOM      8  C   UNL d   1      52.644  33.498  53.451  0.00  0.00     0.156 A 
ATOM      9  C   UNL d   1      52.827  34.283  53.360  0.00  0.00     0.031 A 
ATOM     10  C   UNL d   1      52.212  34.650  52.998  0.00  0.00     0.009 A 
BRANCH   8  11
ATOM     11  N   UNL d   1      53.121  32.905  53.800  0.00  0.00    -0.107 N 
ATOM     12  O   UNL d   1      53.349  32.241  53.397  0.00  0.00    -0.531 OA
ATOM     13  O   UNL d   1      53.364  33.013  54.591  0.00  0.00    -0.531 OA
ENDBRANCH   8  11
ENDBRANCH   5   6
ENDBRANCH   4   5
ENDBRANCH   2   4
BRANCH   1  14
ATOM     14  C   UNL d   1      48.398  35.528  52.620  0.00  0.00     0.085 A 
ATOM     15  C   UNL d   1      47.924  36.085  53.011  0.00  0.00     0.018 A 
ATOM     16  C   UNL d   1      48.136  36.350  53.761  0.00  0.00     0.002 C 
ATOM     17  C   UNL d   1      47.244  36.369  52.650  0.00  0.00     0.002 A 
ATOM     18  C   UNL d   1      47.028  36.102  51.892  0.00  0.00     0.000 A 
ATOM     19  C   UNL d   1      47.507  35.546  51.507  0.00  0.00     0.002 A 
ATOM     20  C   UNL d   1      48.186  35.262  51.868  0.00  0.00     0.019 A 
ENDBRANCH   1  14
TORSDOF 5
ENDMDL
MODEL 6
REMARK VINA RESULT:      -6.3     10.183     10.701
REMARK  5 active torsions:
REMARK  status: ('A' for Active; 'I' for Inactive)
REMARK    1  A    between atoms: N_2  and  C_1 
REMARK    2  A    between atoms: C_9  and  C_5 
REMARK       I    between atoms: N_6  and  C_7 
REMARK    3  A    between atoms: C_11  and  N_6 
REMARK    4  A    between atoms: C_7  and  C_10 
REMARK    5  A    between atoms: C_10  and  C_9 
ROOT
ATOM      1  N   UNL d   1      44.401  29.762  60.694  0.00  0.00    -0.208 NA
ATOM      2  C   UNL d   1      44.682  29.997  59.982  0.00  0.00     0.279 C 
ATOM      3  O   UNL d   1      44.984  30.748  59.870  0.00  0.00    -0.265 OA
ENDROOT
BRANCH   2   4
ATOM      4  C   UNL d   1      44.667  29.471  59.344  0.00  0.00     0.063 C 
BRANCH   4   5
ATOM      5  C   UNL d   1      45.162  29.584  58.680  0.00  0.00     0.011 C 
BRANCH   5   6
ATOM      6  C   UNL d   1      45.108  29.103  58.032  0.00  0.00     0.031 A 
ATOM      7  S   UNL d   1      45.202  28.290  57.935  0.00  0.00    -0.064 SA
ATOM      8  C   UNL d   1      45.080  28.129  57.154  0.00  0.00     0.156 A 
ATOM      9  C   UNL d   1      44.913  28.820  56.764  0.00  0.00     0.031 A 
ATOM     10  C   UNL d   1      44.927  29.424  57.293  0.00  0.00     0.009 A 
BRANCH   8  11
ATOM     11  N   UNL d   1      45.125  27.360  56.825  0.00  0.00    -0.107 N 
ATOM     12  O   UNL d   1      44.469  26.958  56.577  0.00  0.00    -0.531 OA
ATOM     13  O   UNL d   1      45.879  27.008  56.755  0.00  0.00    -0.531 OA
ENDBRANCH   8  11
ENDBRANCH   5   6
ENDBRANCH   4   5
ENDBRANCH   2   4
BRANCH   1  14
ATOM     14  C   UNL d   1      44.415  30.286  61.330  0.00  0.00     0.085 A 
ATOM     15  C   UNL d   1      44.527  29.998  62.100  0.00  0.00     0.018 A 
ATOM     16  C   UNL d   1      44.622  29.191  62.226  0.00  0.00     0.002 C 
ATOM     17  C   UNL d   1      44.541  30.519  62.733  0.00  0.00     0.002 A 
ATOM     18  C   UNL d   1      44.444  31.337  62.606  0.00  0.00     0.000 A 
ATOM     19  C   UNL d   1      44.334  31.616  61.834  0.00  0.00     0.002 A 
ATOM     20  C   UNL d   1      44.319  31.095  61.202  0.00  0.00     0.019 A 
ENDBRANCH   1  14
TORSDOF 5
ENDMDL
