MODEL 1
REMARK VINA RESULT:      -4.5      0.000      0.000
REMARK  6 active torsions:
REMARK  status: ('A' for Active; 'I' for Inactive)
REMARK    1  A    between atoms: C_10  and  C_2 
REMARK    2  A    between atoms: S_12  and  C_7 
REMARK    3  A    between atoms: C_11  and  C_14 
REMARK    4  A    between atoms: O_15  and  C_11 
REMARK    5  A    between atoms: C_14  and  S_12 
REMARK    6  A    between atoms: C_18  and  O_15 
ROOT
ATOM      1  N   UNL d   1      58.473  -0.688  29.570  0.00  0.00    -0.191 N 
ATOM      2  C   UNL d   1      58.906  -1.056  28.980  0.00  0.00     0.187 A 
ATOM      3  N   UNL d   1      59.156  -0.477  28.455  0.00  0.00    -0.127 NA
ATOM      4  C   UNL d   1      58.447   0.117  29.424  0.00  0.00     0.187 A 
ATOM      5  N   UNL d   1      58.085  -0.995  30.248  0.00  0.00    -0.156 NA
ATOM      6  N   UNL d   1      58.876   0.253  28.723  0.00  0.00    -0.127 NA
ATOM      7  C   UNL d   1      57.681  -0.488  30.759  0.00  0.00     0.131 A 
ATOM      8  C   UNL d   1      58.044   0.624  29.935  0.00  0.00     0.043 A 
ATOM      9  C   UNL d   1      57.662   0.322  30.602  0.00  0.00     0.031 A 
ENDROOT
BRANCH   7  10
ATOM     10  S   UNL d   1      57.299  -0.791  31.426  0.00  0.00    -0.060 SA
BRANCH  10  11
ATOM     11  C   UNL d   1      56.687  -0.365  31.776  0.00  0.00     0.105 C 
BRANCH  11  12
ATOM     12  C   UNL d   1      56.298  -0.670  32.425  0.00  0.00     0.307 C 
ATOM     13  O   UNL d   1      56.140  -1.479  32.472  0.00  0.00    -0.258 OA
BRANCH  12  14
ATOM     14  O   UNL d   1      56.065  -0.167  33.031  0.00  0.00    -0.271 OA
BRANCH  14  15
ATOM     15  C   UNL d   1      55.310  -0.249  33.372  0.00  0.00     0.126 C 
ATOM     16  C   UNL d   1      55.057   0.291  33.926  0.00  0.00     0.029 C 
ENDBRANCH  14  15
ENDBRANCH  12  14
ENDBRANCH  11  12
ENDBRANCH  10  11
ENDBRANCH   7  10
BRANCH   2  17
ATOM     17  C   UNL d   1      59.066  -1.857  28.916  0.00  0.00     0.038 A 
ATOM     18  C   UNL d   1      58.531  -2.359  28.552  0.00  0.00     0.003 A 
ATOM     19  C   UNL d   1      58.690  -3.168  28.487  0.00  0.00     0.000 A 
ATOM     20  C   UNL d   1      59.398  -3.467  28.794  0.00  0.00     0.000 A 
ATOM     21  C   UNL d   1      59.940  -2.965  29.162  0.00  0.00     0.000 A 
ATOM     22  C   UNL d   1      59.774  -2.156  29.224  0.00  0.00     0.003 A 
ENDBRANCH   2  17
TORSDOF 6
ENDMDL
