MODEL 1
REMARK VINA RESULT:      73.7      0.000      0.000
REMARK  7 active torsions:
REMARK  status: ('A' for Active; 'I' for Inactive)
REMARK    1  A    between atoms: N_8  and  C_3 
REMARK    2  A    between atoms: C_10  and  C_5 
REMARK    3  A    between atoms: C_15  and  N_8 
REMARK    4  A    between atoms: N_12  and  C_10 
REMARK    5  A    between atoms: C_21  and  N_12 
REMARK    6  A    between atoms: O_22  and  C_16 
REMARK    7  A    between atoms: C_23  and  C_21 
ROOT
ATOM      1  N   UNL d   1      59.449  49.684  51.375  0.00  0.00    -0.209 NA
ATOM      2  N   UNL d   1      60.590  49.605  52.237  0.00  0.00    -0.258 N 
ATOM      3  C   UNL d   1      59.931  49.673  50.715  0.00  0.00     0.170 A 
ATOM      4  C   UNL d   1      59.771  49.650  52.146  0.00  0.00     0.152 A 
ATOM      5  C   UNL d   1      60.750  49.627  50.806  0.00  0.00     0.111 A 
ATOM      6  C   UNL d   1      61.085  49.593  51.559  0.00  0.00     0.270 A 
ATOM      7  C   UNL d   1      59.289  49.662  52.806  0.00  0.00     0.035 A 
ATOM      8  C   UNL d   1      60.926  49.571  52.990  0.00  0.00     0.084 A 
ATOM      9  O   UNL d   1      61.915  49.547  51.637  0.00  0.00    -0.266 OA
ATOM     10  C   UNL d   1      60.444  49.582  53.651  0.00  0.00     0.019 A 
ATOM     11  C   UNL d   1      59.624  49.628  53.559  0.00  0.00     0.005 A 
ATOM     12  C   UNL d   1      58.460  49.708  52.729  0.00  0.00     0.003 C 
ENDROOT
BRANCH   3  13
ATOM     13  N   UNL d   1      59.578  49.708  49.949  0.00  0.00    -0.227 NA
BRANCH  13  14
ATOM     14  C   UNL d   1      58.769  49.628  49.855  0.00  0.00     0.083 A 
ATOM     15  C   UNL d   1      58.475  49.532  49.098  0.00  0.00     0.021 A 
ATOM     16  C   UNL d   1      57.650  49.448  48.988  0.00  0.00     0.026 A 
ATOM     17  C   UNL d   1      57.150  49.463  49.628  0.00  0.00     0.094 A 
ATOM     18  C   UNL d   1      57.441  49.559  50.388  0.00  0.00     0.026 A 
ATOM     19  C   UNL d   1      58.245  49.640  50.502  0.00  0.00     0.021 A 
BRANCH  17  20
ATOM     20  O   UNL d   1      56.315  49.377  49.496  0.00  0.00    -0.328 OA
ATOM     21  C   UNL d   1      56.039  48.928  48.839  0.00  0.00     0.181 C 
ENDBRANCH  17  20
ENDBRANCH  13  14
ENDBRANCH   3  13
BRANCH   5  22
ATOM     22  C   UNL d   1      61.240  49.616  50.135  0.00  0.00     0.107 C 
BRANCH  22  23
ATOM     23  N   UNL d   1      61.529  48.897  49.852  0.00  0.00    -0.242 NA
BRANCH  23  24
ATOM     24  C   UNL d   1      61.489  48.229  50.324  0.00  0.00     0.099 C 
BRANCH  24  25
ATOM     25  C   UNL d   1      61.683  47.492  50.007  0.00  0.00     0.019 A 
ATOM     26  C   UNL d   1      61.139  46.881  50.041  0.00  0.00     0.002 A 
ATOM     27  C   UNL d   1      61.332  46.144  49.724  0.00  0.00     0.000 A 
ATOM     28  C   UNL d   1      62.068  46.018  49.374  0.00  0.00     0.000 A 
ATOM     29  C   UNL d   1      62.611  46.629  49.341  0.00  0.00     0.000 A 
ATOM     30  C   UNL d   1      62.419  47.366  49.657  0.00  0.00     0.002 A 
ENDBRANCH  24  25
ENDBRANCH  23  24
ENDBRANCH  22  23
ENDBRANCH   5  22
TORSDOF 7
ENDMDL
