MODEL 1
REMARK VINA RESULT:      -3.8      0.000      0.000
REMARK  0 active torsions:
REMARK  status: ('A' for Active; 'I' for Inactive)
ROOT
ATOM      1  N   UNL d   1      30.390  17.248 -24.347  0.00  0.00    -0.176 N 
ATOM      2  C   UNL d   1      30.793  16.653 -23.942  0.00  0.00     0.167 A 
ATOM      3  N   UNL d   1      30.792  17.826 -24.725  0.00  0.00    -0.150 NA
ATOM      4  C   UNL d   1      29.546  17.235 -24.356  0.00  0.00     0.283 A 
ATOM      5  N   UNL d   1      30.349  16.049 -23.548  0.00  0.00    -0.227 NA
ATOM      6  C   UNL d   1      31.630  17.837 -24.715  0.00  0.00     0.159 A 
ATOM      7  C   UNL d   1      29.115  16.642 -23.970  0.00  0.00     0.076 A 
ATOM      8  C   UNL d   1      31.594  16.641 -23.917  0.00  0.00     0.038 A 
ATOM      9  C   UNL d   1      29.518  16.047 -23.564  0.00  0.00     0.088 A 
ATOM     10  C   UNL d   1      32.033  17.241 -24.309  0.00  0.00     0.033 A 
ATOM     11  O   UNL d   1      29.141  17.834 -24.765  0.00  0.00    -0.265 OA
ATOM     12 CL   UNL d   1      32.036  18.417 -25.094  0.00  0.00    -0.060 Cl
ATOM     13  C   UNL d   1      28.297  16.642 -23.986  0.00  0.00     0.006 A 
ATOM     14  C   UNL d   1      31.997  16.045 -23.512  0.00  0.00     0.003 A 
ATOM     15  C   UNL d   1      32.838  17.231 -24.286  0.00  0.00     0.003 A 
ATOM     16  C   UNL d   1      29.099  15.456 -23.178  0.00  0.00     0.019 A 
ATOM     17  C   UNL d   1      27.871  16.051 -23.601  0.00  0.00     0.000 A 
ATOM     18  C   UNL d   1      32.838  16.051 -23.498  0.00  0.00     0.000 A 
ATOM     19  C   UNL d   1      33.241  16.636 -23.880  0.00  0.00     0.000 A 
ATOM     20  C   UNL d   1      28.273  15.456 -23.196  0.00  0.00     0.002 A 
ENDROOT
TORSDOF 0
ENDMDL
MODEL 2
REMARK VINA RESULT:      -3.8      1.041      3.293
REMARK  0 active torsions:
REMARK  status: ('A' for Active; 'I' for Inactive)
ROOT
ATOM      1  N   UNL d   1      30.493  17.112 -24.218  0.00  0.00    -0.176 N 
ATOM      2  C   UNL d   1      30.240  16.433 -23.824  0.00  0.00     0.167 A 
ATOM      3  N   UNL d   1      29.963  17.632 -24.515  0.00  0.00    -0.150 NA
ATOM      4  C   UNL d   1      31.321  17.249 -24.303  0.00  0.00     0.283 A 
ATOM      5  N   UNL d   1      30.817  15.895 -23.517  0.00  0.00    -0.227 NA
ATOM      6  C   UNL d   1      29.141  17.493 -24.429  0.00  0.00     0.159 A 
ATOM      7  C   UNL d   1      31.884  16.720 -24.002  0.00  0.00     0.076 A 
ATOM      8  C   UNL d   1      29.459  16.278 -23.729  0.00  0.00     0.038 A 
ATOM      9  C   UNL d   1      31.631  16.041 -23.607  0.00  0.00     0.088 A 
ATOM     10  C   UNL d   1      28.888  16.814 -24.035  0.00  0.00     0.033 A 
ATOM     11  O   UNL d   1      31.576  17.933 -24.700  0.00  0.00    -0.265 OA
ATOM     12 CL   UNL d   1      28.606  18.014 -24.726  0.00  0.00    -0.060 Cl
ATOM     13  C   UNL d   1      32.684  16.864 -24.091  0.00  0.00     0.006 A 
ATOM     14  C   UNL d   1      29.206  15.599 -23.335  0.00  0.00     0.003 A 
ATOM     15  C   UNL d   1      28.102  16.661 -23.941  0.00  0.00     0.003 A 
ATOM     16  C   UNL d   1      32.180  15.511 -23.305  0.00  0.00     0.019 A 
ATOM     17  C   UNL d   1      33.241  16.337 -23.790  0.00  0.00     0.000 A 
ATOM     18  C   UNL d   1      28.382  15.456 -23.246  0.00  0.00     0.000 A 
ATOM     19  C   UNL d   1      27.849  15.982 -23.546  0.00  0.00     0.000 A 
ATOM     20  C   UNL d   1      32.988  15.658 -23.396  0.00  0.00     0.002 A 
ENDROOT
TORSDOF 0
ENDMDL
MODEL 3
REMARK VINA RESULT:      -3.2      4.945      6.087
REMARK  0 active torsions:
REMARK  status: ('A' for Active; 'I' for Inactive)
ROOT
ATOM      1  N   UNL d   1      33.206  20.778 -21.385  0.00  0.00    -0.176 N 
ATOM      2  C   UNL d   1      33.205  21.267 -22.049  0.00  0.00     0.167 A 
ATOM      3  N   UNL d   1      33.197  21.091 -20.649  0.00  0.00    -0.150 NA
ATOM      4  C   UNL d   1      33.215  19.941 -21.495  0.00  0.00     0.283 A 
ATOM      5  N   UNL d   1      33.214  20.915 -22.819  0.00  0.00    -0.227 NA
ATOM      6  C   UNL d   1      33.188  21.922 -20.543  0.00  0.00     0.159 A 
ATOM      7  C   UNL d   1      33.223  19.601 -22.250  0.00  0.00     0.076 A 
ATOM      8  C   UNL d   1      33.197  22.065 -21.974  0.00  0.00     0.038 A 
ATOM      9  C   UNL d   1      33.223  20.090 -22.915  0.00  0.00     0.088 A 
ATOM     10  C   UNL d   1      33.188  22.411 -21.208  0.00  0.00     0.033 A 
ATOM     11  O   UNL d   1      33.215  19.449 -20.825  0.00  0.00    -0.265 OA
ATOM     12 CL   UNL d   1      33.180  22.240 -19.805  0.00  0.00    -0.060 Cl
ATOM     13  C   UNL d   1      33.232  18.788 -22.343  0.00  0.00     0.006 A 
ATOM     14  C   UNL d   1      33.197  22.554 -22.638  0.00  0.00     0.003 A 
ATOM     15  C   UNL d   1      33.179  23.214 -21.129  0.00  0.00     0.003 A 
ATOM     16  C   UNL d   1      33.232  19.762 -23.668  0.00  0.00     0.019 A 
ATOM     17  C   UNL d   1      33.241  18.452 -23.095  0.00  0.00     0.000 A 
ATOM     18  C   UNL d   1      33.188  23.389 -22.537  0.00  0.00     0.000 A 
ATOM     19  C   UNL d   1      33.179  23.702 -21.794  0.00  0.00     0.000 A 
ATOM     20  C   UNL d   1      33.241  18.941 -23.760  0.00  0.00     0.002 A 
ENDROOT
TORSDOF 0
ENDMDL
MODEL 4
REMARK VINA RESULT:      -3.2      4.247      5.296
REMARK  0 active torsions:
REMARK  status: ('A' for Active; 'I' for Inactive)
ROOT
ATOM      1  N   UNL d   1      33.236  20.741 -22.986  0.00  0.00    -0.176 N 
ATOM      2  C   UNL d   1      33.234  20.488 -22.201  0.00  0.00     0.167 A 
ATOM      3  N   UNL d   1      33.239  21.521 -23.162  0.00  0.00    -0.150 NA
ATOM      4  C   UNL d   1      33.236  20.163 -23.601  0.00  0.00     0.283 A 
ATOM      5  N   UNL d   1      33.232  19.658 -22.036  0.00  0.00    -0.227 NA
ATOM      6  C   UNL d   1      33.239  22.094 -22.550  0.00  0.00     0.159 A 
ATOM      7  C   UNL d   1      33.234  19.351 -23.435  0.00  0.00     0.076 A 
ATOM      8  C   UNL d   1      33.234  21.016 -21.598  0.00  0.00     0.038 A 
ATOM      9  C   UNL d   1      33.232  19.098 -22.650  0.00  0.00     0.088 A 
ATOM     10  C   UNL d   1      33.237  21.840 -21.765  0.00  0.00     0.033 A 
ATOM     11  O   UNL d   1      33.238  20.419 -24.392  0.00  0.00    -0.265 OA
ATOM     12 CL   UNL d   1      33.241  22.878 -22.724  0.00  0.00    -0.060 Cl
ATOM     13  C   UNL d   1      33.234  18.801 -24.041  0.00  0.00     0.006 A 
ATOM     14  C   UNL d   1      33.232  20.762 -20.813  0.00  0.00     0.003 A 
ATOM     15  C   UNL d   1      33.237  22.373 -21.160  0.00  0.00     0.003 A 
ATOM     16  C   UNL d   1      33.230  18.295 -22.477  0.00  0.00     0.019 A 
ATOM     17  C   UNL d   1      33.232  17.994 -23.874  0.00  0.00     0.000 A 
ATOM     18  C   UNL d   1      33.233  21.333 -20.195  0.00  0.00     0.000 A 
ATOM     19  C   UNL d   1      33.235  22.119 -20.375  0.00  0.00     0.000 A 
ATOM     20  C   UNL d   1      33.230  17.741 -23.089  0.00  0.00     0.002 A 
ENDROOT
TORSDOF 0
ENDMDL
MODEL 5
REMARK VINA RESULT:      -3.2      4.298      5.637
REMARK  0 active torsions:
REMARK  status: ('A' for Active; 'I' for Inactive)
ROOT
ATOM      1  N   UNL d   1      33.236  20.033 -21.986  0.00  0.00    -0.176 N 
ATOM      2  C   UNL d   1      33.233  20.368 -22.741  0.00  0.00     0.167 A 
ATOM      3  N   UNL d   1      33.237  19.239 -21.893  0.00  0.00    -0.150 NA
ATOM      4  C   UNL d   1      33.237  20.544 -21.315  0.00  0.00     0.283 A 
ATOM      5  N   UNL d   1      33.232  21.210 -22.817  0.00  0.00    -0.227 NA
ATOM      6  C   UNL d   1      33.236  18.734 -22.563  0.00  0.00     0.159 A 
ATOM      7  C   UNL d   1      33.236  21.369 -21.394  0.00  0.00     0.076 A 
ATOM      8  C   UNL d   1      33.231  19.906 -23.396  0.00  0.00     0.038 A 
ATOM      9  C   UNL d   1      33.233  21.703 -22.148  0.00  0.00     0.088 A 
ATOM     10  C   UNL d   1      33.233  19.069 -23.317  0.00  0.00     0.033 A 
ATOM     11  O   UNL d   1      33.240  20.207 -20.555  0.00  0.00    -0.265 OA
ATOM     12 CL   UNL d   1      33.237  17.936 -22.472  0.00  0.00    -0.060 Cl
ATOM     13  C   UNL d   1      33.238  21.853 -20.734  0.00  0.00     0.006 A 
ATOM     14  C   UNL d   1      33.228  20.241 -24.150  0.00  0.00     0.003 A 
ATOM     15  C   UNL d   1      33.231  18.603 -23.975  0.00  0.00     0.003 A 
ATOM     16  C   UNL d   1      33.232  22.519 -22.237  0.00  0.00     0.019 A 
ATOM     17  C   UNL d   1      33.236  22.672 -20.816  0.00  0.00     0.000 A 
ATOM     18  C   UNL d   1      33.227  19.738 -24.825  0.00  0.00     0.000 A 
ATOM     19  C   UNL d   1      33.228  18.937 -24.729  0.00  0.00     0.000 A 
ATOM     20  C   UNL d   1      33.233  23.007 -21.570  0.00  0.00     0.002 A 
ENDROOT
TORSDOF 0
ENDMDL
MODEL 6
REMARK VINA RESULT:      -2.4      5.585      6.771
REMARK  0 active torsions:
REMARK  status: ('A' for Active; 'I' for Inactive)
ROOT
ATOM      1  N   UNL d   1      33.107  21.481 -22.023  0.00  0.00    -0.176 N 
ATOM      2  C   UNL d   1      33.108  22.222 -22.385  0.00  0.00     0.167 A 
ATOM      3  N   UNL d   1      33.148  20.814 -22.461  0.00  0.00    -0.150 NA
ATOM      4  C   UNL d   1      33.060  21.439 -21.182  0.00  0.00     0.283 A 
ATOM      5  N   UNL d   1      33.064  22.916 -21.903  0.00  0.00    -0.227 NA
ATOM      6  C   UNL d   1      33.194  20.858 -23.297  0.00  0.00     0.159 A 
ATOM      7  C   UNL d   1      33.017  22.121 -20.713  0.00  0.00     0.076 A 
ATOM      8  C   UNL d   1      33.152  22.291 -23.183  0.00  0.00     0.038 A 
ATOM      9  C   UNL d   1      33.019  22.863 -21.075  0.00  0.00     0.088 A 
ATOM     10  C   UNL d   1      33.195  21.599 -23.659  0.00  0.00     0.033 A 
ATOM     11  O   UNL d   1      33.058  20.693 -20.817  0.00  0.00    -0.265 OA
ATOM     12 CL   UNL d   1      33.235  20.189 -23.740  0.00  0.00    -0.060 Cl
ATOM     13  C   UNL d   1      32.973  22.067 -19.897  0.00  0.00     0.006 A 
ATOM     14  C   UNL d   1      33.153  23.032 -23.545  0.00  0.00     0.003 A 
ATOM     15  C   UNL d   1      33.239  21.666 -24.462  0.00  0.00     0.003 A 
ATOM     16  C   UNL d   1      32.976  23.544 -20.619  0.00  0.00     0.019 A 
ATOM     17  C   UNL d   1      32.930  22.746 -19.434  0.00  0.00     0.000 A 
ATOM     18  C   UNL d   1      33.199  23.082 -24.384  0.00  0.00     0.000 A 
ATOM     19  C   UNL d   1      33.241  22.407 -24.824  0.00  0.00     0.000 A 
ATOM     20  C   UNL d   1      32.932  23.488 -19.796  0.00  0.00     0.002 A 
ENDROOT
TORSDOF 0
ENDMDL
MODEL 7
REMARK VINA RESULT:      -1.9      3.423      4.437
REMARK  0 active torsions:
REMARK  status: ('A' for Active; 'I' for Inactive)
ROOT
ATOM      1  N   UNL d   1      33.204  18.798 -22.831  0.00  0.00    -0.176 N 
ATOM      2  C   UNL d   1      33.214  19.232 -23.533  0.00  0.00     0.167 A 
ATOM      3  N   UNL d   1      33.204  19.170 -22.123  0.00  0.00    -0.150 NA
ATOM      4  C   UNL d   1      33.195  17.956 -22.873  0.00  0.00     0.283 A 
ATOM      5  N   UNL d   1      33.214  18.820 -24.272  0.00  0.00    -0.227 NA
ATOM      6  C   UNL d   1      33.213  20.007 -22.084  0.00  0.00     0.159 A 
ATOM      7  C   UNL d   1      33.196  17.556 -23.599  0.00  0.00     0.076 A 
ATOM      8  C   UNL d   1      33.222  20.034 -23.522  0.00  0.00     0.038 A 
ATOM      9  C   UNL d   1      33.205  17.989 -24.301  0.00  0.00     0.088 A 
ATOM     10  C   UNL d   1      33.222  20.441 -22.786  0.00  0.00     0.033 A 
ATOM     11  O   UNL d   1      33.186  17.519 -22.166  0.00  0.00    -0.265 OA
ATOM     12 CL   UNL d   1      33.212  20.383 -21.373  0.00  0.00    -0.060 Cl
ATOM     13  C   UNL d   1      33.187  16.738 -23.626  0.00  0.00     0.006 A 
ATOM     14  C   UNL d   1      33.232  20.468 -24.223  0.00  0.00     0.003 A 
ATOM     15  C   UNL d   1      33.231  21.247 -22.772  0.00  0.00     0.003 A 
ATOM     16  C   UNL d   1      33.205  17.602 -25.025  0.00  0.00     0.019 A 
ATOM     17  C   UNL d   1      33.187  16.343 -24.349  0.00  0.00     0.000 A 
ATOM     18  C   UNL d   1      33.241  21.308 -24.189  0.00  0.00     0.000 A 
ATOM     19  C   UNL d   1      33.240  21.681 -23.474  0.00  0.00     0.000 A 
ATOM     20  C   UNL d   1      33.197  16.776 -25.050  0.00  0.00     0.002 A 
ENDROOT
TORSDOF 0
ENDMDL
