MODEL 1
REMARK VINA RESULT:      -8.4      0.000      0.000
REMARK  5 active torsions:
REMARK  status: ('A' for Active; 'I' for Inactive)
REMARK    1  A    between atoms: S_2  and  C_12 
REMARK    2  A    between atoms: N_7  and  S_2 
REMARK    3  A    between atoms: C_5  and  N_7 
REMARK    4  A    between atoms: O_26  and  C_22 
REMARK    5  A    between atoms: C_27  and  O_26 
ROOT
ATOM      1  S   UNL d   1      51.003  33.979  52.444  0.00  0.00     0.287 S 
ATOM      2  O   UNL d   1      50.587  33.474  52.957  0.00  0.00    -0.198 OA
ATOM      3  O   UNL d   1      51.427  34.488  51.929  0.00  0.00    -0.198 OA
ENDROOT
BRANCH   1   4
ATOM      4  C   UNL d   1      51.677  33.923  52.937  0.00  0.00     0.107 A 
ATOM      5  C   UNL d   1      52.077  33.202  53.013  0.00  0.00     0.032 A 
ATOM      6  C   UNL d   1      52.739  33.147  53.498  0.00  0.00     0.085 A 
ATOM      7  N   UNL d   1      53.243  32.520  53.682  0.00  0.00    -0.256 N 
ATOM      8  C   UNL d   1      53.007  33.814  53.912  0.00  0.00     0.085 A 
ATOM      9  C   UNL d   1      53.816  32.803  54.207  0.00  0.00     0.339 A 
ATOM     10  C   UNL d   1      53.189  31.752  53.398  0.00  0.00     0.104 C 
ATOM     11  N   UNL d   1      53.674  33.589  54.347  0.00  0.00    -0.256 N 
ATOM     12  O   UNL d   1      54.436  32.364  54.539  0.00  0.00    -0.245 OA
ATOM     13  C   UNL d   1      54.114  34.081  54.836  0.00  0.00     0.104 C 
ATOM     14  C   UNL d   1      52.602  34.531  53.831  0.00  0.00     0.020 A 
ATOM     15  C   UNL d   1      51.940  34.585  53.346  0.00  0.00     0.015 A 
ENDBRANCH   1   4
BRANCH   1  16
ATOM     16  N   UNL d   1      50.337  34.040  51.948  0.00  0.00    -0.132 NA
BRANCH  16  17
ATOM     17  C   UNL d   1      49.702  34.519  52.162  0.00  0.00     0.206 A 
ATOM     18  N   UNL d   1      49.118  34.704  51.612  0.00  0.00    -0.220 NA
ATOM     19  C   UNL d   1      48.560  35.190  51.987  0.00  0.00     0.090 A 
ATOM     20  C   UNL d   1      47.864  35.546  51.727  0.00  0.00     0.022 A 
ATOM     21  C   UNL d   1      48.811  35.297  52.768  0.00  0.00     0.052 A 
ATOM     22  C   UNL d   1      47.422  36.003  52.237  0.00  0.00     0.026 A 
ATOM     23  C   UNL d   1      47.665  36.115  53.015  0.00  0.00     0.101 A 
ATOM     24  C   UNL d   1      48.363  35.760  53.280  0.00  0.00     0.033 A 
ATOM     25  S   UNL d   1      49.504  34.895  52.886  0.00  0.00    -0.046 SA
BRANCH  23  26
ATOM     26  O   UNL d   1      47.220  36.579  53.536  0.00  0.00    -0.305 OA
BRANCH  26  27
ATOM     27  C   UNL d   1      46.478  36.302  53.790  0.00  0.00     0.123 C 
ATOM     28  C   UNL d   1      46.065  36.709  54.377  0.00  0.00     0.029 C 
ENDBRANCH  26  27
ENDBRANCH  23  26
ENDBRANCH  16  17
ENDBRANCH   1  16
TORSDOF 5
ENDMDL
MODEL 2
REMARK VINA RESULT:      -8.2      1.341      5.843
REMARK  5 active torsions:
REMARK  status: ('A' for Active; 'I' for Inactive)
REMARK    1  A    between atoms: S_2  and  C_12 
REMARK    2  A    between atoms: N_7  and  S_2 
REMARK    3  A    between atoms: C_5  and  N_7 
REMARK    4  A    between atoms: O_26  and  C_22 
REMARK    5  A    between atoms: C_27  and  O_26 
ROOT
ATOM      1  S   UNL d   1      51.299  34.285  52.893  0.00  0.00     0.287 S 
ATOM      2  O   UNL d   1      51.727  34.516  52.219  0.00  0.00    -0.198 OA
ATOM      3  O   UNL d   1      50.862  34.053  53.571  0.00  0.00    -0.198 OA
ENDROOT
BRANCH   1   4
ATOM      4  C   UNL d   1      50.582  34.411  52.480  0.00  0.00     0.107 A 
ATOM      5  C   UNL d   1      49.975  34.854  52.826  0.00  0.00     0.032 A 
ATOM      6  C   UNL d   1      49.271  34.978  52.419  0.00  0.00     0.085 A 
ATOM      7  N   UNL d   1      48.581  35.386  52.614  0.00  0.00    -0.256 N 
ATOM      8  C   UNL d   1      49.167  34.658  51.661  0.00  0.00     0.085 A 
ATOM      9  C   UNL d   1      48.058  35.316  51.977  0.00  0.00     0.339 A 
ATOM     10  C   UNL d   1      48.434  35.790  53.313  0.00  0.00     0.104 C 
ATOM     11  N   UNL d   1      48.413  34.874  51.397  0.00  0.00    -0.256 N 
ATOM     12  O   UNL d   1      47.296  35.639  51.929  0.00  0.00    -0.245 OA
ATOM     13  C   UNL d   1      48.086  34.672  50.672  0.00  0.00     0.104 C 
ATOM     14  C   UNL d   1      49.779  34.216  51.321  0.00  0.00     0.020 A 
ATOM     15  C   UNL d   1      50.483  34.093  51.728  0.00  0.00     0.015 A 
ENDBRANCH   1   4
BRANCH   1  16
ATOM     16  N   UNL d   1      52.007  34.158  53.311  0.00  0.00    -0.132 NA
BRANCH  16  17
ATOM     17  C   UNL d   1      52.347  33.407  53.336  0.00  0.00     0.206 A 
ATOM     18  N   UNL d   1      53.160  33.322  53.429  0.00  0.00    -0.220 NA
ATOM     19  C   UNL d   1      53.332  32.511  53.433  0.00  0.00     0.090 A 
ATOM     20  C   UNL d   1      54.037  32.089  53.506  0.00  0.00     0.022 A 
ATOM     21  C   UNL d   1      52.617  32.106  53.341  0.00  0.00     0.052 A 
ATOM     22  C   UNL d   1      54.030  31.274  53.489  0.00  0.00     0.026 A 
ATOM     23  C   UNL d   1      53.322  30.863  53.399  0.00  0.00     0.101 A 
ATOM     24  C   UNL d   1      52.613  31.283  53.324  0.00  0.00     0.033 A 
ATOM     25  S   UNL d   1      52.011  32.640  53.281  0.00  0.00    -0.046 SA
BRANCH  23  26
ATOM     26  O   UNL d   1      53.311  30.037  53.381  0.00  0.00    -0.305 OA
BRANCH  26  27
ATOM     27  C   UNL d   1      53.274  29.617  54.098  0.00  0.00     0.123 C 
ATOM     28  C   UNL d   1      53.311  28.793  54.097  0.00  0.00     0.029 C 
ENDBRANCH  26  27
ENDBRANCH  23  26
ENDBRANCH  16  17
ENDBRANCH   1  16
TORSDOF 5
ENDMDL
MODEL 3
REMARK VINA RESULT:      -8.1      1.061      5.602
REMARK  5 active torsions:
REMARK  status: ('A' for Active; 'I' for Inactive)
REMARK    1  A    between atoms: S_2  and  C_12 
REMARK    2  A    between atoms: N_7  and  S_2 
REMARK    3  A    between atoms: C_5  and  N_7 
REMARK    4  A    between atoms: O_26  and  C_22 
REMARK    5  A    between atoms: C_27  and  O_26 
ROOT
ATOM      1  S   UNL d   1      50.748  33.884  52.302  0.00  0.00     0.287 S 
ATOM      2  O   UNL d   1      50.390  33.267  52.731  0.00  0.00    -0.198 OA
ATOM      3  O   UNL d   1      51.104  34.509  51.871  0.00  0.00    -0.198 OA
ENDROOT
BRANCH   1   4
ATOM      4  C   UNL d   1      50.104  34.385  52.489  0.00  0.00     0.107 A 
ATOM      5  C   UNL d   1      49.504  34.517  51.934  0.00  0.00     0.032 A 
ATOM      6  C   UNL d   1      48.873  35.009  52.118  0.00  0.00     0.085 A 
ATOM      7  N   UNL d   1      48.206  35.243  51.690  0.00  0.00    -0.256 N 
ATOM      8  C   UNL d   1      48.833  35.375  52.861  0.00  0.00     0.085 A 
ATOM      9  C   UNL d   1      47.763  35.749  52.171  0.00  0.00     0.339 A 
ATOM     10  C   UNL d   1      48.014  35.016  50.926  0.00  0.00     0.104 C 
ATOM     11  N   UNL d   1      48.143  35.831  52.883  0.00  0.00    -0.256 N 
ATOM     12  O   UNL d   1      47.048  36.117  51.968  0.00  0.00    -0.245 OA
ATOM     13  C   UNL d   1      47.890  36.285  53.518  0.00  0.00     0.104 C 
ATOM     14  C   UNL d   1      49.436  35.239  53.412  0.00  0.00     0.020 A 
ATOM     15  C   UNL d   1      50.069  34.746  53.227  0.00  0.00     0.015 A 
ENDBRANCH   1   4
BRANCH   1  16
ATOM     16  N   UNL d   1      51.391  33.391  52.112  0.00  0.00    -0.132 NA
BRANCH  16  17
ATOM     17  C   UNL d   1      51.981  33.244  52.668  0.00  0.00     0.206 A 
ATOM     18  N   UNL d   1      52.351  32.510  52.696  0.00  0.00    -0.220 NA
ATOM     19  C   UNL d   1      52.913  32.532  53.306  0.00  0.00     0.090 A 
ATOM     20  C   UNL d   1      53.446  31.974  53.595  0.00  0.00     0.022 A 
ATOM     21  C   UNL d   1      52.880  33.286  53.646  0.00  0.00     0.052 A 
ATOM     22  C   UNL d   1      53.941  32.162  54.216  0.00  0.00     0.026 A 
ATOM     23  C   UNL d   1      53.914  32.910  54.559  0.00  0.00     0.101 A 
ATOM     24  C   UNL d   1      53.381  33.473  54.272  0.00  0.00     0.033 A 
ATOM     25  S   UNL d   1      52.318  33.727  53.266  0.00  0.00    -0.046 SA
BRANCH  23  26
ATOM     26  O   UNL d   1      54.413  33.105  55.188  0.00  0.00    -0.305 OA
BRANCH  26  27
ATOM     27  C   UNL d   1      55.073  33.591  55.045  0.00  0.00     0.123 C 
ATOM     28  C   UNL d   1      55.462  33.955  55.675  0.00  0.00     0.029 C 
ENDBRANCH  26  27
ENDBRANCH  23  26
ENDBRANCH  16  17
ENDBRANCH   1  16
TORSDOF 5
ENDMDL
MODEL 4
REMARK VINA RESULT:      -7.6      1.748      2.724
REMARK  5 active torsions:
REMARK  status: ('A' for Active; 'I' for Inactive)
REMARK    1  A    between atoms: S_2  and  C_12 
REMARK    2  A    between atoms: N_7  and  S_2 
REMARK    3  A    between atoms: C_5  and  N_7 
REMARK    4  A    between atoms: O_26  and  C_22 
REMARK    5  A    between atoms: C_27  and  O_26 
ROOT
ATOM      1  S   UNL d   1      52.748  33.309  53.153  0.00  0.00     0.287 S 
ATOM      2  O   UNL d   1      52.864  33.223  52.334  0.00  0.00    -0.198 OA
ATOM      3  O   UNL d   1      52.632  33.392  53.980  0.00  0.00    -0.198 OA
ENDROOT
BRANCH   1   4
ATOM      4  C   UNL d   1      53.000  32.520  53.271  0.00  0.00     0.107 A 
ATOM      5  C   UNL d   1      52.452  31.900  53.245  0.00  0.00     0.032 A 
ATOM      6  C   UNL d   1      52.701  31.125  53.361  0.00  0.00     0.085 A 
ATOM      7  N   UNL d   1      52.295  30.406  53.367  0.00  0.00    -0.256 N 
ATOM      8  C   UNL d   1      53.501  30.962  53.504  0.00  0.00     0.085 A 
ATOM      9  C   UNL d   1      52.846  29.807  53.514  0.00  0.00     0.339 A 
ATOM     10  C   UNL d   1      51.490  30.300  53.250  0.00  0.00     0.104 C 
ATOM     11  N   UNL d   1      53.580  30.143  53.597  0.00  0.00    -0.256 N 
ATOM     12  O   UNL d   1      52.686  28.996  53.568  0.00  0.00    -0.245 OA
ATOM     13  C   UNL d   1      54.281  29.745  53.747  0.00  0.00     0.104 C 
ATOM     14  C   UNL d   1      54.043  31.587  53.528  0.00  0.00     0.020 A 
ATOM     15  C   UNL d   1      53.794  32.362  53.412  0.00  0.00     0.015 A 
ENDBRANCH   1   4
BRANCH   1  16
ATOM     16  N   UNL d   1      52.495  34.095  53.043  0.00  0.00    -0.132 NA
BRANCH  16  17
ATOM     17  C   UNL d   1      51.717  34.256  52.826  0.00  0.00     0.206 A 
ATOM     18  N   UNL d   1      51.193  34.582  53.370  0.00  0.00    -0.220 NA
ATOM     19  C   UNL d   1      50.461  34.678  52.992  0.00  0.00     0.090 A 
ATOM     20  C   UNL d   1      49.735  34.973  53.246  0.00  0.00     0.022 A 
ATOM     21  C   UNL d   1      50.547  34.407  52.214  0.00  0.00     0.052 A 
ATOM     22  C   UNL d   1      49.100  34.998  52.735  0.00  0.00     0.026 A 
ATOM     23  C   UNL d   1      49.177  34.731  51.960  0.00  0.00     0.101 A 
ATOM     24  C   UNL d   1      49.904  34.434  51.700  0.00  0.00     0.033 A 
ATOM     25  S   UNL d   1      51.305  34.148  52.102  0.00  0.00    -0.046 SA
BRANCH  23  26
ATOM     26  O   UNL d   1      48.537  34.754  51.438  0.00  0.00    -0.305 OA
BRANCH  26  27
ATOM     27  C   UNL d   1      47.910  35.279  51.590  0.00  0.00     0.123 C 
ATOM     28  C   UNL d   1      47.256  35.298  51.087  0.00  0.00     0.029 C 
ENDBRANCH  26  27
ENDBRANCH  23  26
ENDBRANCH  16  17
ENDBRANCH   1  16
TORSDOF 5
ENDMDL
