MODEL 1
REMARK VINA RESULT:      -3.1      0.000      0.000
REMARK  4 active torsions:
REMARK  status: ('A' for Active; 'I' for Inactive)
REMARK    1  A    between atoms: C_5  and  S_1 
REMARK    2  A    between atoms: N_8  and  S_1 
REMARK    3  A    between atoms: C_6  and  C_14 
REMARK    4  A    between atoms: C_14  and  N_8 
ROOT
ATOM      1  N   UNL d   1      32.532  20.744 -21.378  0.00  0.00    -0.155 NA
ENDROOT
BRANCH   1   2
ATOM      2  S   UNL d   1      32.533  21.449 -20.959  0.00  0.00     0.291 S 
ATOM      3  O   UNL d   1      31.821  21.638 -21.340  0.00  0.00    -0.198 OA
ATOM      4  O   UNL d   1      33.241  21.251 -20.586  0.00  0.00    -0.198 OA
BRANCH   2   5
ATOM      5  C   UNL d   1      32.530  22.173 -20.531  0.00  0.00     0.135 A 
ATOM      6  S   UNL d   1      32.191  22.882 -20.785  0.00  0.00    -0.073 SA
ATOM      7  C   UNL d   1      32.317  23.463 -20.186  0.00  0.00     0.036 A 
ATOM      8  C   UNL d   1      32.739  23.097 -19.563  0.00  0.00     0.008 A 
ATOM      9  C   UNL d   1      32.875  22.294 -19.770  0.00  0.00     0.020 A 
ENDBRANCH   2   5
ENDBRANCH   1   2
BRANCH   1  10
ATOM     10  C   UNL d   1      33.180  20.538 -21.837  0.00  0.00     0.133 C 
BRANCH  10  11
ATOM     11  C   UNL d   1      33.155  19.871 -22.312  0.00  0.00     0.121 A 
ATOM     12  N   UNL d   1      33.083  19.861 -23.129  0.00  0.00    -0.219 NA
ATOM     13  C   UNL d   1      33.081  19.078 -23.380  0.00  0.00     0.180 A 
ATOM     14  S   UNL d   1      33.036  18.585 -24.034  0.00  0.00    -0.048 SA
ATOM     15  N   UNL d   1      33.153  18.594 -22.705  0.00  0.00    -0.282 N 
ATOM     16  C   UNL d   1      33.080  17.804 -23.770  0.00  0.00     0.057 A 
ATOM     17  C   UNL d   1      33.151  17.817 -22.956  0.00  0.00     0.089 A 
ATOM     18  C   UNL d   1      33.198  19.091 -22.048  0.00  0.00     0.103 A 
ENDBRANCH  10  11
ENDBRANCH   1  10
TORSDOF 4
ENDMDL
MODEL 2
REMARK VINA RESULT:      -2.9      1.217      4.425
REMARK  4 active torsions:
REMARK  status: ('A' for Active; 'I' for Inactive)
REMARK    1  A    between atoms: C_5  and  S_1 
REMARK    2  A    between atoms: N_8  and  S_1 
REMARK    3  A    between atoms: C_6  and  C_14 
REMARK    4  A    between atoms: C_14  and  N_8 
ROOT
ATOM      1  N   UNL d   1      33.211  20.211 -22.226  0.00  0.00    -0.155 NA
ENDROOT
BRANCH   1   2
ATOM      2  S   UNL d   1      33.164  19.521 -22.665  0.00  0.00     0.291 S 
ATOM      3  O   UNL d   1      33.151  19.994 -23.346  0.00  0.00    -0.198 OA
ATOM      4  O   UNL d   1      33.177  19.060 -21.982  0.00  0.00    -0.198 OA
BRANCH   2   5
ATOM      5  C   UNL d   1      33.116  18.814 -23.119  0.00  0.00     0.135 A 
ATOM      6  S   UNL d   1      33.241  18.755 -23.933  0.00  0.00    -0.073 SA
ATOM      7  C   UNL d   1      33.136  17.947 -24.156  0.00  0.00     0.036 A 
ATOM      8  C   UNL d   1      32.946  17.516 -23.465  0.00  0.00     0.008 A 
ATOM      9  C   UNL d   1      32.931  18.049 -22.815  0.00  0.00     0.020 A 
ENDBRANCH   2   5
ENDBRANCH   1   2
BRANCH   1  10
ATOM     10  C   UNL d   1      32.763  20.295 -21.543  0.00  0.00     0.133 C 
BRANCH  10  11
ATOM     11  C   UNL d   1      32.736  21.015 -21.152  0.00  0.00     0.121 A 
ATOM     12  N   UNL d   1      32.212  21.628 -21.301  0.00  0.00    -0.219 NA
ATOM     13  C   UNL d   1      32.380  22.244 -20.782  0.00  0.00     0.180 A 
ATOM     14  S   UNL d   1      32.163  23.001 -20.551  0.00  0.00    -0.048 SA
ATOM     15  N   UNL d   1      33.019  22.008 -20.304  0.00  0.00    -0.282 N 
ATOM     16  C   UNL d   1      32.663  23.233 -19.937  0.00  0.00     0.057 A 
ATOM     17  C   UNL d   1      33.184  22.621 -19.790  0.00  0.00     0.089 A 
ATOM     18  C   UNL d   1      33.236  21.247 -20.538  0.00  0.00     0.103 A 
ENDBRANCH  10  11
ENDBRANCH   1  10
TORSDOF 4
ENDMDL
MODEL 3
REMARK VINA RESULT:      -2.5      1.536      4.703
REMARK  4 active torsions:
REMARK  status: ('A' for Active; 'I' for Inactive)
REMARK    1  A    between atoms: C_5  and  S_1 
REMARK    2  A    between atoms: N_8  and  S_1 
REMARK    3  A    between atoms: C_6  and  C_14 
REMARK    4  A    between atoms: C_14  and  N_8 
ROOT
ATOM      1  N   UNL d   1      32.622  19.128 -22.788  0.00  0.00    -0.155 NA
ENDROOT
BRANCH   1   2
ATOM      2  S   UNL d   1      32.785  18.451 -23.221  0.00  0.00     0.291 S 
ATOM      3  O   UNL d   1      33.031  18.097 -22.513  0.00  0.00    -0.198 OA
ATOM      4  O   UNL d   1      32.538  18.813 -23.920  0.00  0.00    -0.198 OA
BRANCH   2   5
ATOM      5  C   UNL d   1      32.953  17.755 -23.662  0.00  0.00     0.135 A 
ATOM      6  S   UNL d   1      33.098  17.007 -23.345  0.00  0.00    -0.073 SA
ATOM      7  C   UNL d   1      33.241  16.474 -23.985  0.00  0.00     0.036 A 
ATOM      8  C   UNL d   1      33.181  16.910 -24.696  0.00  0.00     0.008 A 
ATOM      9  C   UNL d   1      33.002  17.709 -24.504  0.00  0.00     0.020 A 
ENDBRANCH   2   5
ENDBRANCH   1   2
BRANCH   1  10
ATOM     10  C   UNL d   1      33.236  19.568 -22.468  0.00  0.00     0.133 C 
BRANCH  10  11
ATOM     11  C   UNL d   1      33.082  20.280 -22.091  0.00  0.00     0.121 A 
ATOM     12  N   UNL d   1      32.745  20.371 -21.348  0.00  0.00    -0.219 NA
ATOM     13  C   UNL d   1      32.692  21.176 -21.186  0.00  0.00     0.180 A 
ATOM     14  S   UNL d   1      32.453  21.732 -20.632  0.00  0.00    -0.048 SA
ATOM     15  N   UNL d   1      33.001  21.589 -21.840  0.00  0.00    -0.282 N 
ATOM     16  C   UNL d   1      32.612  22.482 -20.937  0.00  0.00     0.057 A 
ATOM     17  C   UNL d   1      32.947  22.388 -21.677  0.00  0.00     0.089 A 
ATOM     18  C   UNL d   1      33.241  21.029 -22.396  0.00  0.00     0.103 A 
ENDBRANCH  10  11
ENDBRANCH   1  10
TORSDOF 4
ENDMDL
MODEL 4
REMARK VINA RESULT:      -2.4      1.254      1.710
REMARK  4 active torsions:
REMARK  status: ('A' for Active; 'I' for Inactive)
REMARK    1  A    between atoms: C_5  and  S_1 
REMARK    2  A    between atoms: N_8  and  S_1 
REMARK    3  A    between atoms: C_6  and  C_14 
REMARK    4  A    between atoms: C_14  and  N_8 
ROOT
ATOM      1  N   UNL d   1      33.104  19.662 -22.162  0.00  0.00    -0.155 NA
ENDROOT
BRANCH   1   2
ATOM      2  S   UNL d   1      33.008  20.429 -21.890  0.00  0.00     0.291 S 
ATOM      3  O   UNL d   1      33.240  20.689 -22.643  0.00  0.00    -0.198 OA
ATOM      4  O   UNL d   1      32.779  20.160 -21.146  0.00  0.00    -0.198 OA
BRANCH   2   5
ATOM      5  C   UNL d   1      32.911  21.218 -21.616  0.00  0.00     0.135 A 
ATOM      6  S   UNL d   1      33.241  21.893 -21.959  0.00  0.00    -0.073 SA
ATOM      7  C   UNL d   1      33.001  22.563 -21.505  0.00  0.00     0.036 A 
ATOM      8  C   UNL d   1      32.519  22.285 -20.879  0.00  0.00     0.008 A 
ATOM      9  C   UNL d   1      32.459  21.449 -20.941  0.00  0.00     0.020 A 
ENDBRANCH   2   5
ENDBRANCH   1   2
BRANCH   1  10
ATOM     10  C   UNL d   1      32.826  19.451 -22.904  0.00  0.00     0.133 C 
BRANCH  10  11
ATOM     11  C   UNL d   1      32.777  18.661 -23.119  0.00  0.00     0.121 A 
ATOM     12  N   UNL d   1      33.240  18.050 -22.827  0.00  0.00    -0.219 NA
ATOM     13  C   UNL d   1      33.006  17.351 -23.192  0.00  0.00     0.180 A 
ATOM     14  S   UNL d   1      33.144  16.544 -23.240  0.00  0.00    -0.048 SA
ATOM     15  N   UNL d   1      32.386  17.533 -23.718  0.00  0.00    -0.282 N 
ATOM     16  C   UNL d   1      32.615  16.227 -23.789  0.00  0.00     0.057 A 
ATOM     17  C   UNL d   1      32.155  16.837 -24.078  0.00  0.00     0.089 A 
ATOM     18  C   UNL d   1      32.249  18.345 -23.668  0.00  0.00     0.103 A 
ENDBRANCH  10  11
ENDBRANCH   1  10
TORSDOF 4
ENDMDL
