MODEL 1
REMARK VINA RESULT:      67.0      0.000      0.000
REMARK  3 active torsions:
REMARK  status: ('A' for Active; 'I' for Inactive)
REMARK    1  A    between atoms: S_4  and  C_1 
REMARK    2  A    between atoms: C_8  and  S_4 
REMARK    3  A    between atoms: C_9  and  C_8 
ROOT
ATOM      1  C   UNL d   1      60.900  48.505  50.886  0.00  0.00     0.114 A 
ATOM      2  C   UNL d   1      60.136  48.814  50.916  0.00  0.00     0.042 A 
ATOM      3  N   UNL d   1      61.472  48.783  51.407  0.00  0.00    -0.217 NA
ATOM      4  N   UNL d   1      60.518  49.677  51.987  0.00  0.00    -0.224 NA
ATOM      5  C   UNL d   1      61.281  49.371  51.959  0.00  0.00     0.200 A 
ATOM      6  C   UNL d   1      59.945  49.399  51.466  0.00  0.00     0.085 A 
ATOM      7  C   UNL d   1      59.564  48.536  50.395  0.00  0.00     0.004 A 
ATOM      8  C   UNL d   1      59.177  49.705  51.492  0.00  0.00     0.019 A 
ATOM      9  C   UNL d   1      58.789  48.839  50.415  0.00  0.00     0.000 A 
ATOM     10  C   UNL d   1      58.605  49.427  50.970  0.00  0.00     0.002 A 
ENDROOT
BRANCH   1  11
ATOM     11  S   UNL d   1      61.093  47.914  50.331  0.00  0.00    -0.067 SA
BRANCH  11  12
ATOM     12  C   UNL d   1      61.448  47.218  50.576  0.00  0.00     0.037 C 
BRANCH  12  13
ATOM     13  C   UNL d   1      61.636  46.634  50.023  0.00  0.00     0.006 A 
ATOM     14  C   UNL d   1      61.339  45.859  50.125  0.00  0.00     0.001 A 
ATOM     15  C   UNL d   1      60.862  45.683  50.775  0.00  0.00     0.000 C 
ATOM     16  C   UNL d   1      61.532  45.277  49.564  0.00  0.00     0.000 A 
ATOM     17  C   UNL d   1      62.004  45.459  48.924  0.00  0.00     0.000 A 
ATOM     18  C   UNL d   1      62.293  46.223  48.830  0.00  0.00     0.000 A 
ATOM     19  C   UNL d   1      62.113  46.819  49.377  0.00  0.00     0.001 A 
ENDBRANCH  12  13
ENDBRANCH  11  12
ENDBRANCH   1  11
TORSDOF 3
ENDMDL
MODEL 2
REMARK VINA RESULT:      68.7      1.434      4.059
REMARK  3 active torsions:
REMARK  status: ('A' for Active; 'I' for Inactive)
REMARK    1  A    between atoms: S_4  and  C_1 
REMARK    2  A    between atoms: C_8  and  S_4 
REMARK    3  A    between atoms: C_9  and  C_8 
ROOT
ATOM      1  C   UNL d   1      61.748  46.638  49.974  0.00  0.00     0.114 A 
ATOM      2  C   UNL d   1      61.502  45.852  50.010  0.00  0.00     0.042 A 
ATOM      3  N   UNL d   1      62.271  46.873  49.385  0.00  0.00    -0.217 NA
ATOM      4  N   UNL d   1      62.301  45.539  48.870  0.00  0.00    -0.224 NA
ATOM      5  C   UNL d   1      62.549  46.322  48.831  0.00  0.00     0.200 A 
ATOM      6  C   UNL d   1      61.778  45.303  49.460  0.00  0.00     0.085 A 
ATOM      7  C   UNL d   1      60.978  45.616  50.600  0.00  0.00     0.004 A 
ATOM      8  C   UNL d   1      61.527  44.516  49.501  0.00  0.00     0.019 A 
ATOM      9  C   UNL d   1      60.722  44.826  50.647  0.00  0.00     0.000 A 
ATOM     10  C   UNL d   1      61.004  44.280  50.090  0.00  0.00     0.002 A 
ENDROOT
BRANCH   1  11
ATOM     11  S   UNL d   1      61.469  47.192  50.530  0.00  0.00    -0.067 SA
BRANCH  11  12
ATOM     12  C   UNL d   1      61.374  47.977  50.318  0.00  0.00     0.037 C 
BRANCH  12  13
ATOM     13  C   UNL d   1      61.038  48.510  50.851  0.00  0.00     0.006 A 
ATOM     14  C   UNL d   1      60.610  49.169  50.563  0.00  0.00     0.001 A 
ATOM     15  C   UNL d   1      60.526  49.281  49.750  0.00  0.00     0.000 C 
ATOM     16  C   UNL d   1      60.275  49.701  51.106  0.00  0.00     0.000 A 
ATOM     17  C   UNL d   1      60.362  49.583  51.908  0.00  0.00     0.000 A 
ATOM     18  C   UNL d   1      60.784  48.933  52.186  0.00  0.00     0.000 A 
ATOM     19  C   UNL d   1      61.127  48.391  51.662  0.00  0.00     0.001 A 
ENDBRANCH  12  13
ENDBRANCH  11  12
ENDBRANCH   1  11
TORSDOF 3
ENDMDL
MODEL 3
REMARK VINA RESULT:      69.0      0.958      1.475
REMARK  3 active torsions:
REMARK  status: ('A' for Active; 'I' for Inactive)
REMARK    1  A    between atoms: S_4  and  C_1 
REMARK    2  A    between atoms: C_8  and  S_4 
REMARK    3  A    between atoms: C_9  and  C_8 
ROOT
ATOM      1  C   UNL d   1      61.051  48.414  50.327  0.00  0.00     0.114 A 
ATOM      2  C   UNL d   1      61.023  48.738  51.085  0.00  0.00     0.042 A 
ATOM      3  N   UNL d   1      60.587  48.736  49.729  0.00  0.00    -0.217 NA
ATOM      4  N   UNL d   1      60.068  49.704  50.646  0.00  0.00    -0.224 NA
ATOM      5  C   UNL d   1      60.094  49.383  49.889  0.00  0.00     0.200 A 
ATOM      6  C   UNL d   1      60.533  49.382  51.244  0.00  0.00     0.085 A 
ATOM      7  C   UNL d   1      61.487  48.417  51.683  0.00  0.00     0.004 A 
ATOM      8  C   UNL d   1      60.508  49.704  52.005  0.00  0.00     0.019 A 
ATOM      9  C   UNL d   1      61.468  48.735  52.451  0.00  0.00     0.000 A 
ATOM     10  C   UNL d   1      60.973  49.382  52.603  0.00  0.00     0.002 A 
ENDROOT
BRANCH   1  11
ATOM     11  S   UNL d   1      61.547  47.764  50.166  0.00  0.00    -0.067 SA
BRANCH  11  12
ATOM     12  C   UNL d   1      61.262  47.000  50.244  0.00  0.00     0.037 C 
BRANCH  12  13
ATOM     13  C   UNL d   1      61.604  46.387  49.809  0.00  0.00     0.006 A 
ATOM     14  C   UNL d   1      61.293  45.612  49.872  0.00  0.00     0.001 A 
ATOM     15  C   UNL d   1      60.650  45.466  50.367  0.00  0.00     0.000 C 
ATOM     16  C   UNL d   1      61.642  45.001  49.431  0.00  0.00     0.000 A 
ATOM     17  C   UNL d   1      62.279  45.154  48.944  0.00  0.00     0.000 A 
ATOM     18  C   UNL d   1      62.579  45.917  48.886  0.00  0.00     0.000 A 
ATOM     19  C   UNL d   1      62.246  46.541  49.316  0.00  0.00     0.001 A 
ENDBRANCH  12  13
ENDBRANCH  11  12
ENDBRANCH   1  11
TORSDOF 3
ENDMDL
