MODEL 1
REMARK VINA RESULT:      52.6      0.000      0.000
REMARK  3 active torsions:
REMARK  status: ('A' for Active; 'I' for Inactive)
REMARK    1  A    between atoms: N_2  and  S_1 
REMARK    2  A    between atoms: C_8  and  S_1 
REMARK    3  A    between atoms: C_3  and  N_2 
ROOT
ATOM      1  C   UNL d   1      59.077  49.675  50.410  0.00  0.00     0.094 A 
ATOM      2  C   UNL d   1      58.298  49.680  50.722  0.00  0.00     0.021 A 
ATOM      3  C   UNL d   1      57.721  49.688  50.187  0.00  0.00     0.040 A 
ATOM      4  C   UNL d   1      57.799  49.691  49.384  0.00  0.00     0.196 A 
ATOM      5  C   UNL d   1      59.223  49.678  49.611  0.00  0.00     0.023 A 
ATOM      6  C   UNL d   1      58.581  49.687  49.070  0.00  0.00     0.044 A 
ATOM      7  O   UNL d   1      57.120  49.700  48.832  0.00  0.00    -0.287 OA
ATOM      8  C   UNL d   1      58.188  49.676  51.491  0.00  0.00     0.002 A 
ATOM      9  C   UNL d   1      56.921  49.693  50.429  0.00  0.00     0.003 A 
ATOM     10  C   UNL d   1      56.772  49.690  51.262  0.00  0.00     0.000 A 
ATOM     11  C   UNL d   1      57.423  49.681  51.798  0.00  0.00     0.000 A 
ENDROOT
BRANCH   1  12
ATOM     12  N   UNL d   1      59.677  49.667  50.898  0.00  0.00    -0.158 NA
BRANCH  12  13
ATOM     13  S   UNL d   1      60.236  49.045  50.860  0.00  0.00     0.285 S 
ATOM     14  O   UNL d   1      59.744  48.656  50.273  0.00  0.00    -0.198 OA
ATOM     15  O   UNL d   1      60.664  49.428  51.400  0.00  0.00    -0.198 OA
BRANCH  13  16
ATOM     16  C   UNL d   1      60.794  48.414  50.815  0.00  0.00     0.105 A 
ATOM     17  C   UNL d   1      60.694  47.757  51.321  0.00  0.00     0.013 A 
ATOM     18  C   UNL d   1      61.211  47.146  51.297  0.00  0.00     0.001 A 
ATOM     19  C   UNL d   1      61.819  47.161  50.794  0.00  0.00     0.000 A 
ATOM     20  C   UNL d   1      61.925  47.822  50.281  0.00  0.00     0.001 A 
ATOM     21  C   UNL d   1      61.385  48.446  50.316  0.00  0.00     0.013 A 
ENDBRANCH  13  16
ENDBRANCH  12  13
ENDBRANCH   1  12
TORSDOF 3
ENDMDL
