MODEL 1
REMARK VINA RESULT:      51.7      0.000      0.000
REMARK  4 active torsions:
REMARK  status: ('A' for Active; 'I' for Inactive)
REMARK    1  A    between atoms: C_3  and  C_1 
REMARK    2  A    between atoms: C_8  and  C_3 
REMARK    3  A    between atoms: O_6  and  C_8 
REMARK    4  A    between atoms: C_7  and  O_6 
ROOT
ATOM      1  C   UNL d   1     -49.991  28.012  33.665  0.00  0.00     0.223 C 
ATOM      2  O   UNL d   1     -50.523  28.583  33.393  0.00  0.00    -0.284 OA
ENDROOT
BRANCH   1   3
ATOM      3  C   UNL d   1     -50.164  27.210  33.576  0.00  0.00     0.080 A 
ATOM      4  C   UNL d   1     -50.940  26.969  33.423  0.00  0.00     0.202 A 
ATOM      5  C   UNL d   1     -51.113  26.167  33.333  0.00  0.00     0.084 A 
ATOM      6  O   UNL d   1     -51.542  27.529  33.359  0.00  0.00    -0.286 OA
ATOM      7  C   UNL d   1     -50.503  25.609  33.398  0.00  0.00     0.199 A 
ATOM      8  C   UNL d   1     -49.734  25.849  33.549  0.00  0.00     0.042 A 
ATOM      9  O   UNL d   1     -50.679  24.793  33.306  0.00  0.00    -0.286 OA
ATOM     10  C   UNL d   1     -49.562  26.650  33.639  0.00  0.00     0.010 A 
ENDBRANCH   1   3
BRANCH   1  11
ATOM     11  C   UNL d   1     -49.282  28.249  34.030  0.00  0.00     0.165 C 
BRANCH  11  12
ATOM     12  O   UNL d   1     -49.130  29.055  34.149  0.00  0.00    -0.301 OA
BRANCH  12  13
ATOM     13  C   UNL d   1     -48.546  29.277  34.693  0.00  0.00     0.106 A 
ATOM     14  C   UNL d   1     -48.267  30.050  34.710  0.00  0.00     0.057 A 
ATOM     15 BR   UNL d   1     -48.577  30.602  34.178  0.00  0.00    -0.047 Br
ATOM     16  C   UNL d   1     -47.686  30.272  35.250  0.00  0.00     0.009 A 
ATOM     17  C   UNL d   1     -47.380  29.714  35.779  0.00  0.00     0.001 A 
ATOM     18  C   UNL d   1     -47.661  28.929  35.764  0.00  0.00     0.002 A 
ATOM     19  C   UNL d   1     -48.243  28.716  35.221  0.00  0.00     0.025 A 
ENDBRANCH  12  13
ENDBRANCH  11  12
ENDBRANCH   1  11
TORSDOF 4
ENDMDL
