MODEL 1
REMARK VINA RESULT:      -6.1      0.000      0.000
REMARK  5 active torsions:
REMARK  status: ('A' for Active; 'I' for Inactive)
REMARK    1  A    between atoms: O_4  and  C_1 
REMARK    2  A    between atoms: C_9  and  C_2 
REMARK    3  A    between atoms: C_5  and  O_4 
REMARK    4  A    between atoms: C_12  and  C_5 
REMARK    5  A    between atoms: N_10  and  C_9 
ROOT
ATOM      1  C   UNL d   1     -48.688  12.898  22.659  0.00  0.00     0.122 A 
ATOM      2  C   UNL d   1     -49.359  13.352  22.503  0.00  0.00     0.043 A 
ATOM      3  C   UNL d   1     -48.766  12.154  23.006  0.00  0.00     0.105 A 
ATOM      4  C   UNL d   1     -49.514  11.864  23.196  0.00  0.00     0.030 A 
ATOM      5  C   UNL d   1     -50.176  12.322  23.038  0.00  0.00     0.059 A 
ATOM      6  C   UNL d   1     -50.106  13.062  22.693  0.00  0.00     0.015 A 
ATOM      7  N   UNL d   1     -48.099  11.707  23.159  0.00  0.00    -0.242 NA
ATOM      8 CL   UNL d   1     -50.923  12.007  23.239  0.00  0.00    -0.082 Cl
ATOM      9  C   UNL d   1     -49.587  11.130  23.537  0.00  0.00     0.004 A 
ATOM     10  C   UNL d   1     -48.177  10.963  23.506  0.00  0.00     0.099 A 
ATOM     11  C   UNL d   1     -48.925  10.673  23.696  0.00  0.00     0.021 A 
ENDROOT
BRANCH   1  12
ATOM     12  O   UNL d   1     -48.005  13.152  22.490  0.00  0.00    -0.271 OA
BRANCH  12  13
ATOM     13  C   UNL d   1     -47.365  13.153  21.770  0.00  0.00     0.300 C 
ATOM     14  O   UNL d   1     -47.764  12.981  20.865  0.00  0.00    -0.259 OA
BRANCH  13  15
ATOM     15  C   UNL d   1     -46.564  13.286  21.909  0.00  0.00     0.064 A 
ATOM     16  C   UNL d   1     -46.327  13.926  22.385  0.00  0.00     0.008 A 
ATOM     17  C   UNL d   1     -45.515  14.057  22.524  0.00  0.00     0.030 A 
ATOM     18  C   UNL d   1     -44.940  13.552  22.189  0.00  0.00     0.140 A 
ATOM     19  C   UNL d   1     -45.181  12.914  21.715  0.00  0.00     0.030 A 
ATOM     20  F   UNL d   1     -44.354  13.658  22.298  0.00  0.00    -0.204 F 
ATOM     21  C   UNL d   1     -45.993  12.783  21.577  0.00  0.00     0.008 A 
ENDBRANCH  13  15
ENDBRANCH  12  13
ENDBRANCH   1  12
BRANCH   2  22
ATOM     22  C   UNL d   1     -49.470  14.177  22.134  0.00  0.00     0.082 C 
BRANCH  22  23
ATOM     23  N   UNL d   1     -49.860  14.760  22.560  0.00  0.00    -0.299 N 
ATOM     24  C   UNL d   1     -50.658  14.884  22.441  0.00  0.00     0.107 A 
ATOM     25  C   UNL d   1     -51.064  15.468  22.863  0.00  0.00     0.142 A 
ATOM     26  O   UNL d   1     -50.655  15.922  23.403  0.00  0.00    -0.300 OA
ATOM     27  C   UNL d   1     -49.844  15.799  23.527  0.00  0.00     0.142 A 
ATOM     28  C   UNL d   1     -49.458  15.216  23.100  0.00  0.00     0.107 A 
ENDBRANCH  22  23
ENDBRANCH   2  22
TORSDOF 5
ENDMDL
MODEL 2
REMARK VINA RESULT:      -3.2      2.017      4.180
REMARK  5 active torsions:
REMARK  status: ('A' for Active; 'I' for Inactive)
REMARK    1  A    between atoms: O_4  and  C_1 
REMARK    2  A    between atoms: C_9  and  C_2 
REMARK    3  A    between atoms: C_5  and  O_4 
REMARK    4  A    between atoms: C_12  and  C_5 
REMARK    5  A    between atoms: N_10  and  C_9 
ROOT
ATOM      1  C   UNL d   1     -47.580  12.964  22.866  0.00  0.00     0.122 A 
ATOM      2  C   UNL d   1     -46.756  12.919  22.864  0.00  0.00     0.043 A 
ATOM      3  C   UNL d   1     -48.026  12.328  23.144  0.00  0.00     0.105 A 
ATOM      4  C   UNL d   1     -47.649  11.649  23.419  0.00  0.00     0.030 A 
ATOM      5  C   UNL d   1     -46.830  11.612  23.414  0.00  0.00     0.059 A 
ATOM      6  C   UNL d   1     -46.379  12.240  23.139  0.00  0.00     0.015 A 
ATOM      7  N   UNL d   1     -48.842  12.376  23.145  0.00  0.00    -0.242 NA
ATOM      8 CL   UNL d   1     -46.470  10.913  23.698  0.00  0.00    -0.082 Cl
ATOM      9  C   UNL d   1     -48.092  11.024  23.692  0.00  0.00     0.004 A 
ATOM     10  C   UNL d   1     -49.288  11.740  23.423  0.00  0.00     0.099 A 
ATOM     11  C   UNL d   1     -48.911  11.061  23.698  0.00  0.00     0.021 A 
ENDROOT
BRANCH   1  12
ATOM     12  O   UNL d   1     -47.931  13.575  22.619  0.00  0.00    -0.271 OA
BRANCH  12  13
ATOM     13  C   UNL d   1     -48.071  14.501  22.847  0.00  0.00     0.300 C 
ATOM     14  O   UNL d   1     -47.240  14.981  23.142  0.00  0.00    -0.259 OA
BRANCH  13  15
ATOM     15  C   UNL d   1     -48.817  14.847  22.796  0.00  0.00     0.064 A 
ATOM     16  C   UNL d   1     -49.201  14.896  22.059  0.00  0.00     0.008 A 
ATOM     17  C   UNL d   1     -49.956  15.247  22.011  0.00  0.00     0.030 A 
ATOM     18  C   UNL d   1     -50.328  15.548  22.696  0.00  0.00     0.140 A 
ATOM     19  C   UNL d   1     -49.941  15.497  23.428  0.00  0.00     0.030 A 
ATOM     20  F   UNL d   1     -50.876  15.801  22.647  0.00  0.00    -0.204 F 
ATOM     21  C   UNL d   1     -49.187  15.146  23.476  0.00  0.00     0.008 A 
ENDBRANCH  13  15
ENDBRANCH  12  13
ENDBRANCH   1  12
BRANCH   2  22
ATOM     22  C   UNL d   1     -46.110  13.504  22.602  0.00  0.00     0.082 C 
BRANCH  22  23
ATOM     23  N   UNL d   1     -45.476  13.232  22.158  0.00  0.00    -0.299 N 
ATOM     24  C   UNL d   1     -45.603  12.942  21.406  0.00  0.00     0.107 A 
ATOM     25  C   UNL d   1     -44.973  12.665  20.947  0.00  0.00     0.142 A 
ATOM     26  O   UNL d   1     -44.219  12.685  21.257  0.00  0.00    -0.300 OA
ATOM     27  C   UNL d   1     -44.086  12.979  22.021  0.00  0.00     0.142 A 
ATOM     28  C   UNL d   1     -44.721  13.250  22.462  0.00  0.00     0.107 A 
ENDBRANCH  22  23
ENDBRANCH   2  22
TORSDOF 5
ENDMDL
