MODEL 1
REMARK VINA RESULT:      16.1      0.000      0.000
REMARK  1 active torsions:
REMARK  status: ('A' for Active; 'I' for Inactive)
REMARK    1  A    between atoms: C_12  and  N_2 
ROOT
ATOM      1  C   UNL d   1      46.490 -19.517  43.104  0.00  0.00     0.267 A 
ATOM      2  N   UNL d   1      46.425 -19.139  43.807  0.00  0.00    -0.271 N 
ATOM      3  C   UNL d   1      46.433 -19.234  42.477  0.00  0.00     0.081 A 
ATOM      4  C   UNL d   1      46.289 -18.472  42.201  0.00  0.00     0.105 A 
ATOM      5  O   UNL d   1      46.175 -17.850  42.518  0.00  0.00    -0.305 OA
ATOM      6  C   UNL d   1      46.273 -18.323  43.907  0.00  0.00     0.090 A 
ATOM      7  C   UNL d   1      46.158 -17.726  43.315  0.00  0.00     0.116 A 
ATOM      8  C   UNL d   1      46.546 -19.857  41.948  0.00  0.00     0.028 A 
ATOM      9  O   UNL d   1      46.642 -20.326  43.133  0.00  0.00    -0.267 OA
ATOM     10  C   UNL d   1      46.257 -18.328  41.393  0.00  0.00     0.026 A 
ATOM     11  C   UNL d   1      46.514 -19.714  41.138  0.00  0.00     0.103 A 
ATOM     12  N   UNL d   1      46.625 -20.329  40.607  0.00  0.00    -0.148 N 
ATOM     13  C   UNL d   1      46.368 -18.944  40.859  0.00  0.00     0.023 A 
ATOM     14  C   UNL d   1      46.239 -18.112  44.731  0.00  0.00     0.020 A 
ATOM     15  C   UNL d   1      46.009 -16.923  43.540  0.00  0.00     0.026 A 
ATOM     16  C   UNL d   1      46.090 -17.305  44.954  0.00  0.00     0.002 A 
ATOM     17  C   UNL d   1      45.975 -16.709  44.354  0.00  0.00     0.002 A 
ENDROOT
BRANCH   2  18
ATOM     18  C   UNL d   1      46.514 -19.590  44.485  0.00  0.00     0.083 C 
ATOM     19  C   UNL d   1      45.969 -20.171  44.663  0.00  0.00     0.021 C 
ENDBRANCH   2  18
TORSDOF 1
ENDMDL
MODEL 2
REMARK VINA RESULT:      17.4      0.846      2.104
REMARK  1 active torsions:
REMARK  status: ('A' for Active; 'I' for Inactive)
REMARK    1  A    between atoms: C_12  and  N_2 
ROOT
ATOM      1  C   UNL d   1      46.508 -18.040  42.404  0.00  0.00     0.267 A 
ATOM      2  N   UNL d   1      46.497 -18.138  43.197  0.00  0.00    -0.271 N 
ATOM      3  C   UNL d   1      46.550 -18.538  41.927  0.00  0.00     0.081 A 
ATOM      4  C   UNL d   1      46.602 -19.359  41.957  0.00  0.00     0.105 A 
ATOM      5  O   UNL d   1      46.621 -19.830  42.485  0.00  0.00    -0.305 OA
ATOM      6  C   UNL d   1      46.536 -18.871  43.597  0.00  0.00     0.090 A 
ATOM      7  C   UNL d   1      46.593 -19.653  43.272  0.00  0.00     0.116 A 
ATOM      8  C   UNL d   1      46.540 -18.145  41.202  0.00  0.00     0.028 A 
ATOM      9  O   UNL d   1      46.464 -17.266  42.127  0.00  0.00    -0.267 OA
ATOM     10  C   UNL d   1      46.644 -19.793  41.261  0.00  0.00     0.026 A 
ATOM     11  C   UNL d   1      46.582 -18.579  40.503  0.00  0.00     0.103 A 
ATOM     12  N   UNL d   1      46.573 -18.194  39.779  0.00  0.00    -0.148 N 
ATOM     13  C   UNL d   1      46.635 -19.408  40.533  0.00  0.00     0.023 A 
ATOM     14  C   UNL d   1      46.512 -18.767  44.442  0.00  0.00     0.020 A 
ATOM     15  C   UNL d   1      46.626 -20.328  43.783  0.00  0.00     0.026 A 
ATOM     16  C   UNL d   1      46.545 -19.446  44.952  0.00  0.00     0.002 A 
ATOM     17  C   UNL d   1      46.602 -20.229  44.618  0.00  0.00     0.002 A 
ENDROOT
BRANCH   2  18
ATOM     18  C   UNL d   1      46.444 -17.462  43.658  0.00  0.00     0.083 C 
ATOM     19  C   UNL d   1      45.745 -17.043  43.690  0.00  0.00     0.021 C 
ENDBRANCH   2  18
TORSDOF 1
ENDMDL
