MODEL 1
REMARK VINA RESULT:      24.4      0.000      0.000
REMARK  5 active torsions:
REMARK  status: ('A' for Active; 'I' for Inactive)
REMARK       I    between atoms: C_3  and  N_1 
REMARK    1  A    between atoms: C_5  and  N_1 
REMARK    2  A    between atoms: C_2  and  C_3 
REMARK    3  A    between atoms: N_10  and  C_5 
REMARK    4  A    between atoms: C_13  and  N_10 
REMARK    5  A    between atoms: C_14  and  C_13 
ROOT
ATOM      1  C   UNL d   1      15.235  13.488  -0.547  0.00  0.00     0.224 C 
ATOM      2  S   UNL d   1      15.527  12.926  -0.014  0.00  0.00    -0.037 SA
ENDROOT
BRANCH   1   3
ATOM      3  N   UNL d   1      14.778  13.245  -1.187  0.00  0.00    -0.177 NA
ATOM      4  C   UNL d   1      14.418  12.499  -1.175  0.00  0.00     0.304 C 
ATOM      5  O   UNL d   1      14.516  12.007  -0.532  0.00  0.00    -0.263 OA
BRANCH   4   6
ATOM      6  C   UNL d   1      13.961  12.256  -1.815  0.00  0.00     0.158 A 
ATOM      7  O   UNL d   1      14.181  12.283  -2.607  0.00  0.00    -0.296 OA
ATOM      8  C   UNL d   1      13.571  11.992  -3.058  0.00  0.00     0.134 A 
ATOM      9 BR   UNL d   1      13.558  11.920  -3.873  0.00  0.00    -0.022 Br
ATOM     10  C   UNL d   1      12.963  11.781  -2.548  0.00  0.00     0.034 A 
ATOM     11  C   UNL d   1      13.206  11.945  -1.772  0.00  0.00     0.032 A 
ENDBRANCH   4   6
ENDBRANCH   1   3
BRANCH   1  12
ATOM     12  N   UNL d   1      15.405  14.282  -0.432  0.00  0.00    -0.216 NA
BRANCH  12  13
ATOM     13  C   UNL d   1      14.823  14.839  -0.550  0.00  0.00     0.101 C 
BRANCH  13  14
ATOM     14  C   UNL d   1      15.028  15.592  -0.803  0.00  0.00     0.019 A 
ATOM     15  C   UNL d   1      15.533  16.062  -0.351  0.00  0.00     0.002 A 
ATOM     16  C   UNL d   1      15.735  16.818  -0.611  0.00  0.00     0.000 A 
ATOM     17  C   UNL d   1      15.432  17.105  -1.325  0.00  0.00     0.000 A 
ATOM     18  C   UNL d   1      14.927  16.635  -1.777  0.00  0.00     0.000 A 
ATOM     19  C   UNL d   1      14.724  15.879  -1.517  0.00  0.00     0.002 A 
ENDBRANCH  13  14
ENDBRANCH  12  13
ENDBRANCH   1  12
TORSDOF 5
ENDMDL
MODEL 2
REMARK VINA RESULT:      25.7      2.692      3.388
REMARK  5 active torsions:
REMARK  status: ('A' for Active; 'I' for Inactive)
REMARK       I    between atoms: C_3  and  N_1 
REMARK    1  A    between atoms: C_5  and  N_1 
REMARK    2  A    between atoms: C_2  and  C_3 
REMARK    3  A    between atoms: N_10  and  C_5 
REMARK    4  A    between atoms: C_13  and  N_10 
REMARK    5  A    between atoms: C_14  and  C_13 
ROOT
ATOM      1  C   UNL d   1      13.163  12.470  -3.888  0.00  0.00     0.224 C 
ATOM      2  S   UNL d   1      13.133  11.782  -4.346  0.00  0.00    -0.037 SA
ENDROOT
BRANCH   1   3
ATOM      3  N   UNL d   1      13.230  12.414  -3.070  0.00  0.00    -0.177 NA
ATOM      4  C   UNL d   1      13.906  12.068  -2.736  0.00  0.00     0.304 C 
ATOM      5  O   UNL d   1      14.500  11.784  -3.216  0.00  0.00    -0.263 OA
BRANCH   4   6
ATOM      6  C   UNL d   1      13.973  12.012  -1.918  0.00  0.00     0.158 A 
ATOM      7  O   UNL d   1      14.645  12.176  -1.473  0.00  0.00    -0.296 OA
ATOM      8  C   UNL d   1      14.476  12.051  -0.688  0.00  0.00     0.134 A 
ATOM      9 BR   UNL d   1      14.988  12.149  -0.058  0.00  0.00    -0.022 Br
ATOM     10  C   UNL d   1      13.694  11.806  -0.637  0.00  0.00     0.034 A 
ATOM     11  C   UNL d   1      13.379  11.781  -1.405  0.00  0.00     0.032 A 
ENDBRANCH   4   6
ENDBRANCH   1   3
BRANCH   1  12
ATOM     12  N   UNL d   1      13.125  13.203  -4.255  0.00  0.00    -0.216 NA
BRANCH  12  13
ATOM     13  C   UNL d   1      12.918  13.860  -3.821  0.00  0.00     0.101 C 
BRANCH  13  14
ATOM     14  C   UNL d   1      13.201  14.597  -4.043  0.00  0.00     0.019 A 
ATOM     15  C   UNL d   1      12.913  14.968  -4.721  0.00  0.00     0.002 A 
ATOM     16  C   UNL d   1      13.202  15.709  -4.939  0.00  0.00     0.000 A 
ATOM     17  C   UNL d   1      13.779  16.081  -4.477  0.00  0.00     0.000 A 
ATOM     18  C   UNL d   1      14.068  15.710  -3.799  0.00  0.00     0.000 A 
ATOM     19  C   UNL d   1      13.779  14.968  -3.582  0.00  0.00     0.002 A 
ENDBRANCH  13  14
ENDBRANCH  12  13
ENDBRANCH   1  12
TORSDOF 5
ENDMDL
