MODEL 1
REMARK VINA RESULT:      14.4      0.000      0.000
REMARK  1 active torsions:
REMARK  status: ('A' for Active; 'I' for Inactive)
REMARK    1  A    between atoms: C_6  and  C_1 
ROOT
ATOM      1  C   UNL d   1      43.962 -15.433  36.669  0.00  0.00     0.111 A 
ATOM      2  N   UNL d   1      44.208 -14.797  37.126  0.00  0.00    -0.239 NA
ATOM      3  S   UNL d   1      44.621 -15.782  36.332  0.00  0.00    -0.066 SA
ATOM      4  C   UNL d   1      45.036 -14.749  37.073  0.00  0.00     0.088 A 
ATOM      5  C   UNL d   1      45.295 -15.357  36.582  0.00  0.00     0.049 A 
ATOM      6  C   UNL d   1      45.583 -14.232  37.407  0.00  0.00     0.020 A 
ATOM      7  C   UNL d   1      46.099 -15.448  36.425  0.00  0.00     0.008 A 
ATOM      8  C   UNL d   1      46.645 -14.931  36.759  0.00  0.00     0.001 A 
ATOM      9  C   UNL d   1      46.387 -14.323  37.250  0.00  0.00     0.002 A 
ENDROOT
BRANCH   1  10
ATOM     10  C   UNL d   1      43.165 -15.654  36.587  0.00  0.00     0.024 A 
ATOM     11  C   UNL d   1      42.566 -15.093  36.677  0.00  0.00     0.004 A 
ATOM     12  C   UNL d   1      41.774 -15.320  36.594  0.00  0.00     0.021 A 
ATOM     13  C   UNL d   1      41.579 -16.109  36.422  0.00  0.00     0.103 A 
ATOM     14  C   UNL d   1      42.184 -16.666  36.335  0.00  0.00     0.021 A 
ATOM     15  N   UNL d   1      40.785 -16.333  36.341  0.00  0.00    -0.148 N 
ATOM     16  C   UNL d   1      42.976 -16.439  36.417  0.00  0.00     0.004 A 
ENDBRANCH   1  10
TORSDOF 1
ENDMDL
MODEL 2
REMARK VINA RESULT:      16.9      7.797      8.296
REMARK  1 active torsions:
REMARK  status: ('A' for Active; 'I' for Inactive)
REMARK    1  A    between atoms: C_6  and  C_1 
ROOT
ATOM      1  C   UNL d   1      45.677 -14.804  44.431  0.00  0.00     0.111 A 
ATOM      2  N   UNL d   1      45.195 -14.377  43.921  0.00  0.00    -0.239 NA
ATOM      3  S   UNL d   1      46.097 -14.277  44.894  0.00  0.00    -0.066 SA
ATOM      4  C   UNL d   1      45.317 -13.569  44.070  0.00  0.00     0.088 A 
ATOM      5  C   UNL d   1      45.876 -13.503  44.671  0.00  0.00     0.049 A 
ATOM      6  C   UNL d   1      44.994 -12.889  43.736  0.00  0.00     0.020 A 
ATOM      7  C   UNL d   1      46.110 -12.760  44.938  0.00  0.00     0.008 A 
ATOM      8  C   UNL d   1      45.787 -12.080  44.604  0.00  0.00     0.001 A 
ATOM      9  C   UNL d   1      45.228 -12.146  44.003  0.00  0.00     0.002 A 
ENDROOT
BRANCH   1  10
ATOM     10  C   UNL d   1      45.704 -15.635  44.443  0.00  0.00     0.024 A 
ATOM     11  C   UNL d   1      45.208 -16.060  44.948  0.00  0.00     0.004 A 
ATOM     12  C   UNL d   1      45.241 -16.887  44.955  0.00  0.00     0.021 A 
ATOM     13  C   UNL d   1      45.769 -17.291  44.457  0.00  0.00     0.103 A 
ATOM     14  C   UNL d   1      46.263 -16.858  43.954  0.00  0.00     0.021 A 
ATOM     15  N   UNL d   1      45.799 -18.120  44.467  0.00  0.00    -0.148 N 
ATOM     16  C   UNL d   1      46.230 -16.031  43.947  0.00  0.00     0.004 A 
ENDBRANCH   1  10
TORSDOF 1
ENDMDL
MODEL 3
REMARK VINA RESULT:      17.2      7.222      7.941
REMARK  1 active torsions:
REMARK  status: ('A' for Active; 'I' for Inactive)
REMARK    1  A    between atoms: C_6  and  C_1 
ROOT
ATOM      1  C   UNL d   1      46.094 -17.755  43.392  0.00  0.00     0.111 A 
ATOM      2  N   UNL d   1      46.215 -17.815  42.582  0.00  0.00    -0.239 NA
ATOM      3  S   UNL d   1      46.158 -18.501  43.721  0.00  0.00    -0.066 SA
ATOM      4  C   UNL d   1      46.356 -18.614  42.403  0.00  0.00     0.088 A 
ATOM      5  C   UNL d   1      46.322 -19.041  43.105  0.00  0.00     0.049 A 
ATOM      6  C   UNL d   1      46.511 -19.003  41.694  0.00  0.00     0.020 A 
ATOM      7  C   UNL d   1      46.442 -19.857  43.099  0.00  0.00     0.008 A 
ATOM      8  C   UNL d   1      46.597 -20.246  42.390  0.00  0.00     0.001 A 
ATOM      9  C   UNL d   1      46.631 -19.818  41.688  0.00  0.00     0.002 A 
ENDROOT
BRANCH   1  10
ATOM     10  C   UNL d   1      45.936 -17.035  43.777  0.00  0.00     0.024 A 
ATOM     11  C   UNL d   1      46.058 -16.318  43.386  0.00  0.00     0.004 A 
ATOM     12  C   UNL d   1      45.898 -15.606  43.776  0.00  0.00     0.021 A 
ATOM     13  C   UNL d   1      45.616 -15.608  44.557  0.00  0.00     0.103 A 
ATOM     14  C   UNL d   1      45.497 -16.330  44.942  0.00  0.00     0.021 A 
ATOM     15  N   UNL d   1      45.457 -14.892  44.944  0.00  0.00    -0.148 N 
ATOM     16  C   UNL d   1      45.656 -17.043  44.553  0.00  0.00     0.004 A 
ENDBRANCH   1  10
TORSDOF 1
ENDMDL
