MODEL 1
REMARK VINA RESULT:       5.3      0.000      0.000
REMARK  1 active torsions:
REMARK  status: ('A' for Active; 'I' for Inactive)
REMARK    1  A    between atoms: C_9  and  C_3 
ROOT
ATOM      1  N   UNL d   1     -56.179-102.880 -38.744  0.00  0.00    -0.145 NA
ATOM      2  N   UNL d   1     -56.189-102.879 -39.567  0.00  0.00    -0.106 NA
ATOM      3  C   UNL d   1     -55.457-102.867 -38.340  0.00  0.00     0.103 A 
ATOM      4  C   UNL d   1     -55.481-102.865 -39.989  0.00  0.00     0.297 A 
ATOM      5  C   UNL d   1     -54.744-102.853 -38.756  0.00  0.00     0.026 A 
ATOM      6  C   UNL d   1     -54.760-102.852 -39.586  0.00  0.00     0.066 A 
ATOM      7  O   UNL d   1     -55.493-102.864 -40.813  0.00  0.00    -0.264 OA
ENDROOT
BRANCH   3   8
ATOM      8  C   UNL d   1     -55.446-102.867 -37.516  0.00  0.00     0.022 A 
ATOM      9  C   UNL d   1     -54.722-102.858 -37.109  0.00  0.00     0.022 A 
ATOM     10  C   UNL d   1     -54.711-102.859 -36.285  0.00  0.00     0.099 A 
ATOM     11  N   UNL d   1     -55.420-102.869 -35.862  0.00  0.00    -0.242 NA
ATOM     12  C   UNL d   1     -56.145-102.878 -36.274  0.00  0.00     0.099 A 
ATOM     13  C   UNL d   1     -56.157-102.877 -37.097  0.00  0.00     0.022 A 
ENDBRANCH   3   8
TORSDOF 1
ENDMDL
