MODEL 1
REMARK VINA RESULT:      -6.0      0.000      0.000
REMARK  4 active torsions:
REMARK  status: ('A' for Active; 'I' for Inactive)
REMARK    1  A    between atoms: N_7  and  C_2 
REMARK    2  A    between atoms: C_6  and  C_3 
REMARK    3  A    between atoms: C_16  and  N_7 
REMARK    4  A    between atoms: C_10  and  C_16 
ROOT
ATOM      1  N   UNL d   1     -47.561  11.668  23.072  0.00  0.00    -0.222 NA
ATOM      2  C   UNL d   1     -46.811  11.726  23.408  0.00  0.00     0.172 A 
ATOM      3  C   UNL d   1     -47.809  12.438  22.867  0.00  0.00     0.090 A 
ATOM      4  S   UNL d   1     -46.596  12.511  23.412  0.00  0.00    -0.048 SA
ATOM      5  C   UNL d   1     -47.205  12.947  23.082  0.00  0.00     0.057 A 
ENDROOT
BRANCH   3   6
ATOM      6  C   UNL d   1     -48.546  12.611  22.510  0.00  0.00     0.018 A 
ATOM      7  C   UNL d   1     -48.562  12.882  21.737  0.00  0.00     0.002 A 
ATOM      8  C   UNL d   1     -49.299  13.055  21.380  0.00  0.00     0.011 A 
ATOM      9  C   UNL d   1     -49.979  12.947  21.815  0.00  0.00     0.058 A 
ATOM     10  C   UNL d   1     -49.964  12.674  22.594  0.00  0.00     0.011 A 
ATOM     11 CL   UNL d   1     -50.700  13.117  21.466  0.00  0.00    -0.082 Cl
ATOM     12  C   UNL d   1     -49.238  12.503  22.946  0.00  0.00     0.002 A 
ENDBRANCH   3   6
BRANCH   2  13
ATOM     13  N   UNL d   1     -46.347  11.115  23.693  0.00  0.00    -0.332 N 
ATOM     14  H   UNL d   1     -46.681  10.540  24.192  0.00  0.00     0.168 HD
BRANCH  13  15
ATOM     15  C   UNL d   1     -45.541  11.067  23.487  0.00  0.00     0.074 C 
BRANCH  15  16
ATOM     16  C   UNL d   1     -45.097  10.422  23.695  0.00  0.00     0.018 C 
ATOM     17  C   UNL d   1     -44.303  10.332  23.417  0.00  0.00     0.002 C 
ENDBRANCH  15  16
ENDBRANCH  13  15
ENDBRANCH   2  13
TORSDOF 4
ENDMDL
MODEL 2
REMARK VINA RESULT:      -5.9      2.648      4.083
REMARK  4 active torsions:
REMARK  status: ('A' for Active; 'I' for Inactive)
REMARK    1  A    between atoms: N_7  and  C_2 
REMARK    2  A    between atoms: C_6  and  C_3 
REMARK    3  A    between atoms: C_16  and  N_7 
REMARK    4  A    between atoms: C_10  and  C_16 
ROOT
ATOM      1  N   UNL d   1     -48.723  13.576  23.157  0.00  0.00    -0.222 NA
ATOM      2  C   UNL d   1     -49.434  13.985  23.224  0.00  0.00     0.172 A 
ATOM      3  C   UNL d   1     -48.163  14.089  22.814  0.00  0.00     0.090 A 
ATOM      4  S   UNL d   1     -49.321  14.736  22.930  0.00  0.00    -0.048 SA
ATOM      5  C   UNL d   1     -48.545  14.801  22.679  0.00  0.00     0.057 A 
ENDROOT
BRANCH   3   6
ATOM      6  C   UNL d   1     -47.370  13.875  22.654  0.00  0.00     0.018 A 
ATOM      7  C   UNL d   1     -47.217  13.202  22.213  0.00  0.00     0.002 A 
ATOM      8  C   UNL d   1     -46.424  12.988  22.053  0.00  0.00     0.011 A 
ATOM      9  C   UNL d   1     -45.827  13.459  22.344  0.00  0.00     0.058 A 
ATOM     10  C   UNL d   1     -45.978  14.138  22.788  0.00  0.00     0.011 A 
ATOM     11 CL   UNL d   1     -45.050  13.250  22.187  0.00  0.00    -0.082 Cl
ATOM     12  C   UNL d   1     -46.760  14.349  22.945  0.00  0.00     0.002 A 
ENDBRANCH   3   6
BRANCH   2  13
ATOM     13  N   UNL d   1     -50.140  13.707  23.529  0.00  0.00    -0.332 N 
ATOM     14  H   UNL d   1     -50.531  14.138  24.124  0.00  0.00     0.168 HD
BRANCH  13  15
ATOM     15  C   UNL d   1     -50.471  12.996  23.248  0.00  0.00     0.074 C 
BRANCH  15  16
ATOM     16  C   UNL d   1     -51.042  12.608  23.671  0.00  0.00     0.018 C 
ATOM     17  C   UNL d   1     -51.064  11.762  23.698  0.00  0.00     0.002 C 
ENDBRANCH  15  16
ENDBRANCH  13  15
ENDBRANCH   2  13
TORSDOF 4
ENDMDL
MODEL 3
REMARK VINA RESULT:      -5.8      2.315      4.298
REMARK  4 active torsions:
REMARK  status: ('A' for Active; 'I' for Inactive)
REMARK    1  A    between atoms: N_7  and  C_2 
REMARK    2  A    between atoms: C_6  and  C_3 
REMARK    3  A    between atoms: C_16  and  N_7 
REMARK    4  A    between atoms: C_10  and  C_16 
ROOT
ATOM      1  N   UNL d   1     -48.945  13.399  23.303  0.00  0.00    -0.222 NA
ATOM      2  C   UNL d   1     -49.705  13.112  23.434  0.00  0.00     0.172 A 
ATOM      3  C   UNL d   1     -48.462  12.755  23.086  0.00  0.00     0.090 A 
ATOM      4  S   UNL d   1     -49.697  12.308  23.302  0.00  0.00    -0.048 SA
ATOM      5  C   UNL d   1     -48.938  12.089  23.090  0.00  0.00     0.057 A 
ENDROOT
BRANCH   3   6
ATOM      6  C   UNL d   1     -47.647  12.823  22.907  0.00  0.00     0.018 A 
ATOM      7  C   UNL d   1     -47.097  12.475  23.405  0.00  0.00     0.002 A 
ATOM      8  C   UNL d   1     -46.282  12.543  23.226  0.00  0.00     0.011 A 
ATOM      9  C   UNL d   1     -46.062  12.953  22.558  0.00  0.00     0.058 A 
ATOM     10  C   UNL d   1     -46.615  13.304  22.054  0.00  0.00     0.011 A 
ATOM     11 CL   UNL d   1     -45.265  13.019  22.382  0.00  0.00    -0.082 Cl
ATOM     12  C   UNL d   1     -47.418  13.237  22.231  0.00  0.00     0.002 A 
ENDBRANCH   3   6
BRANCH   2  13
ATOM     13  N   UNL d   1     -50.366  13.540  23.657  0.00  0.00    -0.332 N 
ATOM     14  H   UNL d   1     -51.032  13.143  23.960  0.00  0.00     0.168 HD
BRANCH  13  15
ATOM     15  C   UNL d   1     -50.377  14.369  23.582  0.00  0.00     0.074 C 
BRANCH  15  16
ATOM     16  C   UNL d   1     -51.064  14.786  23.680  0.00  0.00     0.018 C 
ATOM     17  C   UNL d   1     -51.062  15.633  23.698  0.00  0.00     0.002 C 
ENDBRANCH  15  16
ENDBRANCH  13  15
ENDBRANCH   2  13
TORSDOF 4
ENDMDL
MODEL 4
REMARK VINA RESULT:      -5.1      8.941      9.904
REMARK  4 active torsions:
REMARK  status: ('A' for Active; 'I' for Inactive)
REMARK    1  A    between atoms: N_7  and  C_2 
REMARK    2  A    between atoms: C_6  and  C_3 
REMARK    3  A    between atoms: C_16  and  N_7 
REMARK    4  A    between atoms: C_10  and  C_16 
ROOT
ATOM      1  N   UNL d   1     -39.667  15.086  17.647  0.00  0.00    -0.222 NA
ATOM      2  C   UNL d   1     -39.776  15.177  16.837  0.00  0.00     0.172 A 
ATOM      3  C   UNL d   1     -40.392  15.251  18.024  0.00  0.00     0.090 A 
ATOM      4  S   UNL d   1     -40.551  15.394  16.709  0.00  0.00    -0.048 SA
ATOM      5  C   UNL d   1     -40.928  15.439  17.434  0.00  0.00     0.057 A 
ENDROOT
BRANCH   3   6
ATOM      6  C   UNL d   1     -40.506  15.218  18.852  0.00  0.00     0.018 A 
ATOM      7  C   UNL d   1     -40.590  14.488  19.217  0.00  0.00     0.002 A 
ATOM      8  C   UNL d   1     -40.704  14.455  20.045  0.00  0.00     0.011 A 
ATOM      9  C   UNL d   1     -40.728  15.153  20.464  0.00  0.00     0.058 A 
ATOM     10  C   UNL d   1     -40.643  15.889  20.099  0.00  0.00     0.011 A 
ATOM     11 CL   UNL d   1     -40.839  15.121  21.274  0.00  0.00    -0.082 Cl
ATOM     12  C   UNL d   1     -40.531  15.921  19.282  0.00  0.00     0.002 A 
ENDBRANCH   3   6
BRANCH   2  13
ATOM     13  N   UNL d   1     -39.220  15.074  16.245  0.00  0.00    -0.332 N 
ATOM     14  H   UNL d   1     -39.078  15.685  15.699  0.00  0.00     0.168 HD
BRANCH  13  15
ATOM     15  C   UNL d   1     -38.794  14.360  16.186  0.00  0.00     0.074 C 
BRANCH  15  16
ATOM     16  C   UNL d   1     -38.148  14.301  15.703  0.00  0.00     0.018 C 
ATOM     17  C   UNL d   1     -37.941  13.564  15.340  0.00  0.00     0.002 C 
ENDBRANCH  15  16
ENDBRANCH  13  15
ENDBRANCH   2  13
TORSDOF 4
ENDMDL
MODEL 5
REMARK VINA RESULT:      -4.7      9.062     10.089
REMARK  4 active torsions:
REMARK  status: ('A' for Active; 'I' for Inactive)
REMARK    1  A    between atoms: N_7  and  C_2 
REMARK    2  A    between atoms: C_6  and  C_3 
REMARK    3  A    between atoms: C_16  and  N_7 
REMARK    4  A    between atoms: C_10  and  C_16 
ROOT
ATOM      1  N   UNL d   1     -39.366  14.523  19.038  0.00  0.00    -0.222 NA
ATOM      2  C   UNL d   1     -39.980  14.625  19.577  0.00  0.00     0.172 A 
ATOM      3  C   UNL d   1     -39.698  14.268  18.317  0.00  0.00     0.090 A 
ATOM      4  S   UNL d   1     -40.679  14.437  19.202  0.00  0.00    -0.048 SA
ATOM      5  C   UNL d   1     -40.507  14.219  18.432  0.00  0.00     0.057 A 
ENDROOT
BRANCH   3   6
ATOM      6  C   UNL d   1     -39.250  14.104  17.629  0.00  0.00     0.018 A 
ATOM      7  C   UNL d   1     -38.872  13.380  17.560  0.00  0.00     0.002 A 
ATOM      8  C   UNL d   1     -38.424  13.215  16.873  0.00  0.00     0.011 A 
ATOM      9  C   UNL d   1     -38.378  13.785  16.292  0.00  0.00     0.058 A 
ATOM     10  C   UNL d   1     -38.758  14.515  16.360  0.00  0.00     0.011 A 
ATOM     11 CL   UNL d   1     -37.940  13.624  15.619  0.00  0.00    -0.082 Cl
ATOM     12  C   UNL d   1     -39.199  14.676  17.037  0.00  0.00     0.002 A 
ENDBRANCH   3   6
BRANCH   2  13
ATOM     13  N   UNL d   1     -39.923  14.869  20.355  0.00  0.00    -0.332 N 
ATOM     14  H   UNL d   1     -40.283  15.581  20.593  0.00  0.00     0.168 HD
BRANCH  13  15
ATOM     15  C   UNL d   1     -39.506  14.410  20.912  0.00  0.00     0.074 C 
BRANCH  15  16
ATOM     16  C   UNL d   1     -39.398  14.675  21.670  0.00  0.00     0.018 C 
ATOM     17  C   UNL d   1     -39.071  14.169  22.265  0.00  0.00     0.002 C 
ENDBRANCH  15  16
ENDBRANCH  13  15
ENDBRANCH   2  13
TORSDOF 4
ENDMDL
MODEL 6
REMARK VINA RESULT:      -4.0      8.358      8.859
REMARK  4 active torsions:
REMARK  status: ('A' for Active; 'I' for Inactive)
REMARK    1  A    between atoms: N_7  and  C_2 
REMARK    2  A    between atoms: C_6  and  C_3 
REMARK    3  A    between atoms: C_16  and  N_7 
REMARK    4  A    between atoms: C_10  and  C_16 
ROOT
ATOM      1  N   UNL d   1     -39.691  15.019  20.253  0.00  0.00    -0.222 NA
ATOM      2  C   UNL d   1     -39.828  15.098  21.061  0.00  0.00     0.172 A 
ATOM      3  C   UNL d   1     -40.395  15.219  19.853  0.00  0.00     0.090 A 
ATOM      4  S   UNL d   1     -40.598  15.341  21.163  0.00  0.00    -0.048 SA
ATOM      5  C   UNL d   1     -40.946  15.415  20.426  0.00  0.00     0.057 A 
ENDROOT
BRANCH   3   6
ATOM      6  C   UNL d   1     -40.478  15.207  19.020  0.00  0.00     0.018 A 
ATOM      7  C   UNL d   1     -40.523  14.486  18.632  0.00  0.00     0.002 A 
ATOM      8  C   UNL d   1     -40.607  14.474  17.799  0.00  0.00     0.011 A 
ATOM      9  C   UNL d   1     -40.640  15.184  17.401  0.00  0.00     0.058 A 
ATOM     10  C   UNL d   1     -40.594  15.910  17.790  0.00  0.00     0.011 A 
ATOM     11 CL   UNL d   1     -40.721  15.172  16.586  0.00  0.00    -0.082 Cl
ATOM     12  C   UNL d   1     -40.512  15.922  18.611  0.00  0.00     0.002 A 
ENDBRANCH   3   6
BRANCH   2  13
ATOM     13  N   UNL d   1     -39.299  14.962  21.670  0.00  0.00    -0.332 N 
ATOM     14  H   UNL d   1     -38.825  15.585  21.953  0.00  0.00     0.168 HD
BRANCH  13  15
ATOM     15  C   UNL d   1     -39.231  14.204  22.009  0.00  0.00     0.074 C 
BRANCH  15  16
ATOM     16  C   UNL d   1     -38.679  14.053  22.582  0.00  0.00     0.018 C 
ATOM     17  C   UNL d   1     -38.635  13.294  22.955  0.00  0.00     0.002 C 
ENDBRANCH  15  16
ENDBRANCH  13  15
ENDBRANCH   2  13
TORSDOF 4
ENDMDL
