MODEL 1
REMARK VINA RESULT:      -8.8      0.000      0.000
REMARK  2 active torsions:
REMARK  status: ('A' for Active; 'I' for Inactive)
REMARK    1  A    between atoms: C_8  and  N_1 
REMARK    2  A    between atoms: O_15  and  C_14 
ROOT
ATOM      1  N   UNL d   1     -48.324  13.438  22.257  0.00  0.00    -0.243 N 
ATOM      2  C   UNL d   1     -48.590  13.105  21.590  0.00  0.00     0.251 A 
ATOM      3  C   UNL d   1     -48.881  13.918  22.578  0.00  0.00     0.264 A 
ATOM      4  C   UNL d   1     -49.375  13.387  21.465  0.00  0.00     0.129 A 
ATOM      5  C   UNL d   1     -49.555  13.891  22.077  0.00  0.00     0.047 A 
ATOM      6  C   UNL d   1     -50.230  14.358  22.298  0.00  0.00     0.001 A 
ATOM      7  C   UNL d   1     -50.155  14.105  21.980  0.00  0.00    -0.009 A 
ATOM      8  C   UNL d   1     -51.063  14.504  21.942  0.00  0.00    -0.000 A 
ATOM      9  C   UNL d   1     -50.971  14.244  21.626  0.00  0.00    -0.004 A 
ATOM     10  C   UNL d   1     -49.887  14.655  22.964  0.00  0.00    -0.004 A 
ATOM     11  O   UNL d   1     -48.153  12.568  21.105  0.00  0.00    -0.271 OA
ATOM     12  O   UNL d   1     -48.663  14.331  23.328  0.00  0.00    -0.267 OA
ENDROOT
BRANCH   1  13
ATOM     13  C   UNL d   1     -47.580  13.300  22.563  0.00  0.00     0.092 A 
ATOM     14  C   UNL d   1     -47.444  12.639  23.044  0.00  0.00     0.110 A 
ATOM     15  C   UNL d   1     -46.698  12.506  23.347  0.00  0.00     0.026 A 
ATOM     16  C   UNL d   1     -46.081  13.026  23.177  0.00  0.00     0.002 A 
ATOM     17  C   UNL d   1     -46.220  13.671  22.705  0.00  0.00     0.002 A 
ATOM     18  C   UNL d   1     -46.970  13.810  22.397  0.00  0.00     0.020 A 
BRANCH  14  19
ATOM     19  O   UNL d   1     -48.072  12.137  23.199  0.00  0.00    -0.327 OA
ATOM     20  C   UNL d   1     -47.999  11.541  23.644  0.00  0.00     0.181 C 
ENDBRANCH  14  19
ENDBRANCH   1  13
TORSDOF 2
ENDMDL
MODEL 2
REMARK VINA RESULT:      -8.6      0.905      3.410
REMARK  2 active torsions:
REMARK  status: ('A' for Active; 'I' for Inactive)
REMARK    1  A    between atoms: C_8  and  N_1 
REMARK    2  A    between atoms: O_15  and  C_14 
ROOT
ATOM      1  N   UNL d   1     -48.678  13.230  23.176  0.00  0.00    -0.243 N 
ATOM      2  C   UNL d   1     -48.933  12.554  23.500  0.00  0.00     0.251 A 
ATOM      3  C   UNL d   1     -47.882  13.218  23.081  0.00  0.00     0.264 A 
ATOM      4  C   UNL d   1     -48.258  12.066  23.627  0.00  0.00     0.129 A 
ATOM      5  C   UNL d   1     -47.606  12.478  23.367  0.00  0.00     0.047 A 
ATOM      6  C   UNL d   1     -46.770  12.327  23.328  0.00  0.00     0.001 A 
ATOM      7  C   UNL d   1     -47.091  12.103  23.465  0.00  0.00    -0.009 A 
ATOM      8  C   UNL d   1     -46.226  11.626  23.564  0.00  0.00    -0.000 A 
ATOM      9  C   UNL d   1     -46.562  11.413  23.698  0.00  0.00    -0.004 A 
ATOM     10  C   UNL d   1     -46.591  13.039  22.998  0.00  0.00    -0.004 A 
ATOM     11  O   UNL d   1     -49.740  12.374  23.679  0.00  0.00    -0.271 OA
ATOM     12  O   UNL d   1     -47.515  13.938  22.724  0.00  0.00    -0.267 OA
ENDROOT
BRANCH   1  13
ATOM     13  C   UNL d   1     -49.173  13.846  22.971  0.00  0.00     0.092 A 
ATOM     14  C   UNL d   1     -49.568  13.838  22.243  0.00  0.00     0.110 A 
ATOM     15  C   UNL d   1     -50.062  14.457  22.044  0.00  0.00     0.026 A 
ATOM     16  C   UNL d   1     -50.169  15.088  22.564  0.00  0.00     0.002 A 
ATOM     17  C   UNL d   1     -49.780  15.090  23.276  0.00  0.00     0.002 A 
ATOM     18  C   UNL d   1     -49.281  14.469  23.482  0.00  0.00     0.020 A 
BRANCH  14  19
ATOM     19  O   UNL d   1     -49.447  13.201  21.743  0.00  0.00    -0.327 OA
ATOM     20  C   UNL d   1     -49.774  13.159  21.073  0.00  0.00     0.181 C 
ENDBRANCH  14  19
ENDBRANCH   1  13
TORSDOF 2
ENDMDL
