MODEL 1
REMARK VINA RESULT:      -8.3      0.000      0.000
REMARK  6 active torsions:
REMARK  status: ('A' for Active; 'I' for Inactive)
REMARK    1  A    between atoms: C_2  and  S_1 
REMARK    2  A    between atoms: N_5  and  S_1 
REMARK    3  A    between atoms: C_9  and  N_5 
REMARK    4  A    between atoms: C_11  and  C_9 
REMARK       I    between atoms: N_17  and  C_11 
REMARK    5  A    between atoms: C_16  and  C_21 
REMARK    6  A    between atoms: C_21  and  N_17 
ROOT
ATOM      1  C   UNL d   1      50.238  34.525  52.649  0.00  0.00     0.299 C 
ATOM      2  N   UNL d   1      50.902  34.511  53.131  0.00  0.00    -0.203 NA
ATOM      3  O   UNL d   1      50.274  34.193  51.874  0.00  0.00    -0.263 OA
ENDROOT
BRANCH   1   4
ATOM      4  C   UNL d   1      49.538  34.860  52.920  0.00  0.00     0.174 C 
BRANCH   4   5
ATOM      5  N   UNL d   1      49.071  35.323  52.404  0.00  0.00    -0.151 NA
BRANCH   5   6
ATOM      6  S   UNL d   1      48.367  35.670  52.681  0.00  0.00     0.291 S 
ATOM      7  O   UNL d   1      47.974  35.443  51.979  0.00  0.00    -0.198 OA
ATOM      8  O   UNL d   1      48.747  35.897  53.373  0.00  0.00    -0.198 OA
BRANCH   6   9
ATOM      9  C   UNL d   1      47.661  36.014  52.948  0.00  0.00     0.135 A 
ATOM     10  S   UNL d   1      47.010  36.128  52.489  0.00  0.00    -0.067 SA
ATOM     11  C   UNL d   1      46.420  36.488  52.967  0.00  0.00     0.065 A 
ATOM     12 BR   UNL d   1      45.649  36.708  52.719  0.00  0.00    -0.042 Br
ATOM     13  C   UNL d   1      46.725  36.586  53.709  0.00  0.00     0.015 A 
ATOM     14  C   UNL d   1      47.499  36.293  53.707  0.00  0.00     0.021 A 
ENDBRANCH   6   9
ENDBRANCH   5   6
ENDBRANCH   4   5
ENDBRANCH   1   4
BRANCH   2  15
ATOM     15  C   UNL d   1      51.614  34.170  52.855  0.00  0.00     0.129 C 
BRANCH  15  16
ATOM     16  C   UNL d   1      52.266  34.108  53.373  0.00  0.00     0.144 A 
ATOM     17  O   UNL d   1      52.568  33.385  53.585  0.00  0.00    -0.301 OA
ATOM     18  C   UNL d   1      53.205  33.342  54.091  0.00  0.00     0.123 A 
ATOM     19  C   UNL d   1      53.512  32.607  54.308  0.00  0.00     0.027 A 
ATOM     20  C   UNL d   1      53.548  34.027  54.392  0.00  0.00     0.123 A 
ATOM     21  C   UNL d   1      54.158  32.557  54.821  0.00  0.00     0.002 A 
ATOM     22  C   UNL d   1      54.498  33.244  55.119  0.00  0.00     0.002 A 
ATOM     23  C   UNL d   1      54.187  33.984  54.900  0.00  0.00     0.027 A 
ATOM     24  O   UNL d   1      53.246  34.759  54.181  0.00  0.00    -0.301 OA
ATOM     25  C   UNL d   1      52.606  34.795  53.671  0.00  0.00     0.149 A 
ENDBRANCH  15  16
ENDBRANCH   2  15
TORSDOF 6
ENDMDL
MODEL 2
REMARK VINA RESULT:      -8.2      2.642      6.138
REMARK  6 active torsions:
REMARK  status: ('A' for Active; 'I' for Inactive)
REMARK    1  A    between atoms: C_2  and  S_1 
REMARK    2  A    between atoms: N_5  and  S_1 
REMARK    3  A    between atoms: C_9  and  N_5 
REMARK    4  A    between atoms: C_11  and  C_9 
REMARK       I    between atoms: N_17  and  C_11 
REMARK    5  A    between atoms: C_16  and  C_21 
REMARK    6  A    between atoms: C_21  and  N_17 
ROOT
ATOM      1  C   UNL d   1      50.701  34.194  52.513  0.00  0.00     0.299 C 
ATOM      2  N   UNL d   1      50.027  34.567  52.796  0.00  0.00    -0.203 NA
ATOM      3  O   UNL d   1      50.808  34.092  51.683  0.00  0.00    -0.263 OA
ENDROOT
BRANCH   1   4
ATOM      4  C   UNL d   1      51.273  33.920  53.038  0.00  0.00     0.174 C 
BRANCH   4   5
ATOM      5  N   UNL d   1      52.038  33.732  52.758  0.00  0.00    -0.151 NA
BRANCH   5   6
ATOM      6  S   UNL d   1      52.619  33.464  53.290  0.00  0.00     0.291 S 
ATOM      7  O   UNL d   1      52.966  34.224  53.300  0.00  0.00    -0.198 OA
ATOM      8  O   UNL d   1      52.283  32.714  53.286  0.00  0.00    -0.198 OA
BRANCH   6   9
ATOM      9  C   UNL d   1      53.202  33.207  53.820  0.00  0.00     0.135 A 
ATOM     10  S   UNL d   1      53.619  33.693  54.307  0.00  0.00    -0.067 SA
ATOM     11  C   UNL d   1      54.150  33.216  54.751  0.00  0.00     0.065 A 
ATOM     12 BR   UNL d   1      54.695  33.489  55.329  0.00  0.00    -0.042 Br
ATOM     13  C   UNL d   1      54.045  32.447  54.525  0.00  0.00     0.015 A 
ATOM     14  C   UNL d   1      53.455  32.432  53.944  0.00  0.00     0.021 A 
ENDBRANCH   6   9
ENDBRANCH   5   6
ENDBRANCH   4   5
ENDBRANCH   1   4
BRANCH   2  15
ATOM     15  C   UNL d   1      49.447  34.845  52.263  0.00  0.00     0.129 C 
BRANCH  15  16
ATOM     16  C   UNL d   1      48.796  35.279  52.556  0.00  0.00     0.144 A 
ATOM     17  O   UNL d   1      48.143  35.421  52.095  0.00  0.00    -0.301 OA
ATOM     18  C   UNL d   1      47.516  35.846  52.397  0.00  0.00     0.123 A 
ATOM     19  C   UNL d   1      46.852  35.991  51.929  0.00  0.00     0.027 A 
ATOM     20  C   UNL d   1      47.538  36.135  53.167  0.00  0.00     0.123 A 
ATOM     21  C   UNL d   1      46.213  36.421  52.229  0.00  0.00     0.002 A 
ATOM     22  C   UNL d   1      46.239  36.709  53.000  0.00  0.00     0.002 A 
ATOM     23  C   UNL d   1      46.910  36.562  53.470  0.00  0.00     0.027 A 
ATOM     24  O   UNL d   1      48.196  35.995  53.635  0.00  0.00    -0.301 OA
ATOM     25  C   UNL d   1      48.822  35.566  53.326  0.00  0.00     0.149 A 
ENDBRANCH  15  16
ENDBRANCH   2  15
TORSDOF 6
ENDMDL
MODEL 3
REMARK VINA RESULT:      -7.8      1.403      1.815
REMARK  6 active torsions:
REMARK  status: ('A' for Active; 'I' for Inactive)
REMARK    1  A    between atoms: C_2  and  S_1 
REMARK    2  A    between atoms: N_5  and  S_1 
REMARK    3  A    between atoms: C_9  and  N_5 
REMARK    4  A    between atoms: C_11  and  C_9 
REMARK       I    between atoms: N_17  and  C_11 
REMARK    5  A    between atoms: C_16  and  C_21 
REMARK    6  A    between atoms: C_21  and  N_17 
ROOT
ATOM      1  C   UNL d   1      50.958  34.141  52.479  0.00  0.00     0.299 C 
ATOM      2  N   UNL d   1      51.425  33.616  52.902  0.00  0.00    -0.203 NA
ATOM      3  O   UNL d   1      51.202  34.398  51.713  0.00  0.00    -0.263 OA
ENDROOT
BRANCH   1   4
ATOM      4  C   UNL d   1      50.253  34.419  52.800  0.00  0.00     0.174 C 
BRANCH   4   5
ATOM      5  N   UNL d   1      49.681  34.772  52.303  0.00  0.00    -0.151 NA
BRANCH   5   6
ATOM      6  S   UNL d   1      49.050  35.199  52.638  0.00  0.00     0.291 S 
ATOM      7  O   UNL d   1      48.564  34.998  51.987  0.00  0.00    -0.198 OA
ATOM      8  O   UNL d   1      49.521  35.401  53.279  0.00  0.00    -0.198 OA
BRANCH   6   9
ATOM      9  C   UNL d   1      48.415  35.622  52.962  0.00  0.00     0.135 A 
ATOM     10  S   UNL d   1      47.740  35.806  52.563  0.00  0.00    -0.067 SA
ATOM     11  C   UNL d   1      47.242  36.234  53.087  0.00  0.00     0.065 A 
ATOM     12 BR   UNL d   1      46.480  36.538  52.907  0.00  0.00    -0.042 Br
ATOM     13  C   UNL d   1      47.623  36.302  53.796  0.00  0.00     0.015 A 
ATOM     14  C   UNL d   1      48.356  35.923  53.727  0.00  0.00     0.021 A 
ENDBRANCH   6   9
ENDBRANCH   5   6
ENDBRANCH   4   5
ENDBRANCH   1   4
BRANCH   2  15
ATOM     15  C   UNL d   1      52.142  33.335  52.576  0.00  0.00     0.129 C 
BRANCH  15  16
ATOM     16  C   UNL d   1      52.531  32.691  52.937  0.00  0.00     0.144 A 
ATOM     17  O   UNL d   1      52.405  31.929  52.688  0.00  0.00    -0.301 OA
ATOM     18  C   UNL d   1      52.793  31.311  53.051  0.00  0.00     0.123 A 
ATOM     19  C   UNL d   1      52.665  30.536  52.798  0.00  0.00     0.027 A 
ATOM     20  C   UNL d   1      53.315  31.452  53.672  0.00  0.00     0.123 A 
ATOM     21  C   UNL d   1      53.056  29.905  53.162  0.00  0.00     0.002 A 
ATOM     22  C   UNL d   1      53.577  30.050  53.782  0.00  0.00     0.002 A 
ATOM     23  C   UNL d   1      53.705  30.833  54.037  0.00  0.00     0.027 A 
ATOM     24  O   UNL d   1      53.445  32.219  53.927  0.00  0.00    -0.301 OA
ATOM     25  C   UNL d   1      53.052  32.836  53.557  0.00  0.00     0.149 A 
ENDBRANCH  15  16
ENDBRANCH   2  15
TORSDOF 6
ENDMDL
MODEL 4
REMARK VINA RESULT:      -7.8      2.996      6.287
REMARK  6 active torsions:
REMARK  status: ('A' for Active; 'I' for Inactive)
REMARK    1  A    between atoms: C_2  and  S_1 
REMARK    2  A    between atoms: N_5  and  S_1 
REMARK    3  A    between atoms: C_9  and  N_5 
REMARK    4  A    between atoms: C_11  and  C_9 
REMARK       I    between atoms: N_17  and  C_11 
REMARK    5  A    between atoms: C_16  and  C_21 
REMARK    6  A    between atoms: C_21  and  N_17 
ROOT
ATOM      1  C   UNL d   1      51.087  34.139  53.021  0.00  0.00     0.299 C 
ATOM      2  N   UNL d   1      50.313  34.224  52.763  0.00  0.00    -0.203 NA
ATOM      3  O   UNL d   1      51.540  34.820  53.225  0.00  0.00    -0.263 OA
ENDROOT
BRANCH   1   4
ATOM      4  C   UNL d   1      51.422  33.389  53.080  0.00  0.00     0.174 C 
BRANCH   4   5
ATOM      5  N   UNL d   1      52.237  33.285  52.925  0.00  0.00    -0.151 NA
BRANCH   5   6
ATOM      6  S   UNL d   1      52.598  32.552  53.084  0.00  0.00     0.291 S 
ATOM      7  O   UNL d   1      52.747  32.792  53.871  0.00  0.00    -0.198 OA
ATOM      8  O   UNL d   1      52.455  32.310  52.313  0.00  0.00    -0.198 OA
BRANCH   6   9
ATOM      9  C   UNL d   1      52.959  31.825  53.253  0.00  0.00     0.135 A 
ATOM     10  S   UNL d   1      52.623  31.108  53.114  0.00  0.00    -0.067 SA
ATOM     11  C   UNL d   1      53.168  30.517  53.362  0.00  0.00     0.065 A 
ATOM     12 BR   UNL d   1      53.050  29.687  53.321  0.00  0.00    -0.042 Br
ATOM     13  C   UNL d   1      53.826  30.889  53.647  0.00  0.00     0.015 A 
ATOM     14  C   UNL d   1      53.705  31.705  53.583  0.00  0.00     0.021 A 
ENDBRANCH   6   9
ENDBRANCH   5   6
ENDBRANCH   4   5
ENDBRANCH   1   4
BRANCH   2  15
ATOM     15  C   UNL d   1      49.973  34.985  52.702  0.00  0.00     0.129 C 
BRANCH  15  16
ATOM     16  C   UNL d   1      49.228  35.073  52.335  0.00  0.00     0.144 A 
ATOM     17  O   UNL d   1      48.641  35.521  52.673  0.00  0.00    -0.301 OA
ATOM     18  C   UNL d   1      47.920  35.596  52.302  0.00  0.00     0.123 A 
ATOM     19  C   UNL d   1      47.323  36.051  52.645  0.00  0.00     0.027 A 
ATOM     20  C   UNL d   1      47.779  35.221  51.583  0.00  0.00     0.123 A 
ATOM     21  C   UNL d   1      46.590  36.131  52.273  0.00  0.00     0.002 A 
ATOM     22  C   UNL d   1      46.452  35.755  51.554  0.00  0.00     0.002 A 
ATOM     23  C   UNL d   1      47.055  35.296  51.209  0.00  0.00     0.027 A 
ATOM     24  O   UNL d   1      48.368  34.769  51.237  0.00  0.00    -0.301 OA
ATOM     25  C   UNL d   1      49.091  34.697  51.616  0.00  0.00     0.149 A 
ENDBRANCH  15  16
ENDBRANCH   2  15
TORSDOF 6
ENDMDL
MODEL 5
REMARK VINA RESULT:      -5.7     10.356     10.870
REMARK  6 active torsions:
REMARK  status: ('A' for Active; 'I' for Inactive)
REMARK    1  A    between atoms: C_2  and  S_1 
REMARK    2  A    between atoms: N_5  and  S_1 
REMARK    3  A    between atoms: C_9  and  N_5 
REMARK    4  A    between atoms: C_11  and  C_9 
REMARK       I    between atoms: N_17  and  C_11 
REMARK    5  A    between atoms: C_16  and  C_21 
REMARK    6  A    between atoms: C_21  and  N_17 
ROOT
ATOM      1  C   UNL d   1      44.989  28.314  57.299  0.00  0.00     0.299 C 
ATOM      2  N   UNL d   1      44.879  27.502  57.317  0.00  0.00    -0.203 NA
ATOM      3  O   UNL d   1      45.338  28.676  56.622  0.00  0.00    -0.263 OA
ENDROOT
BRANCH   1   4
ATOM      4  C   UNL d   1      44.759  28.777  57.939  0.00  0.00     0.174 C 
BRANCH   4   5
ATOM      5  N   UNL d   1      45.309  29.296  58.296  0.00  0.00    -0.151 NA
BRANCH   5   6
ATOM      6  S   UNL d   1      45.065  29.794  58.916  0.00  0.00     0.291 S 
ATOM      7  O   UNL d   1      45.239  30.466  58.450  0.00  0.00    -0.198 OA
ATOM      8  O   UNL d   1      44.892  29.139  59.380  0.00  0.00    -0.198 OA
BRANCH   6   9
ATOM      9  C   UNL d   1      44.825  30.300  59.528  0.00  0.00     0.135 A 
ATOM     10  S   UNL d   1      44.933  30.148  60.311  0.00  0.00    -0.067 SA
ATOM     11  C   UNL d   1      44.613  30.794  60.743  0.00  0.00     0.065 A 
ATOM     12 BR   UNL d   1      44.602  30.874  61.579  0.00  0.00    -0.042 Br
ATOM     13  C   UNL d   1      44.316  31.327  60.213  0.00  0.00     0.015 A 
ATOM     14  C   UNL d   1      44.444  31.027  59.452  0.00  0.00     0.021 A 
ENDBRANCH   6   9
ENDBRANCH   5   6
ENDBRANCH   4   5
ENDBRANCH   1   4
BRANCH   2  15
ATOM     15  C   UNL d   1      45.113  27.032  56.666  0.00  0.00     0.129 C 
BRANCH  15  16
ATOM     16  C   UNL d   1      44.928  26.218  56.661  0.00  0.00     0.144 A 
ATOM     17  O   UNL d   1      45.037  25.765  55.996  0.00  0.00    -0.301 OA
ATOM     18  C   UNL d   1      44.851  24.971  56.008  0.00  0.00     0.123 A 
ATOM     19  C   UNL d   1      44.962  24.510  55.333  0.00  0.00     0.027 A 
ATOM     20  C   UNL d   1      44.551  24.622  56.691  0.00  0.00     0.123 A 
ATOM     21  C   UNL d   1      44.775  23.706  55.339  0.00  0.00     0.002 A 
ATOM     22  C   UNL d   1      44.476  23.360  56.023  0.00  0.00     0.002 A 
ATOM     23  C   UNL d   1      44.365  23.826  56.704  0.00  0.00     0.027 A 
ATOM     24  O   UNL d   1      44.440  25.075  57.364  0.00  0.00    -0.301 OA
ATOM     25  C   UNL d   1      44.629  25.872  57.345  0.00  0.00     0.149 A 
ENDBRANCH  15  16
ENDBRANCH   2  15
TORSDOF 6
ENDMDL
MODEL 6
REMARK VINA RESULT:      -5.7     10.224     11.077
REMARK  6 active torsions:
REMARK  status: ('A' for Active; 'I' for Inactive)
REMARK    1  A    between atoms: C_2  and  S_1 
REMARK    2  A    between atoms: N_5  and  S_1 
REMARK    3  A    between atoms: C_9  and  N_5 
REMARK    4  A    between atoms: C_11  and  C_9 
REMARK       I    between atoms: N_17  and  C_11 
REMARK    5  A    between atoms: C_16  and  C_21 
REMARK    6  A    between atoms: C_21  and  N_17 
ROOT
ATOM      1  C   UNL d   1      44.989  28.713  57.780  0.00  0.00     0.299 C 
ATOM      2  N   UNL d   1      44.862  29.058  58.513  0.00  0.00    -0.203 NA
ATOM      3  O   UNL d   1      45.351  29.159  57.163  0.00  0.00    -0.263 OA
ENDROOT
BRANCH   1   4
ATOM      4  C   UNL d   1      44.763  27.933  57.646  0.00  0.00     0.174 C 
BRANCH   4   5
ATOM      5  N   UNL d   1      45.318  27.386  57.343  0.00  0.00    -0.151 NA
BRANCH   5   6
ATOM      6  S   UNL d   1      45.067  26.630  57.105  0.00  0.00     0.291 S 
ATOM      7  O   UNL d   1      44.842  26.452  57.890  0.00  0.00    -0.198 OA
ATOM      8  O   UNL d   1      45.285  26.797  56.331  0.00  0.00    -0.198 OA
BRANCH   6   9
ATOM      9  C   UNL d   1      44.813  25.874  56.877  0.00  0.00     0.135 A 
ATOM     10  S   UNL d   1      44.859  25.586  56.127  0.00  0.00    -0.067 SA
ATOM     11  C   UNL d   1      44.545  24.806  56.133  0.00  0.00     0.065 A 
ATOM     12 BR   UNL d   1      44.482  24.294  55.470  0.00  0.00    -0.042 Br
ATOM     13  C   UNL d   1      44.314  24.635  56.888  0.00  0.00     0.015 A 
ATOM     14  C   UNL d   1      44.477  25.296  57.360  0.00  0.00     0.021 A 
ENDBRANCH   6   9
ENDBRANCH   5   6
ENDBRANCH   4   5
ENDBRANCH   1   4
BRANCH   2  15
ATOM     15  C   UNL d   1      45.091  29.850  58.650  0.00  0.00     0.129 C 
BRANCH  15  16
ATOM     16  C   UNL d   1      44.897  30.214  59.376  0.00  0.00     0.144 A 
ATOM     17  O   UNL d   1      44.922  29.800  60.074  0.00  0.00    -0.301 OA
ATOM     18  C   UNL d   1      44.729  30.171  60.775  0.00  0.00     0.123 A 
ATOM     19  C   UNL d   1      44.754  29.751  61.485  0.00  0.00     0.027 A 
ATOM     20  C   UNL d   1      44.509  30.964  60.782  0.00  0.00     0.123 A 
ATOM     21  C   UNL d   1      44.560  30.121  62.198  0.00  0.00     0.002 A 
ATOM     22  C   UNL d   1      44.340  30.914  62.201  0.00  0.00     0.002 A 
ATOM     23  C   UNL d   1      44.316  31.336  61.484  0.00  0.00     0.027 A 
ATOM     24  O   UNL d   1      44.483  31.385  60.080  0.00  0.00    -0.301 OA
ATOM     25  C   UNL d   1      44.677  31.007  59.379  0.00  0.00     0.149 A 
ENDBRANCH  15  16
ENDBRANCH   2  15
TORSDOF 6
ENDMDL
MODEL 7
REMARK VINA RESULT:      -5.5     10.162     11.085
REMARK  6 active torsions:
REMARK  status: ('A' for Active; 'I' for Inactive)
REMARK    1  A    between atoms: C_2  and  S_1 
REMARK    2  A    between atoms: N_5  and  S_1 
REMARK    3  A    between atoms: C_9  and  N_5 
REMARK    4  A    between atoms: C_11  and  C_9 
REMARK       I    between atoms: N_17  and  C_11 
REMARK    5  A    between atoms: C_16  and  C_21 
REMARK    6  A    between atoms: C_21  and  N_17 
ROOT
ATOM      1  C   UNL d   1      44.908  26.917  57.800  0.00  0.00     0.299 C 
ATOM      2  N   UNL d   1      44.838  27.732  57.743  0.00  0.00    -0.203 NA
ATOM      3  O   UNL d   1      45.196  26.569  58.512  0.00  0.00    -0.263 OA
ENDROOT
BRANCH   1   4
ATOM      4  C   UNL d   1      44.698  26.439  57.164  0.00  0.00     0.174 C 
BRANCH   4   5
ATOM      5  N   UNL d   1      45.049  25.685  57.077  0.00  0.00    -0.151 NA
BRANCH   5   6
ATOM      6  S   UNL d   1      44.882  25.226  56.403  0.00  0.00     0.291 S 
ATOM      7  O   UNL d   1      44.526  24.643  56.884  0.00  0.00    -0.198 OA
ATOM      8  O   UNL d   1      45.230  25.795  55.924  0.00  0.00    -0.198 OA
BRANCH   6   9
ATOM      9  C   UNL d   1      44.711  24.761  55.738  0.00  0.00     0.135 A 
ATOM     10  S   UNL d   1      44.838  23.968  55.694  0.00  0.00    -0.067 SA
ATOM     11  C   UNL d   1      44.592  23.711  54.933  0.00  0.00     0.065 A 
ATOM     12 BR   UNL d   1      44.623  22.923  54.643  0.00  0.00    -0.042 Br
ATOM     13  C   UNL d   1      44.320  24.355  54.528  0.00  0.00     0.015 A 
ATOM     14  C   UNL d   1      44.391  25.015  55.022  0.00  0.00     0.021 A 
ENDBRANCH   6   9
ENDBRANCH   5   6
ENDBRANCH   4   5
ENDBRANCH   1   4
BRANCH   2  15
ATOM     15  C   UNL d   1      45.051  28.219  58.389  0.00  0.00     0.129 C 
BRANCH  15  16
ATOM     16  C   UNL d   1      45.013  29.048  58.308  0.00  0.00     0.144 A 
ATOM     17  O   UNL d   1      44.795  29.394  57.606  0.00  0.00    -0.301 OA
ATOM     18  C   UNL d   1      44.762  30.206  57.544  0.00  0.00     0.123 A 
ATOM     19  C   UNL d   1      44.541  30.558  56.831  0.00  0.00     0.027 A 
ATOM     20  C   UNL d   1      44.949  30.682  58.189  0.00  0.00     0.123 A 
ATOM     21  C   UNL d   1      44.506  31.380  56.762  0.00  0.00     0.002 A 
ATOM     22  C   UNL d   1      44.693  31.854  57.409  0.00  0.00     0.002 A 
ATOM     23  C   UNL d   1      44.916  31.497  58.127  0.00  0.00     0.027 A 
ATOM     24  O   UNL d   1      45.169  30.338  58.899  0.00  0.00    -0.301 OA
ATOM     25  C   UNL d   1      45.200  29.522  58.955  0.00  0.00     0.149 A 
ENDBRANCH  15  16
ENDBRANCH   2  15
TORSDOF 6
ENDMDL
MODEL 8
REMARK VINA RESULT:      -5.5     11.009     11.606
REMARK  6 active torsions:
REMARK  status: ('A' for Active; 'I' for Inactive)
REMARK    1  A    between atoms: C_2  and  S_1 
REMARK    2  A    between atoms: N_5  and  S_1 
REMARK    3  A    between atoms: C_9  and  N_5 
REMARK    4  A    between atoms: C_11  and  C_9 
REMARK       I    between atoms: N_17  and  C_11 
REMARK    5  A    between atoms: C_16  and  C_21 
REMARK    6  A    between atoms: C_21  and  N_17 
ROOT
ATOM      1  C   UNL d   1      44.644  25.380  56.365  0.00  0.00     0.299 C 
ATOM      2  N   UNL d   1      44.677  25.077  55.603  0.00  0.00    -0.203 NA
ATOM      3  O   UNL d   1      44.611  24.856  57.025  0.00  0.00    -0.263 OA
ENDROOT
BRANCH   1   4
ATOM      4  C   UNL d   1      44.644  26.194  56.486  0.00  0.00     0.174 C 
BRANCH   4   5
ATOM      5  N   UNL d   1      45.030  26.515  57.154  0.00  0.00    -0.151 NA
BRANCH   5   6
ATOM      6  S   UNL d   1      45.003  27.335  57.294  0.00  0.00     0.291 S 
ATOM      7  O   UNL d   1      45.651  27.449  56.778  0.00  0.00    -0.198 OA
ATOM      8  O   UNL d   1      44.366  27.231  57.801  0.00  0.00    -0.198 OA
BRANCH   6   9
ATOM      9  C   UNL d   1      44.984  28.153  57.426  0.00  0.00     0.135 A 
ATOM     10  S   UNL d   1      45.111  28.501  58.140  0.00  0.00    -0.067 SA
ATOM     11  C   UNL d   1      45.043  29.332  58.037  0.00  0.00     0.065 A 
ATOM     12 BR   UNL d   1      45.133  29.914  58.635  0.00  0.00    -0.042 Br
ATOM     13  C   UNL d   1      44.875  29.474  57.259  0.00  0.00     0.015 A 
ATOM     14  C   UNL d   1      44.837  28.744  56.870  0.00  0.00     0.021 A 
ENDBRANCH   6   9
ENDBRANCH   5   6
ENDBRANCH   4   5
ENDBRANCH   1   4
BRANCH   2  15
ATOM     15  C   UNL d   1      44.677  24.250  55.480  0.00  0.00     0.129 C 
BRANCH  15  16
ATOM     16  C   UNL d   1      44.793  23.950  54.710  0.00  0.00     0.144 A 
ATOM     17  O   UNL d   1      44.497  24.334  54.059  0.00  0.00    -0.301 OA
ATOM     18  C   UNL d   1      44.618  24.028  53.314  0.00  0.00     0.123 A 
ATOM     19  C   UNL d   1      44.317  24.418  52.652  0.00  0.00     0.027 A 
ATOM     20  C   UNL d   1      45.041  23.329  53.213  0.00  0.00     0.123 A 
ATOM     21  C   UNL d   1      44.438  24.112  51.894  0.00  0.00     0.002 A 
ATOM     22  C   UNL d   1      44.861  23.413  51.797  0.00  0.00     0.002 A 
ATOM     23  C   UNL d   1      45.164  23.021  52.465  0.00  0.00     0.027 A 
ATOM     24  O   UNL d   1      45.342  22.938  53.867  0.00  0.00    -0.301 OA
ATOM     25  C   UNL d   1      45.216  23.251  54.613  0.00  0.00     0.149 A 
ENDBRANCH  15  16
ENDBRANCH   2  15
TORSDOF 6
ENDMDL
MODEL 9
REMARK VINA RESULT:      -5.4     11.278     11.688
REMARK  6 active torsions:
REMARK  status: ('A' for Active; 'I' for Inactive)
REMARK    1  A    between atoms: C_2  and  S_1 
REMARK    2  A    between atoms: N_5  and  S_1 
REMARK    3  A    between atoms: C_9  and  N_5 
REMARK    4  A    between atoms: C_11  and  C_9 
REMARK       I    between atoms: N_17  and  C_11 
REMARK    5  A    between atoms: C_16  and  C_21 
REMARK    6  A    between atoms: C_21  and  N_17 
ROOT
ATOM      1  C   UNL d   1      44.626  26.706  58.850  0.00  0.00     0.299 C 
ATOM      2  N   UNL d   1      44.530  25.993  58.455  0.00  0.00    -0.203 NA
ATOM      3  O   UNL d   1      44.863  26.709  59.659  0.00  0.00    -0.263 OA
ENDROOT
BRANCH   1   4
ATOM      4  C   UNL d   1      44.494  27.417  58.457  0.00  0.00     0.174 C 
BRANCH   4   5
ATOM      5  N   UNL d   1      45.026  28.053  58.558  0.00  0.00    -0.151 NA
BRANCH   5   6
ATOM      6  S   UNL d   1      44.916  28.757  58.129  0.00  0.00     0.291 S 
ATOM      7  O   UNL d   1      45.499  28.518  57.579  0.00  0.00    -0.198 OA
ATOM      8  O   UNL d   1      44.342  28.999  58.664  0.00  0.00    -0.198 OA
BRANCH   6   9
ATOM      9  C   UNL d   1      44.814  29.456  57.694  0.00  0.00     0.135 A 
ATOM     10  S   UNL d   1      44.816  30.194  58.013  0.00  0.00    -0.067 SA
ATOM     11  C   UNL d   1      44.696  30.744  57.389  0.00  0.00     0.065 A 
ATOM     12 BR   UNL d   1      44.658  31.579  57.466  0.00  0.00    -0.042 Br
ATOM     13  C   UNL d   1      44.622  30.327  56.700  0.00  0.00     0.015 A 
ATOM     14  C   UNL d   1      44.694  29.523  56.881  0.00  0.00     0.021 A 
ENDBRANCH   6   9
ENDBRANCH   5   6
ENDBRANCH   4   5
ENDBRANCH   1   4
BRANCH   2  15
ATOM     15  C   UNL d   1      44.665  25.271  58.854  0.00  0.00     0.129 C 
BRANCH  15  16
ATOM     16  C   UNL d   1      44.677  24.559  58.419  0.00  0.00     0.144 A 
ATOM     17  O   UNL d   1      45.038  23.893  58.710  0.00  0.00    -0.301 OA
ATOM     18  C   UNL d   1      45.041  23.205  58.272  0.00  0.00     0.123 A 
ATOM     19  C   UNL d   1      45.408  22.528  58.568  0.00  0.00     0.027 A 
ATOM     20  C   UNL d   1      44.680  23.179  57.533  0.00  0.00     0.123 A 
ATOM     21  C   UNL d   1      45.415  21.828  58.128  0.00  0.00     0.002 A 
ATOM     22  C   UNL d   1      45.052  21.805  57.390  0.00  0.00     0.002 A 
ATOM     23  C   UNL d   1      44.683  22.489  57.093  0.00  0.00     0.027 A 
ATOM     24  O   UNL d   1      44.314  23.848  57.235  0.00  0.00    -0.301 OA
ATOM     25  C   UNL d   1      44.315  24.536  57.680  0.00  0.00     0.149 A 
ENDBRANCH  15  16
ENDBRANCH   2  15
TORSDOF 6
ENDMDL
