MODEL 1
REMARK VINA RESULT:      62.3      0.000      0.000
REMARK  7 active torsions:
REMARK  status: ('A' for Active; 'I' for Inactive)
REMARK    1  A    between atoms: C_3  and  C_1 
REMARK    2  A    between atoms: C_9  and  N_2 
REMARK    3  A    between atoms: C_6  and  C_3 
REMARK    4  A    between atoms: C_8  and  C_3 
REMARK       I    between atoms: N_11  and  C_6 
REMARK    5  A    between atoms: C_26  and  C_7 
REMARK    6  A    between atoms: C_21  and  N_11 
REMARK    7  A    between atoms: C_12  and  C_21 
ROOT
ATOM      1  C   UNL d   1     -51.004  25.590  33.917  0.00  0.00     0.103 A 
ATOM      2  N   UNL d   1     -51.524  24.960  33.816  0.00  0.00    -0.269 N 
ATOM      3  S   UNL d   1     -50.243  25.324  33.739  0.00  0.00    -0.064 SA
ATOM      4  C   UNL d   1     -51.090  24.300  33.576  0.00  0.00     0.271 A 
ATOM      5  C   UNL d   1     -50.297  24.528  33.529  0.00  0.00     0.087 A 
ATOM      6  O   UNL d   1     -51.394  23.553  33.413  0.00  0.00    -0.266 OA
ENDROOT
BRANCH   1   7
ATOM      7  C   UNL d   1     -51.206  26.357  34.154  0.00  0.00     0.101 C 
BRANCH   7   8
ATOM      8  C   UNL d   1     -50.995  26.629  34.906  0.00  0.00     0.283 C 
ATOM      9  N   UNL d   1     -51.200  26.199  35.573  0.00  0.00    -0.204 NA
ATOM     10  O   UNL d   1     -50.576  27.340  34.982  0.00  0.00    -0.265 OA
BRANCH   9  11
ATOM     11  C   UNL d   1     -50.989  26.472  36.325  0.00  0.00     0.127 C 
BRANCH  11  12
ATOM     12  C   UNL d   1     -51.409  26.233  36.991  0.00  0.00     0.119 A 
ATOM     13  O   UNL d   1     -51.221  25.610  37.495  0.00  0.00    -0.304 OA
ATOM     14  C   UNL d   1     -51.795  25.574  38.088  0.00  0.00     0.123 A 
ATOM     15  C   UNL d   1     -52.338  26.175  37.950  0.00  0.00     0.029 A 
ATOM     16  C   UNL d   1     -52.104  26.584  37.275  0.00  0.00     0.028 A 
ENDBRANCH  11  12
ENDBRANCH   9  11
ENDBRANCH   7   8
BRANCH   7  17
ATOM     17  C   UNL d   1     -51.621  26.856  33.636  0.00  0.00     0.129 C 
ATOM     18  N   UNL d   1     -51.288  27.575  33.413  0.00  0.00    -0.146 N 
ENDBRANCH   7  17
ENDBRANCH   1   7
BRANCH   2  19
ATOM     19  C   UNL d   1     -52.225  24.523  33.793  0.00  0.00     0.068 A 
ATOM     20  C   UNL d   1     -52.859  24.784  33.350  0.00  0.00     0.020 A 
ATOM     21  C   UNL d   1     -53.555  24.350  33.328  0.00  0.00     0.031 A 
ATOM     22  C   UNL d   1     -53.612  23.643  33.758  0.00  0.00     0.140 A 
ATOM     23  C   UNL d   1     -52.970  23.383  34.205  0.00  0.00     0.031 A 
ATOM     24  F   UNL d   1     -54.306  23.202  33.741  0.00  0.00    -0.204 F 
ATOM     25  C   UNL d   1     -52.277  23.820  34.224  0.00  0.00     0.020 A 
ENDBRANCH   2  19
BRANCH   5  26
ATOM     26  C   UNL d   1     -49.671  24.037  33.308  0.00  0.00     0.011 C 
ATOM     27  C   UNL d   1     -48.912  24.192  33.576  0.00  0.00     0.001 C 
ENDBRANCH   5  26
TORSDOF 7
ENDMDL
