MODEL 1
REMARK VINA RESULT:      -7.3      0.000      0.000
REMARK  6 active torsions:
REMARK  status: ('A' for Active; 'I' for Inactive)
REMARK    1  A    between atoms: N_7  and  C_1 
REMARK    2  A    between atoms: C_6  and  C_4 
REMARK    3  A    between atoms: C_20  and  N_9 
REMARK    4  A    between atoms: C_23  and  C_13 
REMARK    5  A    between atoms: O_19  and  C_23 
REMARK    6  A    between atoms: C_21  and  O_19 
ROOT
ATOM      1  C   UNL d   1      50.733  34.663  53.318  0.00  0.00     0.198 A 
ATOM      2  C   UNL d   1      50.448  34.564  52.545  0.00  0.00     0.191 A 
ATOM      3  O   UNL d   1      50.167  35.053  53.761  0.00  0.00    -0.268 OA
ATOM      4  C   UNL d   1      49.539  35.199  53.285  0.00  0.00     0.208 A 
ATOM      5  N   UNL d   1      49.696  34.902  52.528  0.00  0.00    -0.206 NA
ATOM      6  C   UNL d   1      50.827  34.195  51.889  0.00  0.00     0.124 C 
ATOM      7  N   UNL d   1      51.211  33.827  51.240  0.00  0.00    -0.190 NA
ENDROOT
BRANCH   1   8
ATOM      8  N   UNL d   1      51.488  34.375  53.507  0.00  0.00    -0.280 N 
ATOM      9  C   UNL d   1      51.587  33.584  53.649  0.00  0.00     0.101 A 
ATOM     10  C   UNL d   1      52.338  33.298  53.838  0.00  0.00     0.100 A 
ATOM     11  N   UNL d   1      52.970  33.809  53.880  0.00  0.00    -0.301 N 
ATOM     12  C   UNL d   1      52.871  34.627  53.734  0.00  0.00     0.100 A 
ATOM     13  C   UNL d   1      52.121  34.914  53.545  0.00  0.00     0.101 A 
BRANCH  11  14
ATOM     14  C   UNL d   1      53.716  33.525  54.067  0.00  0.00     0.064 A 
ATOM     15  C   UNL d   1      54.092  33.792  54.734  0.00  0.00     0.018 A 
ATOM     16  C   UNL d   1      54.847  33.504  54.924  0.00  0.00     0.002 A 
ATOM     17  C   UNL d   1      55.197  32.959  54.439  0.00  0.00     0.000 A 
ATOM     18  C   UNL d   1      54.825  32.678  53.756  0.00  0.00     0.002 A 
ATOM     19  C   UNL d   1      54.070  32.966  53.566  0.00  0.00     0.018 A 
ENDBRANCH  11  14
ENDBRANCH   1   8
BRANCH   4  20
ATOM     20  C   UNL d   1      48.792  35.463  53.027  0.00  0.00     0.141 A 
ATOM     21  O   UNL d   1      48.179  35.473  52.484  0.00  0.00    -0.301 OA
ATOM     22  C   UNL d   1      47.614  35.980  52.782  0.00  0.00     0.125 A 
ATOM     23  C   UNL d   1      47.832  36.290  53.481  0.00  0.00     0.029 A 
ATOM     24  C   UNL d   1      48.568  35.976  53.648  0.00  0.00     0.030 A 
BRANCH  22  25
ATOM     25  C   UNL d   1      46.888  36.171  52.425  0.00  0.00     0.147 C 
BRANCH  25  26
ATOM     26  O   UNL d   1      46.271  35.627  52.350  0.00  0.00    -0.303 OA
BRANCH  26  27
ATOM     27  C   UNL d   1      45.666  35.752  51.841  0.00  0.00     0.100 A 
ATOM     28  C   UNL d   1      44.945  35.366  51.937  0.00  0.00     0.023 A 
ATOM     29  C   UNL d   1      44.835  34.823  52.588  0.00  0.00     0.002 C 
ATOM     30  C   UNL d   1      44.317  35.476  51.434  0.00  0.00     0.002 A 
ATOM     31  C   UNL d   1      44.412  36.003  50.796  0.00  0.00     0.000 A 
ATOM     32  C   UNL d   1      45.123  36.399  50.682  0.00  0.00     0.002 A 
ATOM     33  C   UNL d   1      45.737  36.264  51.209  0.00  0.00     0.025 A 
ENDBRANCH  26  27
ENDBRANCH  25  26
ENDBRANCH  22  25
ENDBRANCH   4  20
TORSDOF 6
ENDMDL
MODEL 2
REMARK VINA RESULT:      -6.9      1.311      7.346
REMARK  6 active torsions:
REMARK  status: ('A' for Active; 'I' for Inactive)
REMARK    1  A    between atoms: N_7  and  C_1 
REMARK    2  A    between atoms: C_6  and  C_4 
REMARK    3  A    between atoms: C_20  and  N_9 
REMARK    4  A    between atoms: C_23  and  C_13 
REMARK    5  A    between atoms: O_19  and  C_23 
REMARK    6  A    between atoms: C_21  and  O_19 
ROOT
ATOM      1  C   UNL d   1      48.883  35.202  52.481  0.00  0.00     0.198 A 
ATOM      2  C   UNL d   1      49.180  35.471  53.208  0.00  0.00     0.191 A 
ATOM      3  O   UNL d   1      49.458  34.753  52.111  0.00  0.00    -0.268 OA
ATOM      4  C   UNL d   1      50.103  34.736  52.586  0.00  0.00     0.208 A 
ATOM      5  N   UNL d   1      49.947  35.176  53.271  0.00  0.00    -0.206 NA
ATOM      6  C   UNL d   1      48.797  35.950  53.785  0.00  0.00     0.124 C 
ATOM      7  N   UNL d   1      48.410  36.428  54.356  0.00  0.00    -0.190 NA
ENDROOT
BRANCH   1   8
ATOM      8  N   UNL d   1      48.111  35.412  52.260  0.00  0.00    -0.280 N 
ATOM      9  C   UNL d   1      47.486  34.991  52.552  0.00  0.00     0.101 A 
ATOM     10  C   UNL d   1      46.719  35.200  52.332  0.00  0.00     0.100 A 
ATOM     11  N   UNL d   1      46.597  35.825  51.825  0.00  0.00    -0.301 N 
ATOM     12  C   UNL d   1      47.241  36.263  51.520  0.00  0.00     0.100 A 
ATOM     13  C   UNL d   1      48.008  36.054  51.740  0.00  0.00     0.101 A 
BRANCH  11  14
ATOM     14  C   UNL d   1      45.834  36.032  51.606  0.00  0.00     0.064 A 
ATOM     15  C   UNL d   1      45.538  35.780  50.894  0.00  0.00     0.018 A 
ATOM     16  C   UNL d   1      44.766  35.991  50.672  0.00  0.00     0.002 A 
ATOM     17  C   UNL d   1      44.319  36.445  51.171  0.00  0.00     0.000 A 
ATOM     18  C   UNL d   1      44.609  36.709  51.900  0.00  0.00     0.002 A 
ATOM     19  C   UNL d   1      45.381  36.499  52.121  0.00  0.00     0.018 A 
ENDBRANCH  11  14
ENDBRANCH   1   8
BRANCH   4  20
ATOM     20  C   UNL d   1      50.867  34.563  52.870  0.00  0.00     0.141 A 
ATOM     21  O   UNL d   1      51.518  34.734  53.336  0.00  0.00    -0.301 OA
ATOM     22  C   UNL d   1      52.059  34.138  53.204  0.00  0.00     0.125 A 
ATOM     23  C   UNL d   1      51.790  33.602  52.683  0.00  0.00     0.029 A 
ATOM     24  C   UNL d   1      51.044  33.854  52.465  0.00  0.00     0.030 A 
BRANCH  22  25
ATOM     25  C   UNL d   1      52.810  34.070  53.555  0.00  0.00     0.147 C 
BRANCH  25  26
ATOM     26  O   UNL d   1      52.954  33.592  54.212  0.00  0.00    -0.303 OA
BRANCH  26  27
ATOM     27  C   UNL d   1      53.656  33.612  54.596  0.00  0.00     0.100 A 
ATOM     28  C   UNL d   1      54.039  32.918  54.816  0.00  0.00     0.023 A 
ATOM     29  C   UNL d   1      53.686  32.160  54.635  0.00  0.00     0.002 C 
ATOM     30  C   UNL d   1      54.751  32.912  55.206  0.00  0.00     0.002 A 
ATOM     31  C   UNL d   1      55.104  33.644  55.388  0.00  0.00     0.000 A 
ATOM     32  C   UNL d   1      54.740  34.350  55.177  0.00  0.00     0.002 A 
ATOM     33  C   UNL d   1      54.021  34.318  54.784  0.00  0.00     0.025 A 
ENDBRANCH  26  27
ENDBRANCH  25  26
ENDBRANCH  22  25
ENDBRANCH   4  20
TORSDOF 6
ENDMDL
MODEL 3
REMARK VINA RESULT:      -4.7      1.053      1.434
REMARK  6 active torsions:
REMARK  status: ('A' for Active; 'I' for Inactive)
REMARK    1  A    between atoms: N_7  and  C_1 
REMARK    2  A    between atoms: C_6  and  C_4 
REMARK    3  A    between atoms: C_20  and  N_9 
REMARK    4  A    between atoms: C_23  and  C_13 
REMARK    5  A    between atoms: O_19  and  C_23 
REMARK    6  A    between atoms: C_21  and  O_19 
ROOT
ATOM      1  C   UNL d   1      50.791  34.246  52.696  0.00  0.00     0.198 A 
ATOM      2  C   UNL d   1      50.363  34.834  53.095  0.00  0.00     0.191 A 
ATOM      3  O   UNL d   1      50.356  33.995  52.051  0.00  0.00    -0.268 OA
ATOM      4  C   UNL d   1      49.670  34.410  52.039  0.00  0.00     0.208 A 
ATOM      5  N   UNL d   1      49.659  34.935  52.679  0.00  0.00    -0.206 NA
ATOM      6  C   UNL d   1      50.580  35.260  53.789  0.00  0.00     0.124 C 
ATOM      7  N   UNL d   1      50.803  35.681  54.480  0.00  0.00    -0.190 NA
ENDROOT
BRANCH   1   8
ATOM      8  N   UNL d   1      51.534  34.021  52.988  0.00  0.00    -0.280 N 
ATOM      9  C   UNL d   1      51.604  33.333  53.409  0.00  0.00     0.101 A 
ATOM     10  C   UNL d   1      52.343  33.110  53.700  0.00  0.00     0.100 A 
ATOM     11  N   UNL d   1      52.994  33.579  53.562  0.00  0.00    -0.301 N 
ATOM     12  C   UNL d   1      52.926  34.290  53.127  0.00  0.00     0.100 A 
ATOM     13  C   UNL d   1      52.187  34.514  52.836  0.00  0.00     0.101 A 
BRANCH  11  14
ATOM     14  C   UNL d   1      53.728  33.357  53.851  0.00  0.00     0.064 A 
ATOM     15  C   UNL d   1      53.970  33.619  54.579  0.00  0.00     0.018 A 
ATOM     16  C   UNL d   1      54.713  33.394  54.872  0.00  0.00     0.002 A 
ATOM     17  C   UNL d   1      55.187  32.915  54.424  0.00  0.00     0.000 A 
ATOM     18  C   UNL d   1      54.954  32.640  53.680  0.00  0.00     0.002 A 
ATOM     19  C   UNL d   1      54.210  32.865  53.387  0.00  0.00     0.018 A 
ENDBRANCH  11  14
ENDBRANCH   1   8
BRANCH   4  20
ATOM     20  C   UNL d   1      48.920  34.683  51.801  0.00  0.00     0.141 A 
ATOM     21  O   UNL d   1      48.207  35.056  51.953  0.00  0.00    -0.301 OA
ATOM     22  C   UNL d   1      47.784  35.042  51.255  0.00  0.00     0.125 A 
ATOM     23  C   UNL d   1      48.187  34.683  50.671  0.00  0.00     0.029 A 
ATOM     24  C   UNL d   1      48.900  34.453  50.997  0.00  0.00     0.030 A 
BRANCH  22  25
ATOM     25  C   UNL d   1      47.024  35.355  51.135  0.00  0.00     0.147 C 
BRANCH  25  26
ATOM     26  O   UNL d   1      46.691  35.922  51.634  0.00  0.00    -0.303 OA
BRANCH  26  27
ATOM     27  C   UNL d   1      45.915  36.112  51.589  0.00  0.00     0.100 A 
ATOM     28  C   UNL d   1      45.537  36.502  52.208  0.00  0.00     0.023 A 
ATOM     29  C   UNL d   1      45.975  36.709  52.912  0.00  0.00     0.002 C 
ATOM     30  C   UNL d   1      44.751  36.705  52.186  0.00  0.00     0.002 A 
ATOM     31  C   UNL d   1      44.314  36.508  51.505  0.00  0.00     0.000 A 
ATOM     32  C   UNL d   1      44.671  36.119  50.875  0.00  0.00     0.002 A 
ATOM     33  C   UNL d   1      45.467  35.929  50.931  0.00  0.00     0.025 A 
ENDBRANCH  26  27
ENDBRANCH  25  26
ENDBRANCH  22  25
ENDBRANCH   4  20
TORSDOF 6
ENDMDL
MODEL 4
REMARK VINA RESULT:      -4.4     10.195     11.588
REMARK  6 active torsions:
REMARK  status: ('A' for Active; 'I' for Inactive)
REMARK    1  A    between atoms: N_7  and  C_1 
REMARK    2  A    between atoms: C_6  and  C_4 
REMARK    3  A    between atoms: C_20  and  N_9 
REMARK    4  A    between atoms: C_23  and  C_13 
REMARK    5  A    between atoms: O_19  and  C_23 
REMARK    6  A    between atoms: C_21  and  O_19 
ROOT
ATOM      1  C   UNL d   1      44.618  26.956  57.196  0.00  0.00     0.198 A 
ATOM      2  C   UNL d   1      44.499  27.194  56.410  0.00  0.00     0.191 A 
ATOM      3  O   UNL d   1      44.676  26.140  57.219  0.00  0.00    -0.268 OA
ATOM      4  C   UNL d   1      44.597  25.866  56.470  0.00  0.00     0.208 A 
ATOM      5  N   UNL d   1      44.486  26.506  55.956  0.00  0.00    -0.206 NA
ATOM      6  C   UNL d   1      44.407  27.975  56.107  0.00  0.00     0.124 C 
ATOM      7  N   UNL d   1      44.316  28.755  55.813  0.00  0.00    -0.190 NA
ENDROOT
BRANCH   1   8
ATOM      8  N   UNL d   1      44.657  27.534  57.790  0.00  0.00    -0.280 N 
ATOM      9  C   UNL d   1      45.022  28.239  57.634  0.00  0.00     0.101 A 
ATOM     10  C   UNL d   1      45.060  28.814  58.225  0.00  0.00     0.100 A 
ATOM     11  N   UNL d   1      44.733  28.669  58.956  0.00  0.00    -0.301 N 
ATOM     12  C   UNL d   1      44.355  27.941  59.120  0.00  0.00     0.100 A 
ATOM     13  C   UNL d   1      44.316  27.366  58.530  0.00  0.00     0.101 A 
BRANCH  11  14
ATOM     14  C   UNL d   1      44.771  29.241  59.543  0.00  0.00     0.064 A 
ATOM     15  C   UNL d   1      45.106  29.962  59.380  0.00  0.00     0.018 A 
ATOM     16  C   UNL d   1      45.144  30.540  59.974  0.00  0.00     0.002 A 
ATOM     17  C   UNL d   1      44.847  30.376  60.708  0.00  0.00     0.000 A 
ATOM     18  C   UNL d   1      44.503  29.645  60.888  0.00  0.00     0.002 A 
ATOM     19  C   UNL d   1      44.465  29.066  60.294  0.00  0.00     0.018 A 
ENDBRANCH  11  14
ENDBRANCH   1   8
BRANCH   4  20
ATOM     20  C   UNL d   1      44.548  25.340  55.826  0.00  0.00     0.141 A 
ATOM     21  O   UNL d   1      44.416  25.180  55.033  0.00  0.00    -0.301 OA
ATOM     22  C   UNL d   1      44.516  24.376  54.939  0.00  0.00     0.125 A 
ATOM     23  C   UNL d   1      44.704  24.018  55.623  0.00  0.00     0.029 A 
ATOM     24  C   UNL d   1      44.728  24.608  56.188  0.00  0.00     0.030 A 
BRANCH  22  25
ATOM     25  C   UNL d   1      44.439  23.952  54.228  0.00  0.00     0.147 C 
BRANCH  25  26
ATOM     26  O   UNL d   1      45.089  23.665  53.807  0.00  0.00    -0.303 OA
BRANCH  26  27
ATOM     27  C   UNL d   1      45.049  23.534  53.019  0.00  0.00     0.100 A 
ATOM     28  C   UNL d   1      45.515  22.958  52.661  0.00  0.00     0.023 A 
ATOM     29  C   UNL d   1      46.053  22.490  53.133  0.00  0.00     0.002 C 
ATOM     30  C   UNL d   1      45.492  22.806  51.863  0.00  0.00     0.002 A 
ATOM     31  C   UNL d   1      44.972  23.255  51.393  0.00  0.00     0.000 A 
ATOM     32  C   UNL d   1      44.497  23.835  51.729  0.00  0.00     0.002 A 
ATOM     33  C   UNL d   1      44.546  23.962  52.538  0.00  0.00     0.025 A 
ENDBRANCH  26  27
ENDBRANCH  25  26
ENDBRANCH  22  25
ENDBRANCH   4  20
TORSDOF 6
ENDMDL
