MODEL 1
REMARK VINA RESULT:      34.5      0.000      0.000
REMARK  4 active torsions:
REMARK  status: ('A' for Active; 'I' for Inactive)
REMARK    1  A    between atoms: N_2  and  S_1 
REMARK    2  A    between atoms: C_3  and  S_1 
REMARK    3  A    between atoms: C_5  and  N_4 
REMARK    4  A    between atoms: O_16  and  C_13 
ROOT
ATOM      1  N   UNL d   1      13.259  12.450  -4.052  0.00  0.00    -0.226 N 
ATOM      2  N   UNL d   1      13.642  12.253  -2.464  0.00  0.00    -0.300 N 
ATOM      3  C   UNL d   1      13.853  11.914  -3.832  0.00  0.00     0.111 A 
ATOM      4  C   UNL d   1      12.859  12.886  -3.479  0.00  0.00     0.111 A 
ATOM      5  C   UNL d   1      14.047  11.814  -3.033  0.00  0.00     0.100 A 
ATOM      6  C   UNL d   1      13.053  12.786  -2.680  0.00  0.00     0.100 A 
ENDROOT
BRANCH   1   7
ATOM      7  S   UNL d   1      13.075  12.542  -4.836  0.00  0.00     0.272 S 
ATOM      8  O   UNL d   1      12.891  12.635  -5.617  0.00  0.00    -0.200 OA
ATOM      9  O   UNL d   1      12.806  11.781  -4.863  0.00  0.00    -0.200 OA
BRANCH   7  10
ATOM     10  C   UNL d   1      13.346  13.312  -4.809  0.00  0.00     0.106 A 
ATOM     11  C   UNL d   1      12.918  13.881  -4.393  0.00  0.00     0.043 A 
ATOM     12  C   UNL d   1      13.192  14.658  -4.366  0.00  0.00     0.141 A 
ATOM     13  F   UNL d   1      12.773  15.224  -3.957  0.00  0.00    -0.204 F 
ATOM     14  C   UNL d   1      13.891  14.857  -4.755  0.00  0.00     0.030 A 
ATOM     15  C   UNL d   1      14.304  14.293  -5.159  0.00  0.00     0.003 A 
ATOM     16  C   UNL d   1      14.030  13.516  -5.186  0.00  0.00     0.013 A 
ENDBRANCH   7  10
ENDBRANCH   1   7
BRANCH   2  17
ATOM     17  C   UNL d   1      13.829  12.160  -1.671  0.00  0.00     0.086 A 
ATOM     18  C   UNL d   1      14.586  12.351  -1.405  0.00  0.00     0.110 A 
ATOM     19  C   UNL d   1      14.775  12.256  -0.604  0.00  0.00     0.026 A 
ATOM     20  C   UNL d   1      14.207  11.970  -0.069  0.00  0.00     0.002 A 
ATOM     21  C   UNL d   1      13.448  11.780  -0.340  0.00  0.00     0.002 A 
ATOM     22  C   UNL d   1      13.260  11.874  -1.140  0.00  0.00     0.019 A 
BRANCH  18  23
ATOM     23  O   UNL d   1      15.145  12.632  -1.929  0.00  0.00    -0.327 OA
ATOM     24  C   UNL d   1      15.811  12.621  -1.750  0.00  0.00     0.181 C 
ENDBRANCH  18  23
ENDBRANCH   2  17
TORSDOF 4
ENDMDL
MODEL 2
REMARK VINA RESULT:      34.9      1.491      2.045
REMARK  4 active torsions:
REMARK  status: ('A' for Active; 'I' for Inactive)
REMARK    1  A    between atoms: N_2  and  S_1 
REMARK    2  A    between atoms: C_3  and  S_1 
REMARK    3  A    between atoms: C_5  and  N_4 
REMARK    4  A    between atoms: O_16  and  C_13 
ROOT
ATOM      1  N   UNL d   1      13.504  13.553  -3.448  0.00  0.00    -0.226 N 
ATOM      2  N   UNL d   1      14.229  12.862  -2.143  0.00  0.00    -0.300 N 
ATOM      3  C   UNL d   1      13.946  14.020  -2.924  0.00  0.00     0.111 A 
ATOM      4  C   UNL d   1      13.425  12.743  -3.319  0.00  0.00     0.111 A 
ATOM      5  C   UNL d   1      14.311  13.674  -2.267  0.00  0.00     0.100 A 
ATOM      6  C   UNL d   1      13.791  12.397  -2.661  0.00  0.00     0.100 A 
ENDROOT
BRANCH   1   7
ATOM      7  S   UNL d   1      13.148  13.899  -4.089  0.00  0.00     0.272 S 
ATOM      8  O   UNL d   1      12.794  14.243  -4.729  0.00  0.00    -0.200 OA
ATOM      9  O   UNL d   1      13.094  14.596  -3.684  0.00  0.00    -0.200 OA
BRANCH   7  10
ATOM     10  C   UNL d   1      13.203  13.195  -4.499  0.00  0.00     0.106 A 
ATOM     11  C   UNL d   1      13.705  13.141  -5.151  0.00  0.00     0.043 A 
ATOM     12  C   UNL d   1      13.760  12.430  -5.565  0.00  0.00     0.141 A 
ATOM     13  F   UNL d   1      14.254  12.371  -6.210  0.00  0.00    -0.204 F 
ATOM     14  C   UNL d   1      13.313  11.781  -5.322  0.00  0.00     0.030 A 
ATOM     15  C   UNL d   1      12.824  11.844  -4.682  0.00  0.00     0.003 A 
ATOM     16  C   UNL d   1      12.769  12.554  -4.268  0.00  0.00     0.013 A 
ENDBRANCH   7  10
ENDBRANCH   1   7
BRANCH   2  17
ATOM     17  C   UNL d   1      14.588  12.513  -1.494  0.00  0.00     0.086 A 
ATOM     18  C   UNL d   1      14.217  12.541  -0.758  0.00  0.00     0.110 A 
ATOM     19  C   UNL d   1      14.580  12.188  -0.102  0.00  0.00     0.026 A 
ATOM     20  C   UNL d   1      15.315  11.806  -0.183  0.00  0.00     0.002 A 
ATOM     21  C   UNL d   1      15.683  11.780  -0.923  0.00  0.00     0.002 A 
ATOM     22  C   UNL d   1      15.320  12.133  -1.578  0.00  0.00     0.019 A 
BRANCH  18  23
ATOM     23  O   UNL d   1      13.496  12.916  -0.677  0.00  0.00    -0.327 OA
ATOM     24  C   UNL d   1      13.324  13.185  -0.066  0.00  0.00     0.181 C 
ENDBRANCH  18  23
ENDBRANCH   2  17
TORSDOF 4
ENDMDL
