MODEL 1
REMARK VINA RESULT:       0.9      0.000      0.000
REMARK  5 active torsions:
REMARK  status: ('A' for Active; 'I' for Inactive)
REMARK    1  A    between atoms: C_12  and  S_1 
REMARK    2  A    between atoms: N_13  and  S_1 
REMARK    3  A    between atoms: C_2  and  N_6 
REMARK    4  A    between atoms: C_5  and  C_3 
REMARK       I    between atoms: N_6  and  C_8 
REMARK    5  A    between atoms: C_8  and  C_18 
ROOT
ATOM      1  N   UNL d   1     -41.810-122.731 -52.185  0.00  0.00    -0.183 NA
ATOM      2  C   UNL d   1     -41.539-123.102 -52.864  0.00  0.00     0.281 C 
ATOM      3  O   UNL d   1     -41.123-123.817 -52.801  0.00  0.00    -0.265 OA
ENDROOT
BRANCH   1   4
ATOM      4  C   UNL d   1     -41.672-123.060 -51.447  0.00  0.00     0.197 A 
ATOM      5  N   UNL d   1     -42.057-122.861 -50.747  0.00  0.00    -0.218 NA
ATOM      6  C   UNL d   1     -41.744-123.328 -50.142  0.00  0.00     0.113 A 
ATOM      7  C   UNL d   1     -41.164-123.817 -50.468  0.00  0.00     0.059 A 
ATOM      8  S   UNL d   1     -41.123-123.650 -51.271  0.00  0.00    -0.046 SA
BRANCH   6   9
ATOM      9  C   UNL d   1     -41.970-123.310 -49.352  0.00  0.00     0.118 A 
ATOM     10  O   UNL d   1     -41.673-122.900 -48.751  0.00  0.00    -0.306 OA
ATOM     11  C   UNL d   1     -42.020-123.008 -48.051  0.00  0.00     0.100 A 
ATOM     12  C   UNL d   1     -41.922-122.722 -47.280  0.00  0.00     0.025 A 
ATOM     13  C   UNL d   1     -42.625-123.562 -48.212  0.00  0.00     0.025 A 
ATOM     14  C   UNL d   1     -42.417-122.979 -46.676  0.00  0.00     0.002 A 
ATOM     15  C   UNL d   1     -43.025-123.533 -46.826  0.00  0.00     0.000 A 
ATOM     16  C   UNL d   1     -43.120-123.817 -47.598  0.00  0.00     0.002 A 
ATOM     17  C   UNL d   1     -42.588-123.743 -49.015  0.00  0.00     0.028 A 
ENDBRANCH   6   9
ENDBRANCH   1   4
BRANCH   2  18
ATOM     18  C   UNL d   1     -41.678-122.772 -53.607  0.00  0.00     0.058 A 
ATOM     19  C   UNL d   1     -41.279-123.061 -54.269  0.00  0.00     0.005 A 
ATOM     20  C   UNL d   1     -41.419-122.731 -55.002  0.00  0.00     0.013 A 
ATOM     21  C   UNL d   1     -41.963-122.105 -55.085  0.00  0.00     0.104 A 
ATOM     22  C   UNL d   1     -42.358-121.824 -54.414  0.00  0.00     0.013 A 
ATOM     23  C   UNL d   1     -42.215-122.155 -53.683  0.00  0.00     0.005 A 
BRANCH  21  24
ATOM     24  S   UNL d   1     -42.104-121.772 -55.830  0.00  0.00     0.271 S 
ATOM     25  O   UNL d   1     -42.906-121.917 -55.739  0.00  0.00    -0.200 OA
ATOM     26  O   UNL d   1     -41.296-121.626 -55.921  0.00  0.00    -0.200 OA
BRANCH  24  27
ATOM     27  N   UNL d   1     -42.245-121.441 -56.570  0.00  0.00    -0.226 N 
ATOM     28  C   UNL d   1     -41.692-120.932 -56.901  0.00  0.00     0.111 C 
ATOM     29  C   UNL d   1     -42.934-121.619 -56.975  0.00  0.00     0.111 C 
ENDBRANCH  24  27
ENDBRANCH  21  24
ENDBRANCH   2  18
TORSDOF 5
ENDMDL
MODEL 2
REMARK VINA RESULT:       2.0      1.340      6.672
REMARK  5 active torsions:
REMARK  status: ('A' for Active; 'I' for Inactive)
REMARK    1  A    between atoms: C_12  and  S_1 
REMARK    2  A    between atoms: N_13  and  S_1 
REMARK    3  A    between atoms: C_2  and  N_6 
REMARK    4  A    between atoms: C_5  and  C_3 
REMARK       I    between atoms: N_6  and  C_8 
REMARK    5  A    between atoms: C_8  and  C_18 
ROOT
ATOM      1  N   UNL d   1     -41.396-123.073 -51.633  0.00  0.00    -0.183 NA
ATOM      2  C   UNL d   1     -42.002-123.394 -51.184  0.00  0.00     0.281 C 
ATOM      3  O   UNL d   1     -42.614-123.809 -51.561  0.00  0.00    -0.265 OA
ENDROOT
BRANCH   1   4
ATOM      4  C   UNL d   1     -41.390-123.159 -52.447  0.00  0.00     0.197 A 
ATOM      5  N   UNL d   1     -41.650-122.603 -52.997  0.00  0.00    -0.218 NA
ATOM      6  C   UNL d   1     -41.542-122.921 -53.751  0.00  0.00     0.113 A 
ATOM      7  C   UNL d   1     -41.215-123.674 -53.670  0.00  0.00     0.059 A 
ATOM      8  S   UNL d   1     -41.122-123.817 -52.866  0.00  0.00    -0.046 SA
BRANCH   6   9
ATOM      9  C   UNL d   1     -41.727-122.551 -54.462  0.00  0.00     0.118 A 
ATOM     10  O   UNL d   1     -41.292-122.079 -54.914  0.00  0.00    -0.306 OA
ATOM     11  C   UNL d   1     -41.638-121.811 -55.571  0.00  0.00     0.100 A 
ATOM     12  C   UNL d   1     -41.428-121.321 -56.205  0.00  0.00     0.025 A 
ATOM     13  C   UNL d   1     -42.401-122.151 -55.548  0.00  0.00     0.025 A 
ATOM     14  C   UNL d   1     -41.965-121.169 -56.808  0.00  0.00     0.002 A 
ATOM     15  C   UNL d   1     -42.731-121.505 -56.794  0.00  0.00     0.000 A 
ATOM     16  C   UNL d   1     -42.938-121.994 -56.159  0.00  0.00     0.002 A 
ATOM     17  C   UNL d   1     -42.449-122.605 -54.862  0.00  0.00     0.028 A 
ENDBRANCH   6   9
ENDBRANCH   1   4
BRANCH   2  18
ATOM     18  C   UNL d   1     -42.010-123.307 -50.363  0.00  0.00     0.058 A 
ATOM     19  C   UNL d   1     -42.589-122.845 -50.002  0.00  0.00     0.005 A 
ATOM     20  C   UNL d   1     -42.592-122.763 -49.189  0.00  0.00     0.013 A 
ATOM     21  C   UNL d   1     -42.013-123.143 -48.726  0.00  0.00     0.104 A 
ATOM     22  C   UNL d   1     -41.437-123.604 -49.101  0.00  0.00     0.013 A 
ATOM     23  C   UNL d   1     -41.437-123.684 -49.911  0.00  0.00     0.005 A 
BRANCH  21  24
ATOM     24  S   UNL d   1     -42.019-123.057 -47.902  0.00  0.00     0.271 S 
ATOM     25  O   UNL d   1     -41.265-123.380 -47.868  0.00  0.00    -0.200 OA
ATOM     26  O   UNL d   1     -42.777-122.733 -47.937  0.00  0.00    -0.200 OA
BRANCH  24  27
ATOM     27  N   UNL d   1     -42.023-122.973 -47.084  0.00  0.00    -0.226 N 
ATOM     28  C   UNL d   1     -42.735-122.986 -46.676  0.00  0.00     0.111 C 
ATOM     29  C   UNL d   1     -41.318-122.876 -46.677  0.00  0.00     0.111 C 
ENDBRANCH  24  27
ENDBRANCH  21  24
ENDBRANCH   2  18
TORSDOF 5
ENDMDL
