MODEL 1
REMARK VINA RESULT:     144.1      0.000      0.000
REMARK  2 active torsions:
REMARK  status: ('A' for Active; 'I' for Inactive)
REMARK    1  A    between atoms: C_6  and  C_1 
REMARK       I    between atoms: N_10  and  C_6 
REMARK    2  A    between atoms: C_12  and  N_10 
ROOT
ATOM      1  C   UNL d   1      61.800  45.507  50.049  0.00  0.00     0.108 A 
ATOM      2  C   UNL d   1      61.515  46.801  50.036  0.00  0.00     0.044 A 
ATOM      3  C   UNL d   1      61.194  46.468  50.727  0.00  0.00     0.112 A 
ATOM      4  S   UNL d   1      61.378  45.664  50.724  0.00  0.00    -0.061 SA
ATOM      5  C   UNL d   1      61.893  46.199  49.615  0.00  0.00     0.116 A 
ATOM      6  N   UNL d   1      60.779  46.956  51.258  0.00  0.00    -0.239 NA
ATOM      7  C   UNL d   1      61.005  48.085  50.419  0.00  0.00     0.056 A 
ATOM      8  C   UNL d   1      60.685  47.752  51.109  0.00  0.00     0.081 A 
ATOM      9  C   UNL d   1      61.416  47.616  49.888  0.00  0.00     0.008 A 
ATOM     10  C   UNL d   1      60.913  48.883  50.265  0.00  0.00     0.193 A 
ATOM     11  C   UNL d   1      60.174  49.036  51.492  0.00  0.00     0.042 A 
ATOM     12  C   UNL d   1      60.276  48.222  51.635  0.00  0.00    -0.003 A 
ATOM     13  C   UNL d   1      60.495  49.369  50.801  0.00  0.00     0.019 A 
ATOM     14  O   UNL d   1      61.236  49.219  49.569  0.00  0.00    -0.287 OA
ATOM     15  N   UNL d   1      62.297  46.279  48.879  0.00  0.00    -0.147 N 
ATOM     16  C   UNL d   1      59.760  49.110  52.186  0.00  0.00     0.009 C 
ATOM     17  C   UNL d   1      59.832  49.708  51.823  0.00  0.00     0.009 C 
ENDROOT
BRANCH   1  18
ATOM     18  C   UNL d   1      62.086  44.760  49.845  0.00  0.00     0.287 C 
ATOM     19  N   UNL d   1      61.832  44.080  50.246  0.00  0.00    -0.208 NA
ATOM     20  O   UNL d   1      62.629  44.698  49.236  0.00  0.00    -0.265 OA
BRANCH  19  21
ATOM     21  C   UNL d   1      62.116  43.339  50.044  0.00  0.00     0.085 A 
ATOM     22  C   UNL d   1      62.628  42.925  50.540  0.00  0.00     0.018 A 
ATOM     23  C   UNL d   1      62.909  42.191  50.340  0.00  0.00     0.002 A 
ATOM     24  C   UNL d   1      62.869  43.257  51.268  0.00  0.00     0.002 C 
ATOM     25  C   UNL d   1      62.664  41.860  49.606  0.00  0.00     0.000 A 
ATOM     26  C   UNL d   1      62.156  42.274  49.115  0.00  0.00     0.002 A 
ATOM     27  C   UNL d   1      62.924  41.117  49.359  0.00  0.00     0.000 C 
ATOM     28  C   UNL d   1      61.885  43.007  49.332  0.00  0.00     0.018 A 
ATOM     29  C   UNL d   1      61.362  43.434  48.829  0.00  0.00     0.002 C 
ENDBRANCH  19  21
ENDBRANCH   1  18
TORSDOF 2
ENDMDL
