MODEL 1
REMARK VINA RESULT:      -6.4      0.000      0.000
REMARK  5 active torsions:
REMARK  status: ('A' for Active; 'I' for Inactive)
REMARK    1  A    between atoms: N_2  and  S_1 
REMARK    2  A    between atoms: C_9  and  S_1 
REMARK    3  A    between atoms: C_8  and  N_2 
REMARK       I    between atoms: C_14  and  N_2 
REMARK    4  A    between atoms: C_17  and  C_3 
REMARK    5  A    between atoms: N_6  and  C_5 
ROOT
ATOM      1  N   UNL d   1     -47.564  12.452  22.710  0.00  0.00    -0.198 N 
ATOM      2  C   UNL d   1     -47.597  11.847  23.288  0.00  0.00     0.274 C 
ATOM      3  O   UNL d   1     -48.323  11.478  23.461  0.00  0.00    -0.266 OA
ATOM      4  C   UNL d   1     -46.918  11.605  23.698  0.00  0.00     0.067 C 
ENDROOT
BRANCH   1   5
ATOM      5  S   UNL d   1     -46.816  12.814  22.551  0.00  0.00     0.274 S 
ATOM      6  O   UNL d   1     -46.871  12.553  21.775  0.00  0.00    -0.200 OA
ATOM      7  O   UNL d   1     -46.766  13.080  23.355  0.00  0.00    -0.200 OA
BRANCH   5   8
ATOM      8  C   UNL d   1     -46.090  13.159  22.376  0.00  0.00     0.106 A 
ATOM      9  C   UNL d   1     -45.473  12.714  22.119  0.00  0.00     0.037 A 
ATOM     10  C   UNL d   1     -44.731  13.037  21.937  0.00  0.00     0.138 A 
ATOM     11  C   UNL d   1     -44.648  13.906  22.039  0.00  0.00     0.080 A 
ATOM     12  C   UNL d   1     -45.292  14.347  22.305  0.00  0.00     0.014 A 
ATOM     13 CL   UNL d   1     -43.930  14.297  21.874  0.00  0.00    -0.081 Cl
ATOM     14  C   UNL d   1     -45.997  13.974  22.468  0.00  0.00     0.014 A 
BRANCH  10  15
ATOM     15  N   UNL d   1     -44.098  12.569  21.671  0.00  0.00    -0.113 N 
ATOM     16  O   UNL d   1     -43.967  12.542  20.846  0.00  0.00    -0.532 OA
ATOM     17  O   UNL d   1     -43.620  12.152  22.168  0.00  0.00    -0.532 OA
ENDBRANCH  10  15
ENDBRANCH   5   8
ENDBRANCH   1   5
BRANCH   1  18
ATOM     18  C   UNL d   1     -48.242  12.684  22.311  0.00  0.00     0.078 A 
ATOM     19  C   UNL d   1     -48.638  13.317  22.562  0.00  0.00     0.021 A 
ATOM     20  C   UNL d   1     -49.332  13.578  22.177  0.00  0.00     0.029 A 
ATOM     21  C   UNL d   1     -49.832  14.199  22.320  0.00  0.00     0.064 A 
ATOM     22  C   UNL d   1     -49.617  13.173  21.522  0.00  0.00     0.100 A 
ATOM     23  C   UNL d   1     -50.427  14.188  21.762  0.00  0.00     0.103 A 
ATOM     24  C   UNL d   1     -51.064  14.703  21.676  0.00  0.00     0.027 C 
ATOM     25  O   UNL d   1     -50.291  13.548  21.266  0.00  0.00    -0.307 OA
ATOM     26  C   UNL d   1     -49.217  12.495  21.232  0.00  0.00     0.026 A 
ATOM     27  C   UNL d   1     -48.543  12.257  21.620  0.00  0.00     0.020 A 
BRANCH  21  28
ATOM     28  C   UNL d   1     -49.759  14.764  22.934  0.00  0.00     0.198 C 
ATOM     29  O   UNL d   1     -49.993  14.600  23.698  0.00  0.00    -0.286 OA
ATOM     30  C   UNL d   1     -49.429  15.521  22.740  0.00  0.00     0.045 C 
ENDBRANCH  21  28
ENDBRANCH   1  18
TORSDOF 5
ENDMDL
MODEL 2
REMARK VINA RESULT:      -6.3      6.908      8.982
REMARK  5 active torsions:
REMARK  status: ('A' for Active; 'I' for Inactive)
REMARK    1  A    between atoms: N_2  and  S_1 
REMARK    2  A    between atoms: C_9  and  S_1 
REMARK    3  A    between atoms: C_8  and  N_2 
REMARK       I    between atoms: C_14  and  N_2 
REMARK    4  A    between atoms: C_17  and  C_3 
REMARK    5  A    between atoms: N_6  and  C_5 
ROOT
ATOM      1  N   UNL d   1     -40.548  14.434  19.975  0.00  0.00    -0.198 N 
ATOM      2  C   UNL d   1     -41.232  13.967  20.095  0.00  0.00     0.274 C 
ATOM      3  O   UNL d   1     -41.690  13.725  19.442  0.00  0.00    -0.266 OA
ATOM      4  C   UNL d   1     -41.468  13.736  20.855  0.00  0.00     0.067 C 
ENDROOT
BRANCH   1   5
ATOM      5  S   UNL d   1     -40.098  14.669  20.651  0.00  0.00     0.274 S 
ATOM      6  O   UNL d   1     -39.609  14.021  20.534  0.00  0.00    -0.200 OA
ATOM      7  O   UNL d   1     -40.609  15.337  20.767  0.00  0.00    -0.200 OA
BRANCH   5   8
ATOM      8  C   UNL d   1     -39.649  14.881  21.307  0.00  0.00     0.106 A 
ATOM      9  C   UNL d   1     -39.375  14.324  21.816  0.00  0.00     0.037 A 
ATOM     10  C   UNL d   1     -38.919  14.511  22.484  0.00  0.00     0.138 A 
ATOM     11  C   UNL d   1     -38.747  15.363  22.613  0.00  0.00     0.080 A 
ATOM     12  C   UNL d   1     -39.037  15.921  22.079  0.00  0.00     0.014 A 
ATOM     13 CL   UNL d   1     -38.295  15.621  23.264  0.00  0.00    -0.081 Cl
ATOM     14  C   UNL d   1     -39.479  15.677  21.441  0.00  0.00     0.014 A 
BRANCH  10  15
ATOM     15  N   UNL d   1     -38.639  13.928  23.005  0.00  0.00    -0.113 N 
ATOM     16  O   UNL d   1     -37.940  13.527  22.785  0.00  0.00    -0.532 OA
ATOM     17  O   UNL d   1     -39.009  13.741  23.697  0.00  0.00    -0.532 OA
ENDBRANCH  10  15
ENDBRANCH   5   8
ENDBRANCH   1   5
BRANCH   1  18
ATOM     18  C   UNL d   1     -40.324  14.657  19.217  0.00  0.00     0.078 A 
ATOM     19  C   UNL d   1     -39.864  14.175  18.796  0.00  0.00     0.021 A 
ATOM     20  C   UNL d   1     -39.619  14.373  18.022  0.00  0.00     0.029 A 
ATOM     21  C   UNL d   1     -39.157  13.985  17.482  0.00  0.00     0.064 A 
ATOM     22  C   UNL d   1     -39.858  15.082  17.683  0.00  0.00     0.100 A 
ATOM     23  C   UNL d   1     -39.102  14.442  16.809  0.00  0.00     0.103 A 
ATOM     24  C   UNL d   1     -38.695  14.286  16.110  0.00  0.00     0.027 C 
ATOM     25  O   UNL d   1     -39.540  15.125  16.936  0.00  0.00    -0.307 OA
ATOM     26  C   UNL d   1     -40.348  15.614  18.107  0.00  0.00     0.026 A 
ATOM     27  C   UNL d   1     -40.576  15.404  18.859  0.00  0.00     0.020 A 
BRANCH  21  28
ATOM     28  C   UNL d   1     -38.791  13.239  17.588  0.00  0.00     0.198 C 
ATOM     29  O   UNL d   1     -39.206  12.542  17.510  0.00  0.00    -0.286 OA
ATOM     30  C   UNL d   1     -37.965  13.226  17.781  0.00  0.00     0.045 C 
ENDBRANCH  21  28
ENDBRANCH   1  18
TORSDOF 5
ENDMDL
MODEL 3
REMARK VINA RESULT:      -5.7      1.954      4.971
REMARK  5 active torsions:
REMARK  status: ('A' for Active; 'I' for Inactive)
REMARK    1  A    between atoms: N_2  and  S_1 
REMARK    2  A    between atoms: C_9  and  S_1 
REMARK    3  A    between atoms: C_8  and  N_2 
REMARK       I    between atoms: C_14  and  N_2 
REMARK    4  A    between atoms: C_17  and  C_3 
REMARK    5  A    between atoms: N_6  and  C_5 
ROOT
ATOM      1  N   UNL d   1     -47.209  13.651  22.667  0.00  0.00    -0.198 N 
ATOM      2  C   UNL d   1     -47.010  14.464  22.703  0.00  0.00     0.274 C 
ATOM      3  O   UNL d   1     -46.244  14.693  22.938  0.00  0.00    -0.266 OA
ATOM      4  C   UNL d   1     -47.561  15.052  22.510  0.00  0.00     0.067 C 
ENDROOT
BRANCH   1   5
ATOM      5  S   UNL d   1     -47.992  13.441  22.426  0.00  0.00     0.274 S 
ATOM      6  O   UNL d   1     -48.241  13.534  23.202  0.00  0.00    -0.200 OA
ATOM      7  O   UNL d   1     -47.727  13.346  21.625  0.00  0.00    -0.200 OA
BRANCH   5   8
ATOM      8  C   UNL d   1     -48.760  13.239  22.211  0.00  0.00     0.106 A 
ATOM      9  C   UNL d   1     -49.302  13.033  22.765  0.00  0.00     0.037 A 
ATOM     10  C   UNL d   1     -50.083  12.824  22.575  0.00  0.00     0.138 A 
ATOM     11  C   UNL d   1     -50.294  12.840  21.722  0.00  0.00     0.080 A 
ATOM     12  C   UNL d   1     -49.723  13.054  21.167  0.00  0.00     0.014 A 
ATOM     13 CL   UNL d   1     -51.061  12.642  21.460  0.00  0.00    -0.081 Cl
ATOM     14  C   UNL d   1     -48.973  13.249  21.414  0.00  0.00     0.014 A 
BRANCH  10  15
ATOM     15  N   UNL d   1     -50.638  12.612  23.156  0.00  0.00    -0.113 N 
ATOM     16  O   UNL d   1     -51.064  13.234  23.517  0.00  0.00    -0.532 OA
ATOM     17  O   UNL d   1     -50.775  11.849  23.376  0.00  0.00    -0.532 OA
ENDBRANCH  10  15
ENDBRANCH   5   8
ENDBRANCH   1   5
BRANCH   1  18
ATOM     18  C   UNL d   1     -46.655  13.078  22.861  0.00  0.00     0.078 A 
ATOM     19  C   UNL d   1     -45.989  13.029  22.442  0.00  0.00     0.021 A 
ATOM     20  C   UNL d   1     -45.406  12.457  22.615  0.00  0.00     0.029 A 
ATOM     21  C   UNL d   1     -44.689  12.293  22.277  0.00  0.00     0.064 A 
ATOM     22  C   UNL d   1     -45.518  11.928  23.233  0.00  0.00     0.100 A 
ATOM     23  C   UNL d   1     -44.350  11.667  22.676  0.00  0.00     0.103 A 
ATOM     24  C   UNL d   1     -43.625  11.300  22.540  0.00  0.00     0.027 C 
ATOM     25  O   UNL d   1     -44.869  11.442  23.271  0.00  0.00    -0.307 OA
ATOM     26  C   UNL d   1     -46.216  11.956  23.697  0.00  0.00     0.026 A 
ATOM     27  C   UNL d   1     -46.773  12.520  23.513  0.00  0.00     0.020 A 
BRANCH  21  28
ATOM     28  C   UNL d   1     -44.344  12.692  21.626  0.00  0.00     0.198 C 
ATOM     29  O   UNL d   1     -44.673  12.663  20.881  0.00  0.00    -0.286 OA
ATOM     30  C   UNL d   1     -43.634  13.134  21.764  0.00  0.00     0.045 C 
ENDBRANCH  21  28
ENDBRANCH   1  18
TORSDOF 5
ENDMDL
