MODEL 1
REMARK VINA RESULT:      33.7      0.000      0.000
REMARK  4 active torsions:
REMARK  status: ('A' for Active; 'I' for Inactive)
REMARK    1  A    between atoms: N_3  and  S_1 
REMARK    2  A    between atoms: C_5  and  S_1 
REMARK    3  A    between atoms: C_2  and  N_3 
REMARK    4  A    between atoms: O_18  and  C_11 
ROOT
ATOM      1  C   UNL d   1     -57.861 -98.760 -44.403  0.00  0.00     0.113 A 
ATOM      2  C   UNL d   1     -58.428 -98.759 -45.014  0.00  0.00     0.100 A 
ATOM      3  C   UNL d   1     -58.080 -98.762 -43.618  0.00  0.00     0.046 A 
ATOM      4  C   UNL d   1     -59.215 -98.759 -44.840  0.00  0.00     0.021 A 
ATOM      5  N   UNL d   1     -58.180 -98.756 -45.802  0.00  0.00    -0.242 NA
ATOM      6  C   UNL d   1     -58.893 -98.763 -43.444  0.00  0.00     0.096 A 
ATOM      7  C   UNL d   1     -59.460 -98.762 -44.055  0.00  0.00     0.026 A 
ATOM      8  C   UNL d   1     -59.774 -98.758 -45.441  0.00  0.00     0.003 A 
ATOM      9  C   UNL d   1     -58.739 -98.755 -46.403  0.00  0.00     0.099 A 
ATOM     10  C   UNL d   1     -59.564 -98.756 -46.237  0.00  0.00     0.021 A 
ENDROOT
BRANCH   1  11
ATOM     11  N   UNL d   1     -57.018 -98.759 -44.579  0.00  0.00    -0.157 NA
BRANCH  11  12
ATOM     12  S   UNL d   1     -56.555 -99.445 -44.473  0.00  0.00     0.285 S 
ATOM     13  O   UNL d   1     -56.061 -99.212 -45.122  0.00  0.00    -0.198 OA
ATOM     14  O   UNL d   1     -57.032 -99.670 -43.845  0.00  0.00    -0.198 OA
BRANCH  12  15
ATOM     15  C   UNL d   1     -56.094-100.127 -44.367  0.00  0.00     0.105 A 
ATOM     16  C   UNL d   1     -55.290-100.119 -44.543  0.00  0.00     0.013 A 
ATOM     17  C   UNL d   1     -54.832-100.797 -44.438  0.00  0.00     0.001 A 
ATOM     18  C   UNL d   1     -55.168-101.498 -44.155  0.00  0.00     0.000 A 
ATOM     19  C   UNL d   1     -55.976-101.499 -43.981  0.00  0.00     0.001 A 
ATOM     20  C   UNL d   1     -54.712-102.172 -44.051  0.00  0.00     0.000 C 
ATOM     21  C   UNL d   1     -56.434-100.821 -44.086  0.00  0.00     0.013 A 
ENDBRANCH  12  15
ENDBRANCH  11  12
ENDBRANCH   1  11
BRANCH   6  22
ATOM     22  O   UNL d   1     -59.126 -98.765 -42.620  0.00  0.00    -0.328 OA
ATOM     23  C   UNL d   1     -59.889 -99.009 -42.386  0.00  0.00     0.181 C 
ENDBRANCH   6  22
TORSDOF 4
ENDMDL
