MODEL 1
REMARK VINA RESULT:      -7.4      0.000      0.000
REMARK  4 active torsions:
REMARK  status: ('A' for Active; 'I' for Inactive)
REMARK    1  A    between atoms: C_6  and  C_1 
REMARK       I    between atoms: N_11  and  C_6 
REMARK    2  A    between atoms: O_14  and  C_9 
REMARK    3  A    between atoms: C_16  and  N_11 
REMARK    4  A    between atoms: C_12  and  C_16 
ROOT
ATOM      1  C   UNL d   1     -47.128  13.202  23.102  0.00  0.00     0.121 A 
ATOM      2  C   UNL d   1     -47.671  13.817  22.957  0.00  0.00     0.305 A 
ATOM      3  O   UNL d   1     -48.488  13.672  23.036  0.00  0.00    -0.271 OA
ATOM      4  C   UNL d   1     -47.400  12.439  23.326  0.00  0.00     0.012 A 
ATOM      5  C   UNL d   1     -48.762  12.924  23.257  0.00  0.00     0.125 A 
ATOM      6  C   UNL d   1     -48.216  12.312  23.400  0.00  0.00     0.025 A 
ATOM      7  O   UNL d   1     -47.403  14.566  22.737  0.00  0.00    -0.259 OA
ATOM      8  C   UNL d   1     -49.565  12.781  23.335  0.00  0.00     0.117 A 
ATOM      9  C   UNL d   1     -48.489  11.563  23.621  0.00  0.00     0.002 A 
ATOM     10  C   UNL d   1     -49.298  11.426  23.697  0.00  0.00     0.002 A 
ATOM     11  C   UNL d   1     -49.836  12.035  23.554  0.00  0.00     0.026 A 
ENDROOT
BRANCH   1  12
ATOM     12  C   UNL d   1     -46.319  13.339  23.025  0.00  0.00     0.284 C 
ATOM     13  O   UNL d   1     -45.912  13.752  23.612  0.00  0.00    -0.265 OA
ATOM     14  N   UNL d   1     -45.918  13.062  22.362  0.00  0.00    -0.206 NA
BRANCH  14  15
ATOM     15  C   UNL d   1     -45.102  13.198  22.281  0.00  0.00     0.102 C 
BRANCH  15  16
ATOM     16  C   UNL d   1     -44.699  12.895  21.628  0.00  0.00     0.021 C 
ATOM     17  C   UNL d   1     -43.875  12.890  21.619  0.00  0.00     0.002 C 
ENDBRANCH  15  16
ENDBRANCH  14  15
ENDBRANCH   1  12
BRANCH   8  18
ATOM     18  O   UNL d   1     -50.102  13.390  23.191  0.00  0.00    -0.326 OA
ATOM     19  C   UNL d   1     -50.912  13.245  23.237  0.00  0.00     0.181 C 
ENDBRANCH   8  18
TORSDOF 4
ENDMDL
MODEL 2
REMARK VINA RESULT:      -7.4      1.038      1.767
REMARK  4 active torsions:
REMARK  status: ('A' for Active; 'I' for Inactive)
REMARK    1  A    between atoms: C_6  and  C_1 
REMARK       I    between atoms: N_11  and  C_6 
REMARK    2  A    between atoms: O_14  and  C_9 
REMARK    3  A    between atoms: C_16  and  N_11 
REMARK    4  A    between atoms: C_12  and  C_16 
ROOT
ATOM      1  C   UNL d   1     -47.090  13.489  22.953  0.00  0.00     0.121 A 
ATOM      2  C   UNL d   1     -47.652  12.899  23.126  0.00  0.00     0.305 A 
ATOM      3  O   UNL d   1     -48.465  13.086  23.104  0.00  0.00    -0.271 OA
ATOM      4  C   UNL d   1     -47.337  14.267  22.755  0.00  0.00     0.012 A 
ATOM      5  C   UNL d   1     -48.714  13.849  22.910  0.00  0.00     0.125 A 
ATOM      6  C   UNL d   1     -48.149  14.436  22.737  0.00  0.00     0.025 A 
ATOM      7  O   UNL d   1     -47.408  12.135  23.320  0.00  0.00    -0.259 OA
ATOM      8  C   UNL d   1     -49.513  14.033  22.887  0.00  0.00     0.117 A 
ATOM      9  C   UNL d   1     -48.399  15.201  22.543  0.00  0.00     0.002 A 
ATOM     10  C   UNL d   1     -49.203  15.378  22.522  0.00  0.00     0.002 A 
ATOM     11  C   UNL d   1     -49.760  14.794  22.694  0.00  0.00     0.026 A 
ENDROOT
BRANCH   1  12
ATOM     12  C   UNL d   1     -46.286  13.311  22.974  0.00  0.00     0.284 C 
ATOM     13  O   UNL d   1     -45.907  13.192  23.697  0.00  0.00    -0.265 OA
ATOM     14  N   UNL d   1     -45.861  13.253  22.271  0.00  0.00    -0.206 NA
BRANCH  14  15
ATOM     15  C   UNL d   1     -45.050  13.074  22.288  0.00  0.00     0.102 C 
BRANCH  15  16
ATOM     16  C   UNL d   1     -44.650  12.916  21.584  0.00  0.00     0.021 C 
ATOM     17  C   UNL d   1     -43.827  12.890  21.575  0.00  0.00     0.002 C 
ENDBRANCH  15  16
ENDBRANCH  14  15
ENDBRANCH   1  12
BRANCH   8  18
ATOM     18  O   UNL d   1     -50.070  13.449  23.059  0.00  0.00    -0.326 OA
ATOM     19  C   UNL d   1     -50.874  13.628  23.043  0.00  0.00     0.181 C 
ENDBRANCH   8  18
TORSDOF 4
ENDMDL
MODEL 3
REMARK VINA RESULT:      -6.8      1.660      3.996
REMARK  4 active torsions:
REMARK  status: ('A' for Active; 'I' for Inactive)
REMARK    1  A    between atoms: C_6  and  C_1 
REMARK       I    between atoms: N_11  and  C_6 
REMARK    2  A    between atoms: O_14  and  C_9 
REMARK    3  A    between atoms: C_16  and  N_11 
REMARK    4  A    between atoms: C_12  and  C_16 
ROOT
ATOM      1  C   UNL d   1     -48.521  13.154  22.997  0.00  0.00     0.121 A 
ATOM      2  C   UNL d   1     -48.483  12.424  23.395  0.00  0.00     0.305 A 
ATOM      3  O   UNL d   1     -47.746  12.044  23.488  0.00  0.00    -0.271 OA
ATOM      4  C   UNL d   1     -47.824  13.509  22.690  0.00  0.00     0.012 A 
ATOM      5  C   UNL d   1     -47.057  12.387  23.189  0.00  0.00     0.125 A 
ATOM      6  C   UNL d   1     -47.100  13.118  22.791  0.00  0.00     0.025 A 
ATOM      7  O   UNL d   1     -49.169  12.076  23.696  0.00  0.00    -0.259 OA
ATOM      8  C   UNL d   1     -46.333  12.014  23.280  0.00  0.00     0.117 A 
ATOM      9  C   UNL d   1     -46.410  13.462  22.491  0.00  0.00     0.002 A 
ATOM     10  C   UNL d   1     -45.685  13.081  22.586  0.00  0.00     0.002 A 
ATOM     11  C   UNL d   1     -45.647  12.357  22.981  0.00  0.00     0.026 A 
ENDROOT
BRANCH   1  12
ATOM     12  C   UNL d   1     -49.246  13.535  22.902  0.00  0.00     0.284 C 
ATOM     13  O   UNL d   1     -49.851  13.171  22.475  0.00  0.00    -0.265 OA
ATOM     14  N   UNL d   1     -49.364  14.279  23.233  0.00  0.00    -0.206 NA
BRANCH  14  15
ATOM     15  C   UNL d   1     -50.093  14.666  23.139  0.00  0.00     0.102 C 
BRANCH  15  16
ATOM     16  C   UNL d   1     -50.201  15.420  23.456  0.00  0.00     0.021 C 
ATOM     17  C   UNL d   1     -50.950  15.763  23.457  0.00  0.00     0.002 C 
ENDBRANCH  15  16
ENDBRANCH  14  15
ENDBRANCH   1  12
BRANCH   8  18
ATOM     18  O   UNL d   1     -46.295  11.290  23.674  0.00  0.00    -0.326 OA
ATOM     19  C   UNL d   1     -45.611  10.832  23.630  0.00  0.00     0.181 C 
ENDBRANCH   8  18
TORSDOF 4
ENDMDL
MODEL 4
REMARK VINA RESULT:      -5.0      8.699      9.350
REMARK  4 active torsions:
REMARK  status: ('A' for Active; 'I' for Inactive)
REMARK    1  A    between atoms: C_6  and  C_1 
REMARK       I    between atoms: N_11  and  C_6 
REMARK    2  A    between atoms: O_14  and  C_9 
REMARK    3  A    between atoms: C_16  and  N_11 
REMARK    4  A    between atoms: C_12  and  C_16 
ROOT
ATOM      1  C   UNL d   1     -39.865  15.101  18.781  0.00  0.00     0.121 A 
ATOM      2  C   UNL d   1     -39.416  14.424  18.965  0.00  0.00     0.305 A 
ATOM      3  O   UNL d   1     -39.243  14.249  19.762  0.00  0.00    -0.271 OA
ATOM      4  C   UNL d   1     -40.145  15.605  19.392  0.00  0.00     0.012 A 
ATOM      5  C   UNL d   1     -39.515  14.741  20.367  0.00  0.00     0.125 A 
ATOM      6  C   UNL d   1     -39.964  15.417  20.179  0.00  0.00     0.025 A 
ATOM      7  O   UNL d   1     -39.142  13.929  18.364  0.00  0.00    -0.259 OA
ATOM      8  C   UNL d   1     -39.346  14.570  21.151  0.00  0.00     0.117 A 
ATOM      9  C   UNL d   1     -40.236  15.910  20.785  0.00  0.00     0.002 A 
ATOM     10  C   UNL d   1     -40.062  15.731  21.570  0.00  0.00     0.002 A 
ATOM     11  C   UNL d   1     -39.617  15.061  21.753  0.00  0.00     0.026 A 
ENDROOT
BRANCH   1  12
ATOM     12  C   UNL d   1     -40.039  15.279  17.995  0.00  0.00     0.284 C 
ATOM     13  O   UNL d   1     -39.432  15.335  17.439  0.00  0.00    -0.265 OA
ATOM     14  N   UNL d   1     -40.821  15.402  17.767  0.00  0.00    -0.206 NA
BRANCH  14  15
ATOM     15  C   UNL d   1     -41.000  15.583  16.976  0.00  0.00     0.102 C 
BRANCH  15  16
ATOM     16  C   UNL d   1     -41.740  15.891  16.783  0.00  0.00     0.021 C 
ATOM     17  C   UNL d   1     -41.982  15.922  15.997  0.00  0.00     0.002 C 
ENDBRANCH  15  16
ENDBRANCH  14  15
ENDBRANCH   1  12
BRANCH   8  18
ATOM     18  O   UNL d   1     -38.901  13.899  21.333  0.00  0.00    -0.326 OA
ATOM     19  C   UNL d   1     -38.641  13.774  22.105  0.00  0.00     0.181 C 
ENDBRANCH   8  18
TORSDOF 4
ENDMDL
MODEL 5
REMARK VINA RESULT:      -4.9      1.713      3.895
REMARK  4 active torsions:
REMARK  status: ('A' for Active; 'I' for Inactive)
REMARK    1  A    between atoms: C_6  and  C_1 
REMARK       I    between atoms: N_11  and  C_6 
REMARK    2  A    between atoms: O_14  and  C_9 
REMARK    3  A    between atoms: C_16  and  N_11 
REMARK    4  A    between atoms: C_12  and  C_16 
ROOT
ATOM      1  C   UNL d   1     -47.098  12.676  23.026  0.00  0.00     0.121 A 
ATOM      2  C   UNL d   1     -46.420  13.040  22.706  0.00  0.00     0.305 A 
ATOM      3  O   UNL d   1     -45.691  12.636  22.718  0.00  0.00    -0.271 OA
ATOM      4  C   UNL d   1     -47.049  11.906  23.359  0.00  0.00     0.012 A 
ATOM      5  C   UNL d   1     -45.637  11.878  23.044  0.00  0.00     0.125 A 
ATOM      6  C   UNL d   1     -46.317  11.518  23.363  0.00  0.00     0.025 A 
ATOM      7  O   UNL d   1     -46.468  13.797  22.379  0.00  0.00    -0.259 OA
ATOM      8  C   UNL d   1     -44.921  11.480  23.056  0.00  0.00     0.117 A 
ATOM      9  C   UNL d   1     -46.263  10.759  23.689  0.00  0.00     0.002 A 
ATOM     10  C   UNL d   1     -45.540  10.365  23.698  0.00  0.00     0.002 A 
ATOM     11  C   UNL d   1     -44.869  10.725  23.381  0.00  0.00     0.026 A 
ENDROOT
BRANCH   1  12
ATOM     12  C   UNL d   1     -47.821  13.071  23.017  0.00  0.00     0.284 C 
ATOM     13  O   UNL d   1     -47.917  13.767  23.449  0.00  0.00    -0.265 OA
ATOM     14  N   UNL d   1     -48.447  12.768  22.577  0.00  0.00    -0.206 NA
BRANCH  14  15
ATOM     15  C   UNL d   1     -49.178  13.162  22.565  0.00  0.00     0.102 C 
BRANCH  15  16
ATOM     16  C   UNL d   1     -49.850  12.773  22.289  0.00  0.00     0.021 C 
ATOM     17  C   UNL d   1     -50.025  12.773  21.484  0.00  0.00     0.002 C 
ENDBRANCH  15  16
ENDBRANCH  14  15
ENDBRANCH   1  12
BRANCH   8  18
ATOM     18  O   UNL d   1     -44.250  11.840  22.739  0.00  0.00    -0.326 OA
ATOM     19  C   UNL d   1     -43.569  11.397  22.601  0.00  0.00     0.181 C 
ENDBRANCH   8  18
TORSDOF 4
ENDMDL
