MODEL 1
REMARK VINA RESULT:      29.0      0.000      0.000
REMARK  5 active torsions:
REMARK  status: ('A' for Active; 'I' for Inactive)
REMARK    1  A    between atoms: C_4  and  S_1 
REMARK    2  A    between atoms: N_5  and  S_1 
REMARK    3  A    between atoms: C_2  and  C_8 
REMARK       I    between atoms: N_3  and  C_2 
REMARK    4  A    between atoms: C_16  and  N_5 
REMARK    5  A    between atoms: C_17  and  N_5 
ROOT
ATOM      1  C   UNL d   1      13.986  12.336  -2.130  0.00  0.00     0.104 A 
ATOM      2  C   UNL d   1      13.455  12.431  -3.691  0.00  0.00     0.057 A 
ATOM      3  C   UNL d   1      13.445  11.780  -2.419  0.00  0.00     0.013 A 
ATOM      4  C   UNL d   1      14.261  12.938  -2.619  0.00  0.00     0.013 A 
ATOM      5  C   UNL d   1      13.180  11.828  -3.197  0.00  0.00     0.005 A 
ATOM      6  C   UNL d   1      13.997  12.988  -3.402  0.00  0.00     0.005 A 
ENDROOT
BRANCH   1   7
ATOM      7  S   UNL d   1      14.251  12.285  -1.344  0.00  0.00     0.271 S 
ATOM      8  O   UNL d   1      13.463  12.433  -0.955  0.00  0.00    -0.200 OA
ATOM      9  O   UNL d   1      15.117  12.123  -1.686  0.00  0.00    -0.200 OA
BRANCH   7  10
ATOM     10  N   UNL d   1      14.512  12.234  -0.568  0.00  0.00    -0.229 N 
BRANCH  10  11
ATOM     11  C   UNL d   1      15.194  12.645  -0.338  0.00  0.00     0.092 C 
ATOM     12  C   UNL d   1      15.133  13.415  -0.050  0.00  0.00     0.021 C 
ENDBRANCH  10  11
BRANCH  10  13
ATOM     13  C   UNL d   1      14.103  11.779  -0.014  0.00  0.00     0.092 C 
ATOM     14  C   UNL d   1      13.277  11.784  -0.015  0.00  0.00     0.021 C 
ENDBRANCH  10  13
ENDBRANCH   7  10
ENDBRANCH   1   7
BRANCH   2  15
ATOM     15  C   UNL d   1      13.185  12.473  -4.473  0.00  0.00     0.265 C 
ATOM     16  N   UNL d   1      13.132  13.207  -4.842  0.00  0.00    -0.272 N 
ATOM     17  C   UNL d   1      13.348  13.892  -4.435  0.00  0.00     0.083 A 
ATOM     18  C   UNL d   1      12.865  13.256  -5.620  0.00  0.00     0.083 A 
ATOM     19  C   UNL d   1      13.295  14.625  -4.806  0.00  0.00     0.019 A 
ATOM     20  C   UNL d   1      13.027  14.674  -5.582  0.00  0.00     0.003 A 
ATOM     21  C   UNL d   1      12.812  13.990  -5.989  0.00  0.00     0.019 A 
ATOM     22  O   UNL d   1      12.970  11.787  -4.877  0.00  0.00    -0.267 OA
ENDBRANCH   2  15
TORSDOF 5
ENDMDL
