MODEL 1
REMARK VINA RESULT:      -9.8      0.000      0.000
REMARK  5 active torsions:
REMARK  status: ('A' for Active; 'I' for Inactive)
REMARK    1  A    between atoms: C_8  and  C_1 
REMARK    2  A    between atoms: N_4  and  C_2 
REMARK       I    between atoms: C_6  and  N_4 
REMARK    3  A    between atoms: C_11  and  C_6 
REMARK    4  A    between atoms: O_12  and  C_8 
REMARK    5  A    between atoms: C_17  and  O_12 
ROOT
ATOM      1  C   UNL d   1      52.507  32.071  52.926  0.00  0.00     0.181 A 
ATOM      2  C   UNL d   1      53.024  31.847  53.538  0.00  0.00     0.115 A 
ATOM      3  O   UNL d   1      52.265  31.374  52.547  0.00  0.00    -0.300 OA
ATOM      4  C   UNL d   1      53.093  31.032  53.528  0.00  0.00     0.043 A 
ATOM      5  C   UNL d   1      52.624  30.736  52.915  0.00  0.00     0.102 A 
ATOM      6  C   UNL d   1      53.525  30.512  54.002  0.00  0.00     0.004 A 
ATOM      7  C   UNL d   1      52.589  29.929  52.779  0.00  0.00     0.025 A 
ATOM      8  C   UNL d   1      53.488  29.696  53.862  0.00  0.00     0.000 A 
ATOM      9  C   UNL d   1      53.016  29.409  53.246  0.00  0.00     0.002 A 
ENDROOT
BRANCH   2  10
ATOM     10  N   UNL d   1      53.404  32.366  54.066  0.00  0.00    -0.206 NA
ATOM     11  C   UNL d   1      54.200  32.547  53.960  0.00  0.00     0.279 C 
ATOM     12  O   UNL d   1      54.623  32.215  53.336  0.00  0.00    -0.265 OA
BRANCH  11  13
ATOM     13  C   UNL d   1      54.574  33.060  54.482  0.00  0.00     0.058 A 
ATOM     14  C   UNL d   1      54.317  33.112  55.275  0.00  0.00     0.005 A 
ATOM     15  C   UNL d   1      54.688  33.620  55.789  0.00  0.00     0.000 A 
ATOM     16  C   UNL d   1      55.317  34.084  55.526  0.00  0.00     0.000 A 
ATOM     17  C   UNL d   1      55.568  34.033  54.749  0.00  0.00     0.000 A 
ATOM     18  C   UNL d   1      55.189  33.513  54.221  0.00  0.00     0.005 A 
ENDBRANCH  11  13
ENDBRANCH   2  10
BRANCH   1  19
ATOM     19  C   UNL d   1      52.280  32.840  52.734  0.00  0.00     0.325 C 
ATOM     20  O   UNL d   1      52.699  33.263  52.158  0.00  0.00    -0.257 OA
BRANCH  19  21
ATOM     21  O   UNL d   1      51.640  33.181  53.114  0.00  0.00    -0.269 OA
BRANCH  21  22
ATOM     22  C   UNL d   1      51.273  33.852  52.787  0.00  0.00     0.126 C 
ATOM     23  C   UNL d   1      50.573  34.142  53.127  0.00  0.00     0.029 C 
ENDBRANCH  21  22
ENDBRANCH  19  21
ENDBRANCH   1  19
TORSDOF 5
ENDMDL
MODEL 2
REMARK VINA RESULT:      -9.7      0.888      3.783
REMARK  5 active torsions:
REMARK  status: ('A' for Active; 'I' for Inactive)
REMARK    1  A    between atoms: C_8  and  C_1 
REMARK    2  A    between atoms: N_4  and  C_2 
REMARK       I    between atoms: C_6  and  N_4 
REMARK    3  A    between atoms: C_11  and  C_6 
REMARK    4  A    between atoms: O_12  and  C_8 
REMARK    5  A    between atoms: C_17  and  O_12 
ROOT
ATOM      1  C   UNL d   1      53.562  32.214  53.687  0.00  0.00     0.181 A 
ATOM      2  C   UNL d   1      53.162  32.915  53.890  0.00  0.00     0.115 A 
ATOM      3  O   UNL d   1      54.300  32.239  54.063  0.00  0.00    -0.300 OA
ATOM      4  C   UNL d   1      53.650  33.354  54.378  0.00  0.00     0.043 A 
ATOM      5  C   UNL d   1      54.356  32.938  54.487  0.00  0.00     0.102 A 
ATOM      6  C   UNL d   1      53.545  34.087  54.742  0.00  0.00     0.004 A 
ATOM      7  C   UNL d   1      54.949  33.254  54.956  0.00  0.00     0.025 A 
ATOM      8  C   UNL d   1      54.146  34.404  55.216  0.00  0.00     0.000 A 
ATOM      9  C   UNL d   1      54.849  33.981  55.320  0.00  0.00     0.002 A 
ENDROOT
BRANCH   2  10
ATOM     10  N   UNL d   1      52.399  33.127  53.637  0.00  0.00    -0.206 NA
ATOM     11  C   UNL d   1      52.305  33.714  53.066  0.00  0.00     0.279 C 
ATOM     12  O   UNL d   1      52.963  34.091  52.746  0.00  0.00    -0.265 OA
BRANCH  11  13
ATOM     13  C   UNL d   1      51.551  33.923  52.817  0.00  0.00     0.058 A 
ATOM     14  C   UNL d   1      50.911  33.901  53.354  0.00  0.00     0.005 A 
ATOM     15  C   UNL d   1      50.166  34.109  53.105  0.00  0.00     0.000 A 
ATOM     16  C   UNL d   1      50.043  34.339  52.323  0.00  0.00     0.000 A 
ATOM     17  C   UNL d   1      50.670  34.359  51.797  0.00  0.00     0.000 A 
ATOM     18  C   UNL d   1      51.433  34.148  52.051  0.00  0.00     0.005 A 
ENDBRANCH  11  13
ENDBRANCH   2  10
BRANCH   1  19
ATOM     19  C   UNL d   1      53.276  31.609  53.204  0.00  0.00     0.325 C 
ATOM     20  O   UNL d   1      53.354  31.667  52.382  0.00  0.00    -0.257 OA
BRANCH  19  21
ATOM     21  O   UNL d   1      52.916  30.955  53.541  0.00  0.00    -0.269 OA
BRANCH  21  22
ATOM     22  C   UNL d   1      52.863  30.245  53.113  0.00  0.00     0.126 C 
ATOM     23  C   UNL d   1      52.638  29.547  53.504  0.00  0.00     0.029 C 
ENDBRANCH  21  22
ENDBRANCH  19  21
ENDBRANCH   1  19
TORSDOF 5
ENDMDL
MODEL 3
REMARK VINA RESULT:      -9.6      0.700      3.024
REMARK  5 active torsions:
REMARK  status: ('A' for Active; 'I' for Inactive)
REMARK    1  A    between atoms: C_8  and  C_1 
REMARK    2  A    between atoms: N_4  and  C_2 
REMARK       I    between atoms: C_6  and  N_4 
REMARK    3  A    between atoms: C_11  and  C_6 
REMARK    4  A    between atoms: O_12  and  C_8 
REMARK    5  A    between atoms: C_17  and  O_12 
ROOT
ATOM      1  C   UNL d   1      53.972  31.953  53.767  0.00  0.00     0.181 A 
ATOM      2  C   UNL d   1      53.160  31.852  53.618  0.00  0.00     0.115 A 
ATOM      3  O   UNL d   1      54.315  31.198  53.754  0.00  0.00    -0.300 OA
ATOM      4  C   UNL d   1      53.016  31.053  53.518  0.00  0.00     0.043 A 
ATOM      5  C   UNL d   1      53.730  30.645  53.601  0.00  0.00     0.102 A 
ATOM      6  C   UNL d   1      52.322  30.637  53.360  0.00  0.00     0.004 A 
ATOM      7  C   UNL d   1      53.748  29.830  53.527  0.00  0.00     0.025 A 
ATOM      8  C   UNL d   1      52.341  29.811  53.285  0.00  0.00     0.000 A 
ATOM      9  C   UNL d   1      53.061  29.412  53.370  0.00  0.00     0.002 A 
ENDROOT
BRANCH   2  10
ATOM     10  N   UNL d   1      52.596  32.462  53.580  0.00  0.00    -0.206 NA
ATOM     11  C   UNL d   1      52.299  32.699  52.849  0.00  0.00     0.279 C 
ATOM     12  O   UNL d   1      52.558  32.336  52.157  0.00  0.00    -0.265 OA
BRANCH  11  13
ATOM     13  C   UNL d   1      51.742  33.302  52.812  0.00  0.00     0.058 A 
ATOM     14  C   UNL d   1      51.099  33.311  53.346  0.00  0.00     0.005 A 
ATOM     15  C   UNL d   1      50.549  33.909  53.306  0.00  0.00     0.000 A 
ATOM     16  C   UNL d   1      50.627  34.504  52.741  0.00  0.00     0.000 A 
ATOM     17  C   UNL d   1      51.258  34.494  52.219  0.00  0.00     0.000 A 
ATOM     18  C   UNL d   1      51.821  33.883  52.258  0.00  0.00     0.005 A 
ENDBRANCH  11  13
ENDBRANCH   2  10
BRANCH   1  19
ATOM     19  C   UNL d   1      54.360  32.669  53.901  0.00  0.00     0.325 C 
ATOM     20  O   UNL d   1      54.755  33.046  53.278  0.00  0.00    -0.257 OA
BRANCH  19  21
ATOM     21  O   UNL d   1      54.353  33.001  54.649  0.00  0.00    -0.269 OA
BRANCH  21  22
ATOM     22  C   UNL d   1      54.938  33.551  54.864  0.00  0.00     0.126 C 
ATOM     23  C   UNL d   1      54.949  33.856  55.636  0.00  0.00     0.029 C 
ENDBRANCH  21  22
ENDBRANCH  19  21
ENDBRANCH   1  19
TORSDOF 5
ENDMDL
MODEL 4
REMARK VINA RESULT:      -9.5      0.908      3.333
REMARK  5 active torsions:
REMARK  status: ('A' for Active; 'I' for Inactive)
REMARK    1  A    between atoms: C_8  and  C_1 
REMARK    2  A    between atoms: N_4  and  C_2 
REMARK       I    between atoms: C_6  and  N_4 
REMARK    3  A    between atoms: C_11  and  C_6 
REMARK    4  A    between atoms: O_12  and  C_8 
REMARK    5  A    between atoms: C_17  and  O_12 
ROOT
ATOM      1  C   UNL d   1      52.664  33.705  53.952  0.00  0.00     0.181 A 
ATOM      2  C   UNL d   1      53.136  33.074  54.219  0.00  0.00     0.115 A 
ATOM      3  O   UNL d   1      53.039  34.405  54.191  0.00  0.00    -0.300 OA
ATOM      4  C   UNL d   1      53.783  33.387  54.610  0.00  0.00     0.043 A 
ATOM      5  C   UNL d   1      53.725  34.211  54.595  0.00  0.00     0.102 A 
ATOM      6  C   UNL d   1      54.424  33.027  54.984  0.00  0.00     0.004 A 
ATOM      7  C   UNL d   1      54.305  34.669  54.950  0.00  0.00     0.025 A 
ATOM      8  C   UNL d   1      55.009  33.492  55.343  0.00  0.00     0.000 A 
ATOM      9  C   UNL d   1      54.943  34.317  55.322  0.00  0.00     0.002 A 
ENDROOT
BRANCH   2  10
ATOM     10  N   UNL d   1      52.974  32.266  54.104  0.00  0.00    -0.206 NA
ATOM     11  C   UNL d   1      53.412  31.835  53.556  0.00  0.00     0.279 C 
ATOM     12  O   UNL d   1      54.009  32.199  53.121  0.00  0.00    -0.265 OA
BRANCH  11  13
ATOM     13  C   UNL d   1      53.250  31.037  53.443  0.00  0.00     0.058 A 
ATOM     14  C   UNL d   1      53.421  30.486  54.047  0.00  0.00     0.005 A 
ATOM     15  C   UNL d   1      53.260  29.697  53.933  0.00  0.00     0.000 A 
ATOM     16  C   UNL d   1      52.929  29.443  53.222  0.00  0.00     0.000 A 
ATOM     17  C   UNL d   1      52.763  29.984  52.630  0.00  0.00     0.000 A 
ATOM     18  C   UNL d   1      52.927  30.792  52.745  0.00  0.00     0.005 A 
ENDBRANCH  11  13
ENDBRANCH   2  10
BRANCH   1  19
ATOM     19  C   UNL d   1      51.958  33.644  53.530  0.00  0.00     0.325 C 
ATOM     20  O   UNL d   1      51.297  33.287  53.881  0.00  0.00    -0.257 OA
BRANCH  19  21
ATOM     21  O   UNL d   1      51.913  33.936  52.767  0.00  0.00    -0.269 OA
BRANCH  21  22
ATOM     22  C   UNL d   1      51.176  34.146  52.445  0.00  0.00     0.126 C 
ATOM     23  C   UNL d   1      51.103  34.255  51.625  0.00  0.00     0.029 C 
ENDBRANCH  21  22
ENDBRANCH  19  21
ENDBRANCH   1  19
TORSDOF 5
ENDMDL
MODEL 5
REMARK VINA RESULT:      -9.3      0.872      3.693
REMARK  5 active torsions:
REMARK  status: ('A' for Active; 'I' for Inactive)
REMARK    1  A    between atoms: C_8  and  C_1 
REMARK    2  A    between atoms: N_4  and  C_2 
REMARK       I    between atoms: C_6  and  N_4 
REMARK    3  A    between atoms: C_11  and  C_6 
REMARK    4  A    between atoms: O_12  and  C_8 
REMARK    5  A    between atoms: C_17  and  O_12 
ROOT
ATOM      1  C   UNL d   1      53.279  33.587  53.584  0.00  0.00     0.181 A 
ATOM      2  C   UNL d   1      52.683  33.008  53.556  0.00  0.00     0.115 A 
ATOM      3  O   UNL d   1      52.932  34.303  53.350  0.00  0.00    -0.300 OA
ATOM      4  C   UNL d   1      51.990  33.367  53.310  0.00  0.00     0.043 A 
ATOM      5  C   UNL d   1      52.141  34.170  53.181  0.00  0.00     0.102 A 
ATOM      6  C   UNL d   1      51.232  33.067  53.184  0.00  0.00     0.004 A 
ATOM      7  C   UNL d   1      51.539  34.665  52.930  0.00  0.00     0.025 A 
ATOM      8  C   UNL d   1      50.624  33.570  52.930  0.00  0.00     0.000 A 
ATOM      9  C   UNL d   1      50.785  34.372  52.804  0.00  0.00     0.002 A 
ENDROOT
BRANCH   2  10
ATOM     10  N   UNL d   1      52.780  32.204  53.746  0.00  0.00    -0.206 NA
ATOM     11  C   UNL d   1      52.850  31.647  53.144  0.00  0.00     0.279 C 
ATOM     12  O   UNL d   1      52.825  31.882  52.355  0.00  0.00    -0.265 OA
BRANCH  11  13
ATOM     13  C   UNL d   1      52.946  30.853  53.333  0.00  0.00     0.058 A 
ATOM     14  C   UNL d   1      53.234  30.634  54.086  0.00  0.00     0.005 A 
ATOM     15  C   UNL d   1      53.328  29.847  54.270  0.00  0.00     0.000 A 
ATOM     16  C   UNL d   1      53.138  29.269  53.714  0.00  0.00     0.000 A 
ATOM     17  C   UNL d   1      52.857  29.485  52.977  0.00  0.00     0.000 A 
ATOM     18  C   UNL d   1      52.760  30.289  52.786  0.00  0.00     0.005 A 
ENDBRANCH  11  13
ENDBRANCH   2  10
BRANCH   1  19
ATOM     19  C   UNL d   1      54.066  33.470  53.803  0.00  0.00     0.325 C 
ATOM     20  O   UNL d   1      54.631  33.284  53.227  0.00  0.00    -0.257 OA
BRANCH  19  21
ATOM     21  O   UNL d   1      54.284  33.539  54.589  0.00  0.00    -0.269 OA
BRANCH  21  22
ATOM     22  C   UNL d   1      55.073  33.709  54.787  0.00  0.00     0.126 C 
ATOM     23  C   UNL d   1      55.285  33.796  55.585  0.00  0.00     0.029 C 
ENDBRANCH  21  22
ENDBRANCH  19  21
ENDBRANCH   1  19
TORSDOF 5
ENDMDL
MODEL 6
REMARK VINA RESULT:      -8.7      0.852      2.837
REMARK  5 active torsions:
REMARK  status: ('A' for Active; 'I' for Inactive)
REMARK    1  A    between atoms: C_8  and  C_1 
REMARK    2  A    between atoms: N_4  and  C_2 
REMARK       I    between atoms: C_6  and  N_4 
REMARK    3  A    between atoms: C_11  and  C_6 
REMARK    4  A    between atoms: O_12  and  C_8 
REMARK    5  A    between atoms: C_17  and  O_12 
ROOT
ATOM      1  C   UNL d   1      52.304  32.184  52.927  0.00  0.00     0.181 A 
ATOM      2  C   UNL d   1      52.562  32.934  53.176  0.00  0.00     0.115 A 
ATOM      3  O   UNL d   1      51.508  32.263  52.706  0.00  0.00    -0.300 OA
ATOM      4  C   UNL d   1      51.936  33.456  53.106  0.00  0.00     0.043 A 
ATOM      5  C   UNL d   1      51.281  33.043  52.815  0.00  0.00     0.102 A 
ATOM      6  C   UNL d   1      51.873  34.262  53.270  0.00  0.00     0.004 A 
ATOM      7  C   UNL d   1      50.572  33.434  52.691  0.00  0.00     0.025 A 
ATOM      8  C   UNL d   1      51.155  34.656  53.144  0.00  0.00     0.000 A 
ATOM      9  C   UNL d   1      50.505  34.234  52.852  0.00  0.00     0.002 A 
ENDROOT
BRANCH   2  10
ATOM     10  N   UNL d   1      53.327  33.117  53.447  0.00  0.00    -0.206 NA
ATOM     11  C   UNL d   1      53.453  33.260  54.249  0.00  0.00     0.279 C 
ATOM     12  O   UNL d   1      52.826  33.222  54.782  0.00  0.00    -0.265 OA
BRANCH  11  13
ATOM     13  C   UNL d   1      54.209  33.440  54.516  0.00  0.00     0.058 A 
ATOM     14  C   UNL d   1      54.834  33.540  53.970  0.00  0.00     0.005 A 
ATOM     15  C   UNL d   1      55.580  33.718  54.238  0.00  0.00     0.000 A 
ATOM     16  C   UNL d   1      55.719  33.800  55.046  0.00  0.00     0.000 A 
ATOM     17  C   UNL d   1      55.106  33.702  55.580  0.00  0.00     0.000 A 
ATOM     18  C   UNL d   1      54.342  33.520  55.308  0.00  0.00     0.005 A 
ENDBRANCH  11  13
ENDBRANCH   2  10
BRANCH   1  19
ATOM     19  C   UNL d   1      52.754  31.492  52.906  0.00  0.00     0.325 C 
ATOM     20  O   UNL d   1      53.347  31.405  52.334  0.00  0.00    -0.257 OA
BRANCH  19  21
ATOM     21  O   UNL d   1      52.612  30.898  53.449  0.00  0.00    -0.269 OA
BRANCH  21  22
ATOM     22  C   UNL d   1      52.907  30.133  53.314  0.00  0.00     0.126 C 
ATOM     23  C   UNL d   1      52.995  29.609  53.952  0.00  0.00     0.029 C 
ENDBRANCH  21  22
ENDBRANCH  19  21
ENDBRANCH   1  19
TORSDOF 5
ENDMDL
