MODEL 1
REMARK VINA RESULT:      36.2      0.000      0.000
REMARK  4 active torsions:
REMARK  status: ('A' for Active; 'I' for Inactive)
REMARK    1  A    between atoms: C_5  and  N_1 
REMARK    2  A    between atoms: C_9  and  C_3 
REMARK    3  A    between atoms: C_7  and  C_5 
REMARK    4  A    between atoms: O_10  and  C_8 
ROOT
ATOM      1  N   UNL d   1     -51.512  24.735  33.323  0.00  0.00    -0.289 N 
ATOM      2  N   UNL d   1     -51.480  23.385  33.347  0.00  0.00    -0.227 NA
ATOM      3  C   UNL d   1     -51.004  24.074  33.328  0.00  0.00     0.148 A 
ATOM      4  C   UNL d   1     -52.301  24.460  33.339  0.00  0.00     0.083 A 
ATOM      5  C   UNL d   1     -52.282  23.624  33.354  0.00  0.00     0.099 A 
ATOM      6  C   UNL d   1     -53.038  24.847  33.342  0.00  0.00     0.019 A 
ATOM      7  C   UNL d   1     -52.983  23.190  33.371  0.00  0.00     0.021 A 
ATOM      8  C   UNL d   1     -53.743  24.412  33.359  0.00  0.00     0.002 A 
ATOM      9  C   UNL d   1     -53.716  23.586  33.374  0.00  0.00     0.002 A 
ENDROOT
BRANCH   1  10
ATOM     10  C   UNL d   1     -51.285  25.529  33.306  0.00  0.00     0.083 C 
BRANCH  10  11
ATOM     11  C   UNL d   1     -51.260  25.970  33.991  0.00  0.00     0.040 A 
ATOM     12  C   UNL d   1     -50.834  26.665  34.011  0.00  0.00     0.096 A 
ATOM     13  C   UNL d   1     -50.808  27.112  34.703  0.00  0.00     0.024 A 
ATOM     14  C   UNL d   1     -51.212  26.856  35.376  0.00  0.00     0.002 A 
ATOM     15  C   UNL d   1     -51.642  26.154  35.354  0.00  0.00     0.000 A 
ATOM     16  C   UNL d   1     -51.665  25.711  34.660  0.00  0.00     0.004 A 
BRANCH  12  17
ATOM     17  O   UNL d   1     -50.433  26.920  33.345  0.00  0.00    -0.328 OA
ATOM     18  C   UNL d   1     -50.019  27.637  33.353  0.00  0.00     0.181 C 
ENDBRANCH  12  17
ENDBRANCH  10  11
ENDBRANCH   1  10
BRANCH   3  19
ATOM     19  C   UNL d   1     -50.181  24.093  33.317  0.00  0.00     0.037 C 
ATOM     20  C   UNL d   1     -49.753  23.515  33.718  0.00  0.00     0.003 C 
ENDBRANCH   3  19
TORSDOF 4
ENDMDL
