MODEL 1
REMARK VINA RESULT:      20.1      0.000      0.000
REMARK  4 active torsions:
REMARK  status: ('A' for Active; 'I' for Inactive)
REMARK    1  A    between atoms: N_7  and  C_2 
REMARK    2  A    between atoms: C_6  and  C_3 
REMARK    3  A    between atoms: C_16  and  N_7 
REMARK    4  A    between atoms: C_10  and  C_16 
ROOT
ATOM      1  N   UNL d   1      57.881  49.624  50.116  0.00  0.00    -0.222 NA
ATOM      2  C   UNL d   1      57.064  49.648  50.207  0.00  0.00     0.172 A 
ATOM      3  C   UNL d   1      58.224  49.660  50.876  0.00  0.00     0.090 A 
ATOM      4  S   UNL d   1      56.899  49.699  51.003  0.00  0.00    -0.048 SA
ATOM      5  C   UNL d   1      57.608  49.706  51.412  0.00  0.00     0.057 A 
ENDROOT
BRANCH   3   6
ATOM      6  C   UNL d   1      59.049  49.649  51.016  0.00  0.00     0.018 A 
ATOM      7  C   UNL d   1      59.324  49.587  51.786  0.00  0.00     0.002 A 
ATOM      8  C   UNL d   1      60.149  49.576  51.927  0.00  0.00     0.011 A 
ATOM      9  C   UNL d   1      60.654  49.628  51.290  0.00  0.00     0.058 A 
ATOM     10  C   UNL d   1      60.379  49.690  50.514  0.00  0.00     0.011 A 
ATOM     11 CL   UNL d   1      61.461  49.617  51.428  0.00  0.00    -0.082 Cl
ATOM     12  C   UNL d   1      59.566  49.701  50.375  0.00  0.00     0.002 A 
ENDBRANCH   3   6
BRANCH   2  13
ATOM     13  N   UNL d   1      56.497  49.627  49.616  0.00  0.00    -0.332 N 
ATOM     14  H   UNL d   1      56.325  50.317  49.184  0.00  0.00     0.168 HD
BRANCH  13  15
ATOM     15  C   UNL d   1      56.093  48.919  49.445  0.00  0.00     0.074 C 
BRANCH  15  16
ATOM     16  C   UNL d   1      56.349  48.428  48.854  0.00  0.00     0.018 C 
ATOM     17  C   UNL d   1      56.303  47.586  48.938  0.00  0.00     0.002 C 
ENDBRANCH  15  16
ENDBRANCH  13  15
ENDBRANCH   2  13
TORSDOF 4
ENDMDL
