MODEL 1
REMARK VINA RESULT:      43.9      0.000      0.000
REMARK  2 active torsions:
REMARK  status: ('A' for Active; 'I' for Inactive)
REMARK    1  A    between atoms: N_2  and  S_1 
REMARK    2  A    between atoms: C_4  and  S_1 
ROOT
ATOM      1  N   UNL d   1     -51.535  25.638  33.598  0.00  0.00    -0.231 N 
ATOM      2  C   UNL d   1     -51.390  24.823  33.524  0.00  0.00     0.075 A 
ATOM      3  C   UNL d   1     -52.008  24.288  33.381  0.00  0.00     0.017 A 
ATOM      4  C   UNL d   1     -52.323  25.915  33.526  0.00  0.00     0.092 A 
ATOM      5  C   UNL d   1     -50.602  24.546  33.595  0.00  0.00     0.018 A 
ATOM      6  C   UNL d   1     -52.941  25.379  33.383  0.00  0.00     0.020 A 
ATOM      7  C   UNL d   1     -52.772  24.566  33.312  0.00  0.00     0.003 A 
ATOM      8  C   UNL d   1     -51.842  23.478  33.309  0.00  0.00     0.002 A 
ATOM      9  C   UNL d   1     -50.449  23.738  33.523  0.00  0.00     0.002 A 
ATOM     10  C   UNL d   1     -51.068  23.201  33.380  0.00  0.00     0.000 A 
ENDROOT
BRANCH   1  11
ATOM     11  S   UNL d   1     -50.911  26.167  33.741  0.00  0.00     0.271 S 
ATOM     12  O   UNL d   1     -50.376  25.610  33.678  0.00  0.00    -0.200 OA
ATOM     13  O   UNL d   1     -51.449  26.796  33.817  0.00  0.00    -0.200 OA
BRANCH  11  14
ATOM     14  C   UNL d   1     -50.326  26.657  33.874  0.00  0.00     0.104 A 
ATOM     15  C   UNL d   1     -50.074  27.123  33.308  0.00  0.00     0.015 A 
ATOM     16  C   UNL d   1     -49.490  27.611  33.445  0.00  0.00     0.022 A 
ATOM     17  C   UNL d   1     -49.156  27.635  34.144  0.00  0.00     0.103 A 
ATOM     18  C   UNL d   1     -49.415  27.163  34.708  0.00  0.00     0.022 A 
ATOM     19  N   UNL d   1     -48.550  28.139  34.290  0.00  0.00    -0.148 N 
ATOM     20  C   UNL d   1     -49.993  26.679  34.577  0.00  0.00     0.015 A 
ENDBRANCH  11  14
ENDBRANCH   1  11
TORSDOF 2
ENDMDL
