MODEL 1
REMARK VINA RESULT:      74.3      0.000      0.000
REMARK  8 active torsions:
REMARK  status: ('A' for Active; 'I' for Inactive)
REMARK    1  A    between atoms: C_8  and  N_1 
REMARK    2  A    between atoms: C_6  and  C_2 
REMARK    3  A    between atoms: S_7  and  C_4 
REMARK    4  A    between atoms: C_12  and  S_7 
REMARK    5  A    between atoms: C_9  and  C_12 
REMARK    6  A    between atoms: O_14  and  C_9 
REMARK    7  A    between atoms: O_16  and  C_13 
REMARK    8  A    between atoms: C_21  and  O_14 
ROOT
ATOM      1  N   UNL d   1      57.724  49.254  52.291  0.00  0.00    -0.269 N 
ATOM      2  C   UNL d   1      58.510  49.447  52.148  0.00  0.00     0.171 A 
ATOM      3  N   UNL d   1      58.825  49.706  52.876  0.00  0.00    -0.128 NA
ATOM      4  C   UNL d   1      57.563  49.392  53.090  0.00  0.00     0.201 A 
ATOM      5  N   UNL d   1      58.266  49.677  53.448  0.00  0.00    -0.121 NA
ENDROOT
BRANCH   2   6
ATOM      6  C   UNL d   1      58.840  49.375  51.421  0.00  0.00     0.038 A 
ATOM      7  C   UNL d   1      59.561  48.986  51.327  0.00  0.00     0.027 A 
ATOM      8  C   UNL d   1      59.913  48.899  50.615  0.00  0.00     0.094 A 
ATOM      9  C   UNL d   1      59.537  49.214  49.927  0.00  0.00     0.024 A 
ATOM     10  C   UNL d   1      58.815  49.603  50.020  0.00  0.00     0.002 A 
ATOM     11  C   UNL d   1      58.475  49.678  50.768  0.00  0.00     0.003 A 
BRANCH   8  12
ATOM     12  O   UNL d   1      60.653  48.496  50.553  0.00  0.00    -0.328 OA
ATOM     13  C   UNL d   1      61.058  48.290  51.243  0.00  0.00     0.181 C 
ENDBRANCH   8  12
ENDBRANCH   2   6
BRANCH   1  14
ATOM     14  C   UNL d   1      57.286  48.979  51.644  0.00  0.00     0.067 A 
ATOM     15  C   UNL d   1      57.500  48.266  51.296  0.00  0.00     0.018 A 
ATOM     16  C   UNL d   1      57.058  47.995  50.647  0.00  0.00     0.002 A 
ATOM     17  C   UNL d   1      56.417  48.420  50.349  0.00  0.00     0.000 A 
ATOM     18  C   UNL d   1      56.206  49.139  50.705  0.00  0.00     0.002 A 
ATOM     19  C   UNL d   1      56.648  49.411  51.354  0.00  0.00     0.018 A 
ENDBRANCH   1  14
BRANCH   4  20
ATOM     20  S   UNL d   1      56.811  49.264  53.473  0.00  0.00    -0.042 SA
BRANCH  20  21
ATOM     21  C   UNL d   1      56.562  49.705  54.129  0.00  0.00     0.107 C 
BRANCH  21  22
ATOM     22  C   UNL d   1      56.521  49.370  54.876  0.00  0.00     0.307 C 
ATOM     23  O   UNL d   1      56.932  49.694  55.528  0.00  0.00    -0.258 OA
BRANCH  22  24
ATOM     24  O   UNL d   1      56.059  48.690  54.983  0.00  0.00    -0.271 OA
BRANCH  24  25
ATOM     25  C   UNL d   1      56.172  48.190  55.640  0.00  0.00     0.126 C 
ATOM     26  C   UNL d   1      56.895  48.166  56.043  0.00  0.00     0.029 C 
ENDBRANCH  24  25
ENDBRANCH  22  24
ENDBRANCH  21  22
ENDBRANCH  20  21
ENDBRANCH   4  20
TORSDOF 8
ENDMDL
