MODEL 1
REMARK VINA RESULT:      -8.7      0.000      0.000
REMARK  4 active torsions:
REMARK  status: ('A' for Active; 'I' for Inactive)
REMARK    1  A    between atoms: C_2  and  S_1 
REMARK    2  A    between atoms: N_3  and  S_1 
REMARK    3  A    between atoms: C_5  and  C_6 
REMARK       I    between atoms: N_7  and  C_5 
REMARK    4  A    between atoms: C_15  and  N_7 
ROOT
ATOM      1  C   UNL d   1     -47.710  13.638  22.660  0.00  0.00     0.115 A 
ATOM      2  C   UNL d   1     -47.156  13.015  22.686  0.00  0.00     0.019 A 
ATOM      3  C   UNL d   1     -46.348  13.179  22.718  0.00  0.00     0.059 A 
ATOM      4  C   UNL d   1     -47.440  14.416  22.667  0.00  0.00     0.070 A 
ATOM      5  C   UNL d   1     -46.090  13.967  22.725  0.00  0.00     0.006 A 
ATOM      6  C   UNL d   1     -46.632  14.580  22.699  0.00  0.00     0.012 A 
ATOM      7 CL   UNL d   1     -47.994  15.039  22.641  0.00  0.00    -0.082 Cl
ENDROOT
BRANCH   1   8
ATOM      8  S   UNL d   1     -48.518  13.474  22.628  0.00  0.00     0.272 S 
ATOM      9  O   UNL d   1     -48.469  13.398  21.804  0.00  0.00    -0.200 OA
ATOM     10  O   UNL d   1     -48.565  13.549  23.444  0.00  0.00    -0.200 OA
BRANCH   8  11
ATOM     11  N   UNL d   1     -49.321  13.311  22.596  0.00  0.00    -0.229 N 
ATOM     12  C   UNL d   1     -49.644  13.390  21.800  0.00  0.00     0.092 A 
ATOM     13  C   UNL d   1     -50.293  13.308  21.506  0.00  0.00     0.020 A 
ATOM     14  C   UNL d   1     -50.988  13.085  21.918  0.00  0.00     0.002 A 
ATOM     15  C   UNL d   1     -51.062  12.911  22.771  0.00  0.00     0.002 A 
ATOM     16  C   UNL d   1     -50.418  12.933  23.383  0.00  0.00     0.020 A 
ATOM     17  C   UNL d   1     -49.615  13.128  23.244  0.00  0.00     0.092 A 
ENDBRANCH   8  11
ENDBRANCH   1   8
BRANCH   3  18
ATOM     18  C   UNL d   1     -45.798  12.567  22.744  0.00  0.00     0.279 C 
ATOM     19  N   UNL d   1     -45.808  12.024  23.359  0.00  0.00    -0.206 NA
ATOM     20  O   UNL d   1     -45.232  12.500  22.146  0.00  0.00    -0.265 OA
BRANCH  19  21
ATOM     21  C   UNL d   1     -45.257  11.410  23.388  0.00  0.00     0.104 A 
ATOM     22  C   UNL d   1     -44.492  11.540  23.145  0.00  0.00     0.118 A 
ATOM     23  N   UNL d   1     -43.946  10.925  23.175  0.00  0.00    -0.241 NA
ATOM     24  C   UNL d   1     -44.179  10.179  23.452  0.00  0.00     0.099 A 
ATOM     25  C   UNL d   1     -44.953  10.052  23.695  0.00  0.00     0.022 A 
ATOM     26  C   UNL d   1     -45.505  10.674  23.665  0.00  0.00     0.022 A 
ENDBRANCH  19  21
ENDBRANCH   3  18
TORSDOF 4
ENDMDL
MODEL 2
REMARK VINA RESULT:      -8.1      1.523      2.105
REMARK  4 active torsions:
REMARK  status: ('A' for Active; 'I' for Inactive)
REMARK    1  A    between atoms: C_2  and  S_1 
REMARK    2  A    between atoms: N_3  and  S_1 
REMARK    3  A    between atoms: C_5  and  C_6 
REMARK       I    between atoms: N_7  and  C_5 
REMARK    4  A    between atoms: C_15  and  N_7 
ROOT
ATOM      1  C   UNL d   1     -48.486  12.677  23.117  0.00  0.00     0.115 A 
ATOM      2  C   UNL d   1     -47.683  12.847  22.965  0.00  0.00     0.019 A 
ATOM      3  C   UNL d   1     -47.098  12.307  23.180  0.00  0.00     0.059 A 
ATOM      4  C   UNL d   1     -48.685  11.967  23.482  0.00  0.00     0.070 A 
ATOM      5  C   UNL d   1     -47.312  11.595  23.548  0.00  0.00     0.006 A 
ATOM      6  C   UNL d   1     -48.099  11.427  23.697  0.00  0.00     0.012 A 
ATOM      7 CL   UNL d   1     -49.487  11.797  23.634  0.00  0.00    -0.082 Cl
ENDROOT
BRANCH   1   8
ATOM      8  S   UNL d   1     -49.071  13.217  22.901  0.00  0.00     0.272 S 
ATOM      9  O   UNL d   1     -49.061  12.920  22.128  0.00  0.00    -0.200 OA
ATOM     10  O   UNL d   1     -49.081  13.512  23.668  0.00  0.00    -0.200 OA
BRANCH   8  11
ATOM     11  N   UNL d   1     -49.653  13.754  22.688  0.00  0.00    -0.229 N 
ATOM     12  C   UNL d   1     -49.624  14.479  23.155  0.00  0.00     0.092 A 
ATOM     13  C   UNL d   1     -50.004  15.086  23.171  0.00  0.00     0.020 A 
ATOM     14  C   UNL d   1     -50.655  15.266  22.676  0.00  0.00     0.002 A 
ATOM     15  C   UNL d   1     -50.997  14.759  22.051  0.00  0.00     0.002 A 
ATOM     16  C   UNL d   1     -50.727  13.948  21.808  0.00  0.00     0.020 A 
ATOM     17  C   UNL d   1     -50.088  13.522  22.143  0.00  0.00     0.092 A 
ENDBRANCH   8  11
ENDBRANCH   1   8
BRANCH   3  18
ATOM     18  C   UNL d   1     -46.305  12.469  23.033  0.00  0.00     0.279 C 
ATOM     19  N   UNL d   1     -45.953  12.227  22.332  0.00  0.00    -0.206 NA
ATOM     20  O   UNL d   1     -45.859  12.879  23.595  0.00  0.00    -0.265 OA
BRANCH  19  21
ATOM     21  C   UNL d   1     -45.158  12.389  22.181  0.00  0.00     0.104 A 
ATOM     22  C   UNL d   1     -44.582  11.896  22.476  0.00  0.00     0.118 A 
ATOM     23  N   UNL d   1     -43.790  12.060  22.324  0.00  0.00    -0.241 NA
ATOM     24  C   UNL d   1     -43.585  12.725  21.872  0.00  0.00     0.099 A 
ATOM     25  C   UNL d   1     -44.170  13.219  21.576  0.00  0.00     0.022 A 
ATOM     26  C   UNL d   1     -44.971  13.053  21.730  0.00  0.00     0.022 A 
ENDBRANCH  19  21
ENDBRANCH   3  18
TORSDOF 4
ENDMDL
MODEL 3
REMARK VINA RESULT:      -7.1      8.127      9.492
REMARK  4 active torsions:
REMARK  status: ('A' for Active; 'I' for Inactive)
REMARK    1  A    between atoms: C_2  and  S_1 
REMARK    2  A    between atoms: N_3  and  S_1 
REMARK    3  A    between atoms: C_5  and  C_6 
REMARK       I    between atoms: N_7  and  C_5 
REMARK    4  A    between atoms: C_15  and  N_7 
ROOT
ATOM      1  C   UNL d   1     -39.824  15.283  20.559  0.00  0.00     0.115 A 
ATOM      2  C   UNL d   1     -39.411  15.068  19.868  0.00  0.00     0.019 A 
ATOM      3  C   UNL d   1     -39.706  15.278  19.126  0.00  0.00     0.059 A 
ATOM      4  C   UNL d   1     -40.528  15.706  20.492  0.00  0.00     0.070 A 
ATOM      5  C   UNL d   1     -40.415  15.703  19.072  0.00  0.00     0.006 A 
ATOM      6  C   UNL d   1     -40.823  15.916  19.751  0.00  0.00     0.012 A 
ATOM      7 CL   UNL d   1     -40.941  15.922  21.184  0.00  0.00    -0.082 Cl
ENDROOT
BRANCH   1   8
ATOM      8  S   UNL d   1     -39.529  15.074  21.301  0.00  0.00     0.272 S 
ATOM      9  O   UNL d   1     -40.018  14.404  21.306  0.00  0.00    -0.200 OA
ATOM     10  O   UNL d   1     -39.045  15.737  21.295  0.00  0.00    -0.200 OA
BRANCH   8  11
ATOM     11  N   UNL d   1     -39.236  14.866  22.037  0.00  0.00    -0.229 N 
ATOM     12  C   UNL d   1     -39.166  14.012  22.138  0.00  0.00     0.092 A 
ATOM     13  C   UNL d   1     -38.945  13.580  22.665  0.00  0.00     0.020 A 
ATOM     14  C   UNL d   1     -38.665  13.832  23.414  0.00  0.00     0.002 A 
ATOM     15  C   UNL d   1     -38.586  14.655  23.698  0.00  0.00     0.002 A 
ATOM     16  C   UNL d   1     -38.785  15.398  23.254  0.00  0.00     0.020 A 
ATOM     17  C   UNL d   1     -39.089  15.438  22.473  0.00  0.00     0.092 A 
ENDBRANCH   8  11
ENDBRANCH   1   8
BRANCH   3  18
ATOM     18  C   UNL d   1     -39.301  15.067  18.441  0.00  0.00     0.279 C 
ATOM     19  N   UNL d   1     -39.512  14.393  18.023  0.00  0.00    -0.206 NA
ATOM     20  O   UNL d   1     -38.679  15.539  18.172  0.00  0.00    -0.265 OA
BRANCH  19  21
ATOM     21  C   UNL d   1     -39.109  14.179  17.335  0.00  0.00     0.104 A 
ATOM     22  C   UNL d   1     -39.226  14.601  16.650  0.00  0.00     0.118 A 
ATOM     23  N   UNL d   1     -38.822  14.385  15.966  0.00  0.00    -0.241 NA
ATOM     24  C   UNL d   1     -38.300  13.741  15.980  0.00  0.00     0.099 A 
ATOM     25  C   UNL d   1     -38.185  13.319  16.675  0.00  0.00     0.022 A 
ATOM     26  C   UNL d   1     -38.593  13.537  17.366  0.00  0.00     0.022 A 
ENDBRANCH  19  21
ENDBRANCH   3  18
TORSDOF 4
ENDMDL
MODEL 4
REMARK VINA RESULT:      -7.0      8.258      9.627
REMARK  4 active torsions:
REMARK  status: ('A' for Active; 'I' for Inactive)
REMARK    1  A    between atoms: C_2  and  S_1 
REMARK    2  A    between atoms: N_3  and  S_1 
REMARK    3  A    between atoms: C_5  and  C_6 
REMARK       I    between atoms: N_7  and  C_5 
REMARK    4  A    between atoms: C_15  and  N_7 
ROOT
ATOM      1  C   UNL d   1     -39.653  14.286  18.797  0.00  0.00     0.115 A 
ATOM      2  C   UNL d   1     -39.221  14.251  19.509  0.00  0.00     0.019 A 
ATOM      3  C   UNL d   1     -39.597  14.399  20.229  0.00  0.00     0.059 A 
ATOM      4  C   UNL d   1     -40.456  14.469  18.821  0.00  0.00     0.070 A 
ATOM      5  C   UNL d   1     -40.406  14.582  20.239  0.00  0.00     0.006 A 
ATOM      6  C   UNL d   1     -40.831  14.617  19.540  0.00  0.00     0.012 A 
ATOM      7 CL   UNL d   1     -40.887  14.503  18.108  0.00  0.00    -0.082 Cl
ENDROOT
BRANCH   1   8
ATOM      8  S   UNL d   1     -39.277  14.138  18.077  0.00  0.00     0.272 S 
ATOM      9  O   UNL d   1     -39.564  13.360  18.087  0.00  0.00    -0.200 OA
ATOM     10  O   UNL d   1     -38.994  14.908  18.067  0.00  0.00    -0.200 OA
BRANCH   8  11
ATOM     11  N   UNL d   1     -38.904  13.991  17.362  0.00  0.00    -0.229 N 
ATOM     12  C   UNL d   1     -38.515  13.222  17.342  0.00  0.00     0.092 A 
ATOM     13  C   UNL d   1     -38.132  12.859  16.857  0.00  0.00     0.020 A 
ATOM     14  C   UNL d   1     -37.943  13.131  16.087  0.00  0.00     0.002 A 
ATOM     15  C   UNL d   1     -38.170  13.894  15.726  0.00  0.00     0.002 A 
ATOM     16  C   UNL d   1     -38.648  14.544  16.099  0.00  0.00     0.020 A 
ATOM     17  C   UNL d   1     -38.969  14.536  16.873  0.00  0.00     0.092 A 
ENDBRANCH   8  11
ENDBRANCH   1   8
BRANCH   3  18
ATOM     18  C   UNL d   1     -39.175  14.366  20.935  0.00  0.00     0.279 C 
ATOM     19  N   UNL d   1     -39.347  13.793  21.497  0.00  0.00    -0.206 NA
ATOM     20  O   UNL d   1     -38.574  14.915  21.079  0.00  0.00    -0.265 OA
BRANCH  19  21
ATOM     21  C   UNL d   1     -38.926  13.757  22.205  0.00  0.00     0.104 A 
ATOM     22  C   UNL d   1     -39.069  14.305  22.789  0.00  0.00     0.118 A 
ATOM     23  N   UNL d   1     -38.647  14.266  23.495  0.00  0.00    -0.241 NA
ATOM     24  C   UNL d   1     -38.081  13.671  23.606  0.00  0.00     0.099 A 
ATOM     25  C   UNL d   1     -37.940  13.120  23.013  0.00  0.00     0.022 A 
ATOM     26  C   UNL d   1     -38.366  13.159  22.300  0.00  0.00     0.022 A 
ENDBRANCH  19  21
ENDBRANCH   3  18
TORSDOF 4
ENDMDL
