MODEL 1
REMARK VINA RESULT:      -4.9      0.000      0.000
REMARK  4 active torsions:
REMARK  status: ('A' for Active; 'I' for Inactive)
REMARK    1  A    between atoms: C_10  and  N_4 
REMARK    2  A    between atoms: C_11  and  C_10 
REMARK       I    between atoms: N_15  and  C_11 
REMARK    3  A    between atoms: C_12  and  C_20 
REMARK    4  A    between atoms: C_20  and  N_15 
ROOT
ATOM      1  C   UNL d   1      57.284   0.678  32.796  0.00  0.00     0.174 A 
ATOM      2  C   UNL d   1      56.506   0.674  32.536  0.00  0.00     0.112 A 
ATOM      3  C   UNL d   1      57.906   0.677  32.257  0.00  0.00     0.290 A 
ATOM      4  N   UNL d   1      57.744   0.673  31.449  0.00  0.00    -0.249 N 
ATOM      5  O   UNL d   1      57.273   0.681  33.624  0.00  0.00    -0.301 OA
ATOM      6  N   UNL d   1      56.344   0.670  31.729  0.00  0.00    -0.223 NA
ATOM      7  C   UNL d   1      56.012   0.676  33.197  0.00  0.00     0.043 A 
ATOM      8  C   UNL d   1      56.961   0.670  31.182  0.00  0.00     0.185 A 
ATOM      9  C   UNL d   1      56.490   0.680  33.872  0.00  0.00     0.102 A 
ATOM     10  O   UNL d   1      58.686   0.681  32.518  0.00  0.00    -0.264 OA
ATOM     11  C   UNL d   1      55.192   0.673  33.270  0.00  0.00     0.004 A 
ATOM     12  C   UNL d   1      56.140   0.682  34.619  0.00  0.00     0.025 A 
ATOM     13  C   UNL d   1      54.839   0.676  34.021  0.00  0.00     0.000 A 
ATOM     14  C   UNL d   1      55.320   0.680  34.692  0.00  0.00     0.002 A 
ENDROOT
BRANCH   4  15
ATOM     15  C   UNL d   1      58.361   0.673  30.897  0.00  0.00     0.147 C 
BRANCH  15  16
ATOM     16  C   UNL d   1      58.267   0.306  30.165  0.00  0.00     0.297 C 
ATOM     17  N   UNL d   1      58.726  -0.344  29.988  0.00  0.00    -0.203 NA
ATOM     18  O   UNL d   1      57.718   0.591  29.621  0.00  0.00    -0.264 OA
BRANCH  17  19
ATOM     19  C   UNL d   1      58.640  -0.719  29.259  0.00  0.00     0.127 C 
BRANCH  19  20
ATOM     20  C   UNL d   1      58.969  -1.469  29.147  0.00  0.00     0.119 A 
ATOM     21  O   UNL d   1      58.633  -2.195  29.348  0.00  0.00    -0.304 OA
ATOM     22  C   UNL d   1      59.163  -2.801  29.132  0.00  0.00     0.123 A 
ATOM     23  C   UNL d   1      59.833  -2.444  28.795  0.00  0.00     0.029 A 
ATOM     24  C   UNL d   1      59.719  -1.624  28.801  0.00  0.00     0.028 A 
ENDBRANCH  19  20
ENDBRANCH  17  19
ENDBRANCH  15  16
ENDBRANCH   4  15
TORSDOF 4
ENDMDL
MODEL 2
REMARK VINA RESULT:      -4.0      1.180      5.429
REMARK  4 active torsions:
REMARK  status: ('A' for Active; 'I' for Inactive)
REMARK    1  A    between atoms: C_10  and  N_4 
REMARK    2  A    between atoms: C_11  and  C_10 
REMARK       I    between atoms: N_15  and  C_11 
REMARK    3  A    between atoms: C_12  and  C_20 
REMARK    4  A    between atoms: C_20  and  N_15 
ROOT
ATOM      1  C   UNL d   1      60.004  -1.726  29.213  0.00  0.00     0.174 A 
ATOM      2  C   UNL d   1      59.397  -2.263  29.089  0.00  0.00     0.112 A 
ATOM      3  C   UNL d   1      59.839  -0.953  29.443  0.00  0.00     0.290 A 
ATOM      4  N   UNL d   1      59.057  -0.718  29.548  0.00  0.00    -0.249 N 
ATOM      5  O   UNL d   1      60.720  -2.117  29.067  0.00  0.00    -0.301 OA
ATOM      6  N   UNL d   1      58.615  -2.028  29.193  0.00  0.00    -0.223 NA
ATOM      7  C   UNL d   1      59.730  -2.984  28.866  0.00  0.00     0.043 A 
ATOM      8  C   UNL d   1      58.441  -1.255  29.423  0.00  0.00     0.185 A 
ATOM      9  C   UNL d   1      60.552  -2.891  28.853  0.00  0.00     0.102 A 
ATOM     10  O   UNL d   1      60.450  -0.414  29.568  0.00  0.00    -0.264 OA
ATOM     11  C   UNL d   1      59.392  -3.710  28.675  0.00  0.00     0.004 A 
ATOM     12  C   UNL d   1      61.031  -3.531  28.647  0.00  0.00     0.025 A 
ATOM     13  C   UNL d   1      59.873  -4.353  28.467  0.00  0.00     0.000 A 
ATOM     14  C   UNL d   1      60.693  -4.257  28.455  0.00  0.00     0.002 A 
ENDROOT
BRANCH   4  15
ATOM     15  C   UNL d   1      58.878   0.057  29.778  0.00  0.00     0.147 C 
BRANCH  15  16
ATOM     16  C   UNL d   1      58.127   0.248  30.057  0.00  0.00     0.297 C 
ATOM     17  N   UNL d   1      58.003   0.290  30.862  0.00  0.00    -0.203 NA
ATOM     18  O   UNL d   1      57.510   0.394  29.531  0.00  0.00    -0.264 OA
BRANCH  17  19
ATOM     19  C   UNL d   1      57.256   0.480  31.151  0.00  0.00     0.127 C 
BRANCH  19  20
ATOM     20  C   UNL d   1      57.108   0.424  31.962  0.00  0.00     0.119 A 
ATOM     21  O   UNL d   1      57.601   0.672  32.576  0.00  0.00    -0.304 OA
ATOM     22  C   UNL d   1      57.226   0.505  33.301  0.00  0.00     0.123 A 
ATOM     23  C   UNL d   1      56.494   0.151  33.132  0.00  0.00     0.029 A 
ATOM     24  C   UNL d   1      56.416   0.099  32.310  0.00  0.00     0.028 A 
ENDBRANCH  19  20
ENDBRANCH  17  19
ENDBRANCH  15  16
ENDBRANCH   4  15
TORSDOF 4
ENDMDL
MODEL 3
REMARK VINA RESULT:      -3.8      0.909      5.226
REMARK  4 active torsions:
REMARK  status: ('A' for Active; 'I' for Inactive)
REMARK    1  A    between atoms: C_10  and  N_4 
REMARK    2  A    between atoms: C_11  and  C_10 
REMARK       I    between atoms: N_15  and  C_11 
REMARK    3  A    between atoms: C_12  and  C_20 
REMARK    4  A    between atoms: C_20  and  N_15 
ROOT
ATOM      1  C   UNL d   1      58.666  -0.792  29.681  0.00  0.00     0.174 A 
ATOM      2  C   UNL d   1      58.388  -1.545  29.849  0.00  0.00     0.112 A 
ATOM      3  C   UNL d   1      58.321  -0.131  30.030  0.00  0.00     0.290 A 
ATOM      4  N   UNL d   1      57.692  -0.228  30.552  0.00  0.00    -0.249 N 
ATOM      5  O   UNL d   1      59.293  -0.868  29.146  0.00  0.00    -0.301 OA
ATOM      6  N   UNL d   1      57.759  -1.642  30.371  0.00  0.00    -0.223 NA
ATOM      7  C   UNL d   1      58.838  -2.089  29.422  0.00  0.00     0.043 A 
ATOM      8  C   UNL d   1      57.408  -0.985  30.725  0.00  0.00     0.185 A 
ATOM      9  C   UNL d   1      59.400  -1.666  28.986  0.00  0.00     0.102 A 
ATOM     10  O   UNL d   1      58.601   0.625  29.861  0.00  0.00    -0.264 OA
ATOM     11  C   UNL d   1      58.809  -2.910  29.375  0.00  0.00     0.004 A 
ATOM     12  C   UNL d   1      59.930  -2.074  28.503  0.00  0.00     0.025 A 
ATOM     13  C   UNL d   1      59.342  -3.320  28.889  0.00  0.00     0.000 A 
ATOM     14  C   UNL d   1      59.901  -2.895  28.455  0.00  0.00     0.002 A 
ENDROOT
BRANCH   4  15
ATOM     15  C   UNL d   1      57.336   0.429  30.909  0.00  0.00     0.147 C 
BRANCH  15  16
ATOM     16  C   UNL d   1      57.362   0.526  31.727  0.00  0.00     0.297 C 
ATOM     17  N   UNL d   1      56.662   0.585  32.140  0.00  0.00    -0.203 NA
ATOM     18  O   UNL d   1      58.085   0.563  32.121  0.00  0.00    -0.264 OA
BRANCH  17  19
ATOM     19  C   UNL d   1      56.676   0.682  32.958  0.00  0.00     0.127 C 
BRANCH  19  20
ATOM     20  C   UNL d   1      55.971   0.631  33.386  0.00  0.00     0.119 A 
ATOM     21  O   UNL d   1      55.203   0.664  33.084  0.00  0.00    -0.304 OA
ATOM     22  C   UNL d   1      54.667   0.589  33.718  0.00  0.00     0.123 A 
ATOM     23  C   UNL d   1      55.109   0.509  34.416  0.00  0.00     0.029 A 
ATOM     24  C   UNL d   1      55.912   0.534  34.218  0.00  0.00     0.028 A 
ENDBRANCH  19  20
ENDBRANCH  17  19
ENDBRANCH  15  16
ENDBRANCH   4  15
TORSDOF 4
ENDMDL
MODEL 4
REMARK VINA RESULT:      -3.7      1.166      1.454
REMARK  4 active torsions:
REMARK  status: ('A' for Active; 'I' for Inactive)
REMARK    1  A    between atoms: C_10  and  N_4 
REMARK    2  A    between atoms: C_11  and  C_10 
REMARK       I    between atoms: N_15  and  C_11 
REMARK    3  A    between atoms: C_12  and  C_20 
REMARK    4  A    between atoms: C_20  and  N_15 
ROOT
ATOM      1  C   UNL d   1      56.672   0.554  33.557  0.00  0.00     0.174 A 
ATOM      2  C   UNL d   1      55.944   0.597  33.179  0.00  0.00     0.112 A 
ATOM      3  C   UNL d   1      57.369   0.523  33.121  0.00  0.00     0.290 A 
ATOM      4  N   UNL d   1      57.335   0.534  32.298  0.00  0.00    -0.249 N 
ATOM      5  O   UNL d   1      56.531   0.552  34.373  0.00  0.00    -0.301 OA
ATOM      6  N   UNL d   1      55.911   0.608  32.356  0.00  0.00    -0.223 NA
ATOM      7  C   UNL d   1      55.354   0.621  33.755  0.00  0.00     0.043 A 
ATOM      8  C   UNL d   1      56.605   0.577  31.912  0.00  0.00     0.185 A 
ATOM      9  C   UNL d   1      55.720   0.593  34.496  0.00  0.00     0.102 A 
ATOM     10  O   UNL d   1      58.098   0.480  33.501  0.00  0.00    -0.264 OA
ATOM     11  C   UNL d   1      54.534   0.665  33.699  0.00  0.00     0.004 A 
ATOM     12  C   UNL d   1      55.259   0.610  35.179  0.00  0.00     0.025 A 
ATOM     13  C   UNL d   1      54.069   0.682  34.386  0.00  0.00     0.000 A 
ATOM     14  C   UNL d   1      54.438   0.654  35.124  0.00  0.00     0.002 A 
ENDROOT
BRANCH   4  15
ATOM     15  C   UNL d   1      58.030   0.503  31.848  0.00  0.00     0.147 C 
BRANCH  15  16
ATOM     16  C   UNL d   1      58.031   0.151  31.104  0.00  0.00     0.297 C 
ATOM     17  N   UNL d   1      58.658   0.290  30.602  0.00  0.00    -0.203 NA
ATOM     18  O   UNL d   1      57.407  -0.334  30.869  0.00  0.00    -0.264 OA
BRANCH  17  19
ATOM     19  C   UNL d   1      58.669  -0.057  29.855  0.00  0.00     0.127 C 
BRANCH  19  20
ATOM     20  C   UNL d   1      59.322   0.059  29.362  0.00  0.00     0.119 A 
ATOM     21  O   UNL d   1      59.441   0.681  28.833  0.00  0.00    -0.304 OA
ATOM     22  C   UNL d   1      60.176   0.570  28.456  0.00  0.00     0.123 A 
ATOM     23  C   UNL d   1      60.512  -0.128  28.756  0.00  0.00     0.029 A 
ATOM     24  C   UNL d   1      59.991  -0.446  29.314  0.00  0.00     0.028 A 
ENDBRANCH  19  20
ENDBRANCH  17  19
ENDBRANCH  15  16
ENDBRANCH   4  15
TORSDOF 4
ENDMDL
