MODEL 1
REMARK VINA RESULT:      -8.0      0.000      0.000
REMARK  5 active torsions:
REMARK  status: ('A' for Active; 'I' for Inactive)
REMARK    1  A    between atoms: S_9  and  C_2 
REMARK    2  A    between atoms: C_7  and  C_18 
REMARK       I    between atoms: N_13  and  C_7 
REMARK    3  A    between atoms: C_18  and  S_9 
REMARK    4  A    between atoms: C_20  and  N_13 
REMARK    5  A    between atoms: C_19  and  C_20 
ROOT
ATOM      1  C   UNL d   1     -49.812  13.151  22.099  0.00  0.00     0.286 C 
ATOM      2  N   UNL d   1     -49.043  12.870  22.228  0.00  0.00    -0.206 NA
ATOM      3  O   UNL d   1     -50.160  13.077  21.353  0.00  0.00    -0.265 OA
ENDROOT
BRANCH   2   4
ATOM      4  C   UNL d   1     -48.685  12.943  22.986  0.00  0.00     0.102 C 
BRANCH   4   5
ATOM      5  C   UNL d   1     -47.892  12.692  23.099  0.00  0.00     0.021 A 
ATOM      6  C   UNL d   1     -47.726  11.915  23.346  0.00  0.00     0.028 A 
ATOM      7  C   UNL d   1     -46.936  11.681  23.453  0.00  0.00     0.119 A 
ATOM      8  O   UNL d   1     -46.602  10.975  23.686  0.00  0.00    -0.300 OA
ATOM      9  C   UNL d   1     -46.326  12.218  23.314  0.00  0.00     0.119 A 
ATOM     10  C   UNL d   1     -45.792  11.053  23.698  0.00  0.00     0.304 A 
ATOM     11  O   UNL d   1     -45.619  11.842  23.462  0.00  0.00    -0.300 OA
ATOM     12  C   UNL d   1     -46.502  12.983  23.070  0.00  0.00     0.026 A 
ATOM     13  C   UNL d   1     -47.295  13.214  22.964  0.00  0.00     0.004 A 
ENDBRANCH   4   5
ENDBRANCH   2   4
BRANCH   1  14
ATOM     14  C   UNL d   1     -50.219  13.503  22.724  0.00  0.00     0.101 C 
BRANCH  14  15
ATOM     15  S   UNL d   1     -50.758  13.081  23.185  0.00  0.00    -0.041 SA
BRANCH  15  16
ATOM     16  C   UNL d   1     -50.661  13.882  23.042  0.00  0.00     0.233 A 
ATOM     17  N   UNL d   1     -50.433  14.469  23.594  0.00  0.00    -0.029 NA
ATOM     18  C   UNL d   1     -50.409  15.188  23.201  0.00  0.00     0.788 A 
ATOM     19  N   UNL d   1     -50.615  15.067  22.421  0.00  0.00     0.050 NA
ATOM     20  N   UNL d   1     -50.208  15.921  23.541  0.00  0.00     0.064 N 
ATOM     21  N   UNL d   1     -50.773  14.270  22.306  0.00  0.00    -0.105 NA
ENDBRANCH  15  16
ENDBRANCH  14  15
ENDBRANCH   1  14
TORSDOF 5
ENDMDL
MODEL 2
REMARK VINA RESULT:      -7.8      1.210      1.546
REMARK  5 active torsions:
REMARK  status: ('A' for Active; 'I' for Inactive)
REMARK    1  A    between atoms: S_9  and  C_2 
REMARK    2  A    between atoms: C_7  and  C_18 
REMARK       I    between atoms: N_13  and  C_7 
REMARK    3  A    between atoms: C_18  and  S_9 
REMARK    4  A    between atoms: C_20  and  N_13 
REMARK    5  A    between atoms: C_19  and  C_20 
ROOT
ATOM      1  C   UNL d   1     -48.897  15.139  22.571  0.00  0.00     0.286 C 
ATOM      2  N   UNL d   1     -48.192  14.720  22.691  0.00  0.00    -0.206 NA
ATOM      3  O   UNL d   1     -48.880  15.879  22.201  0.00  0.00    -0.265 OA
ENDROOT
BRANCH   2   4
ATOM      4  C   UNL d   1     -48.204  13.967  23.066  0.00  0.00     0.102 C 
BRANCH   4   5
ATOM      5  C   UNL d   1     -47.499  13.514  23.114  0.00  0.00     0.021 A 
ATOM      6  C   UNL d   1     -47.526  12.713  23.337  0.00  0.00     0.028 A 
ATOM      7  C   UNL d   1     -46.820  12.276  23.381  0.00  0.00     0.119 A 
ATOM      8  O   UNL d   1     -46.668  11.501  23.577  0.00  0.00    -0.300 OA
ATOM      9  C   UNL d   1     -46.102  12.640  23.202  0.00  0.00     0.119 A 
ATOM     10  C   UNL d   1     -45.868  11.363  23.528  0.00  0.00     0.304 A 
ATOM     11  O   UNL d   1     -45.511  12.087  23.290  0.00  0.00    -0.300 OA
ATOM     12  C   UNL d   1     -46.087  13.432  22.983  0.00  0.00     0.026 A 
ATOM     13  C   UNL d   1     -46.797  13.866  22.941  0.00  0.00     0.004 A 
ENDBRANCH   4   5
ENDBRANCH   2   4
BRANCH   1  14
ATOM     14  C   UNL d   1     -49.608  14.807  22.824  0.00  0.00     0.101 C 
BRANCH  14  15
ATOM     15  S   UNL d   1     -49.934  14.984  23.561  0.00  0.00    -0.041 SA
BRANCH  15  16
ATOM     16  C   UNL d   1     -50.268  14.743  22.852  0.00  0.00     0.233 A 
ATOM     17  N   UNL d   1     -50.472  13.962  22.632  0.00  0.00    -0.029 NA
ATOM     18  C   UNL d   1     -50.788  13.989  21.876  0.00  0.00     0.788 A 
ATOM     19  N   UNL d   1     -50.788  14.763  21.620  0.00  0.00     0.050 NA
ATOM     20  N   UNL d   1     -51.064  13.335  21.441  0.00  0.00     0.064 N 
ATOM     21  N   UNL d   1     -50.471  15.241  22.207  0.00  0.00    -0.105 NA
ENDBRANCH  15  16
ENDBRANCH  14  15
ENDBRANCH   1  14
TORSDOF 5
ENDMDL
MODEL 3
REMARK VINA RESULT:      -7.5      2.342      4.675
REMARK  5 active torsions:
REMARK  status: ('A' for Active; 'I' for Inactive)
REMARK    1  A    between atoms: S_9  and  C_2 
REMARK    2  A    between atoms: C_7  and  C_18 
REMARK       I    between atoms: N_13  and  C_7 
REMARK    3  A    between atoms: C_18  and  S_9 
REMARK    4  A    between atoms: C_20  and  N_13 
REMARK    5  A    between atoms: C_19  and  C_20 
ROOT
ATOM      1  C   UNL d   1     -46.822  12.568  23.139  0.00  0.00     0.286 C 
ATOM      2  N   UNL d   1     -47.586  12.624  22.824  0.00  0.00    -0.206 NA
ATOM      3  O   UNL d   1     -46.647  11.984  23.698  0.00  0.00    -0.265 OA
ENDROOT
BRANCH   2   4
ATOM      4  C   UNL d   1     -47.769  13.217  22.255  0.00  0.00     0.102 C 
BRANCH   4   5
ATOM      5  C   UNL d   1     -48.563  13.322  22.003  0.00  0.00     0.021 A 
ATOM      6  C   UNL d   1     -49.027  13.939  22.313  0.00  0.00     0.028 A 
ATOM      7  C   UNL d   1     -49.811  14.031  22.054  0.00  0.00     0.119 A 
ATOM      8  O   UNL d   1     -50.391  14.568  22.249  0.00  0.00    -0.300 OA
ATOM      9  C   UNL d   1     -50.121  13.512  21.493  0.00  0.00     0.119 A 
ATOM     10  C   UNL d   1     -51.064  14.401  21.824  0.00  0.00     0.304 A 
ATOM     11  O   UNL d   1     -50.891  13.731  21.345  0.00  0.00    -0.300 OA
ATOM     12  C   UNL d   1     -49.653  12.906  21.193  0.00  0.00     0.026 A 
ATOM     13  C   UNL d   1     -48.868  12.817  21.456  0.00  0.00     0.004 A 
ENDBRANCH   4   5
ENDBRANCH   2   4
BRANCH   1  14
ATOM     14  C   UNL d   1     -46.245  13.101  22.887  0.00  0.00     0.101 C 
BRANCH  14  15
ATOM     15  S   UNL d   1     -46.204  13.870  23.183  0.00  0.00    -0.041 SA
BRANCH  15  16
ATOM     16  C   UNL d   1     -45.648  13.384  22.827  0.00  0.00     0.233 A 
ATOM     17  N   UNL d   1     -45.161  13.570  22.173  0.00  0.00    -0.029 NA
ATOM     18  C   UNL d   1     -44.694  12.916  22.013  0.00  0.00     0.788 A 
ATOM     19  N   UNL d   1     -44.876  12.328  22.548  0.00  0.00     0.050 NA
ATOM     20  N   UNL d   1     -44.128  12.859  21.405  0.00  0.00     0.064 N 
ATOM     21  N   UNL d   1     -45.460  12.598  23.057  0.00  0.00    -0.105 NA
ENDBRANCH  15  16
ENDBRANCH  14  15
ENDBRANCH   1  14
TORSDOF 5
ENDMDL
MODEL 4
REMARK VINA RESULT:      -6.3      9.254     10.304
REMARK  5 active torsions:
REMARK  status: ('A' for Active; 'I' for Inactive)
REMARK    1  A    between atoms: S_9  and  C_2 
REMARK    2  A    between atoms: C_7  and  C_18 
REMARK       I    between atoms: N_13  and  C_7 
REMARK    3  A    between atoms: C_18  and  S_9 
REMARK    4  A    between atoms: C_20  and  N_13 
REMARK    5  A    between atoms: C_19  and  C_20 
ROOT
ATOM      1  C   UNL d   1     -40.579  14.466  18.291  0.00  0.00     0.286 C 
ATOM      2  N   UNL d   1     -40.475  14.628  19.097  0.00  0.00    -0.206 NA
ATOM      3  O   UNL d   1     -40.806  13.710  18.046  0.00  0.00    -0.265 OA
ENDROOT
BRANCH   2   4
ATOM      4  C   UNL d   1     -40.243  15.396  19.351  0.00  0.00     0.102 C 
BRANCH   4   5
ATOM      5  C   UNL d   1     -40.090  15.538  20.164  0.00  0.00     0.021 A 
ATOM      6  C   UNL d   1     -39.324  15.440  20.472  0.00  0.00     0.028 A 
ATOM      7  C   UNL d   1     -39.186  15.584  21.279  0.00  0.00     0.119 A 
ATOM      8  O   UNL d   1     -38.513  15.538  21.735  0.00  0.00    -0.300 OA
ATOM      9  C   UNL d   1     -39.808  15.822  21.764  0.00  0.00     0.119 A 
ATOM     10  C   UNL d   1     -38.694  15.742  22.501  0.00  0.00     0.304 A 
ATOM     11  O   UNL d   1     -39.516  15.922  22.518  0.00  0.00    -0.300 OA
ATOM     12  C   UNL d   1     -40.562  15.916  21.449  0.00  0.00     0.026 A 
ATOM     13  C   UNL d   1     -40.695  15.770  20.640  0.00  0.00     0.004 A 
ENDBRANCH   4   5
ENDBRANCH   2   4
BRANCH   1  14
ATOM     14  C   UNL d   1     -40.452  15.070  17.743  0.00  0.00     0.101 C 
BRANCH  14  15
ATOM     15  S   UNL d   1     -41.068  15.546  17.470  0.00  0.00    -0.041 SA
BRANCH  15  16
ATOM     16  C   UNL d   1     -40.344  15.339  17.146  0.00  0.00     0.233 A 
ATOM     17  N   UNL d   1     -39.698  15.848  16.988  0.00  0.00    -0.029 NA
ATOM     18  C   UNL d   1     -39.095  15.396  16.666  0.00  0.00     0.788 A 
ATOM     19  N   UNL d   1     -39.345  14.622  16.619  0.00  0.00     0.050 NA
ATOM     20  N   UNL d   1     -38.350  15.681  16.427  0.00  0.00     0.064 N 
ATOM     21  N   UNL d   1     -40.111  14.568  16.910  0.00  0.00    -0.105 NA
ENDBRANCH  15  16
ENDBRANCH  14  15
ENDBRANCH   1  14
TORSDOF 5
ENDMDL
