MODEL 1
REMARK VINA RESULT:      -1.7      0.000      0.000
REMARK  7 active torsions:
REMARK  status: ('A' for Active; 'I' for Inactive)
REMARK    1  A    between atoms: C_11  and  C_3 
REMARK    2  A    between atoms: C_10  and  C_4 
REMARK    3  A    between atoms: O_16  and  C_10 
REMARK    4  A    between atoms: N_15  and  C_11 
REMARK    5  A    between atoms: C_21  and  N_15 
REMARK    6  A    between atoms: C_23  and  O_16 
REMARK    7  A    between atoms: C_18  and  C_21 
ROOT
ATOM      1  C   UNL d   1      33.239  21.585 -22.281  0.00  0.00     0.035 A 
ATOM      2  C   UNL d   1      33.239  21.977 -21.556  0.00  0.00     0.100 A 
ATOM      3  C   UNL d   1      33.239  20.760 -22.311  0.00  0.00     0.060 A 
ATOM      4  C   UNL d   1      33.238  22.160 -22.878  0.00  0.00     0.088 A 
ATOM      5  O   UNL d   1      33.239  22.781 -21.706  0.00  0.00    -0.307 OA
ATOM      6  C   UNL d   1      33.238  22.871 -22.496  0.00  0.00     0.105 A 
ATOM      7  C   UNL d   1      33.239  20.320 -21.617  0.00  0.00     0.197 A 
ATOM      8  C   UNL d   1      33.240  21.533 -20.867  0.00  0.00     0.026 A 
ATOM      9  C   UNL d   1      33.240  20.708 -20.897  0.00  0.00     0.041 A 
ATOM     10  O   UNL d   1      33.240  19.500 -21.647  0.00  0.00    -0.286 OA
ATOM     11  C   UNL d   1      33.238  23.619 -22.893  0.00  0.00     0.027 C 
ATOM     12  C   UNL d   1      33.240  21.925 -20.137  0.00  0.00     0.002 A 
ATOM     13  C   UNL d   1      33.240  20.267 -20.198  0.00  0.00     0.003 A 
ATOM     14  C   UNL d   1      33.241  20.656 -19.478  0.00  0.00     0.000 A 
ATOM     15  C   UNL d   1      33.241  21.480 -19.448  0.00  0.00     0.000 A 
ENDROOT
BRANCH   3  16
ATOM     16  C   UNL d   1      33.238  20.346 -23.055  0.00  0.00     0.102 C 
BRANCH  16  17
ATOM     17  N   UNL d   1      33.026  19.539 -23.101  0.00  0.00    -0.241 NA
BRANCH  17  18
ATOM     18  C   UNL d   1      33.071  19.154 -23.819  0.00  0.00     0.118 C 
BRANCH  18  19
ATOM     19  C   UNL d   1      32.818  18.356 -23.874  0.00  0.00     0.101 A 
ATOM     20  N   UNL d   1      33.229  17.759 -23.490  0.00  0.00    -0.242 NA
ATOM     21  C   UNL d   1      32.981  16.974 -23.545  0.00  0.00     0.099 A 
ATOM     22  C   UNL d   1      32.319  16.777 -23.984  0.00  0.00     0.021 A 
ATOM     23  C   UNL d   1      31.903  17.372 -24.371  0.00  0.00     0.003 A 
ATOM     24  C   UNL d   1      32.151  18.157 -24.316  0.00  0.00     0.021 A 
ENDBRANCH  18  19
ENDBRANCH  17  18
ENDBRANCH  16  17
ENDBRANCH   3  16
BRANCH   4  25
ATOM     25  C   UNL d   1      33.238  22.058 -23.725  0.00  0.00     0.302 C 
ATOM     26  O   UNL d   1      33.234  21.295 -24.035  0.00  0.00    -0.259 OA
BRANCH  25  27
ATOM     27  O   UNL d   1      33.241  22.694 -24.204  0.00  0.00    -0.271 OA
BRANCH  27  28
ATOM     28  C   UNL d   1      32.735  22.739 -24.852  0.00  0.00     0.126 C 
ATOM     29  C   UNL d   1      32.398  23.466 -25.075  0.00  0.00     0.029 C 
ENDBRANCH  27  28
ENDBRANCH  25  27
ENDBRANCH   4  25
TORSDOF 7
ENDMDL
