MODEL 1
REMARK VINA RESULT:      20.3      0.000      0.000
REMARK  3 active torsions:
REMARK  status: ('A' for Active; 'I' for Inactive)
REMARK    1  A    between atoms: N_7  and  C_3 
REMARK       I    between atoms: C_8  and  N_7 
REMARK    2  A    between atoms: C_14  and  C_8 
REMARK    3  A    between atoms: C_15  and  C_14 
ROOT
ATOM      1  C   UNL d   1     -56.444-102.874 -38.214  0.00  0.00     0.343 A 
ATOM      2  N   UNL d   1     -56.019-102.873 -38.912  0.00  0.00    -0.241 N 
ATOM      3  C   UNL d   1     -55.198-102.873 -38.897  0.00  0.00     0.159 A 
ATOM      4  N   UNL d   1     -56.048-102.875 -37.491  0.00  0.00    -0.224 N 
ATOM      5  C   UNL d   1     -54.802-102.874 -38.173  0.00  0.00     0.099 A 
ATOM      6  C   UNL d   1     -55.223-102.875 -37.458  0.00  0.00     0.271 A 
ATOM      7  O   UNL d   1     -57.270-102.875 -38.232  0.00  0.00    -0.245 OA
ATOM      8  O   UNL d   1     -54.830-102.876 -36.741  0.00  0.00    -0.266 OA
ATOM      9  C   UNL d   1     -56.415-102.872 -39.636  0.00  0.00     0.105 C 
ATOM     10  C   UNL d   1     -56.477-102.876 -36.784  0.00  0.00     0.107 C 
ENDROOT
BRANCH   3  11
ATOM     11  N   UNL d   1     -54.767-102.872 -39.602  0.00  0.00    -0.190 NA
ATOM     12  C   UNL d   1     -55.148-102.732 -40.318  0.00  0.00     0.281 C 
ATOM     13  O   UNL d   1     -55.961-102.592 -40.332  0.00  0.00    -0.265 OA
BRANCH  12  14
ATOM     14  C   UNL d   1     -54.717-102.731 -41.020  0.00  0.00     0.063 C 
BRANCH  14  15
ATOM     15  C   UNL d   1     -54.783-102.092 -41.538  0.00  0.00     0.005 C 
ATOM     16  C   UNL d   1     -54.727-102.194 -42.338  0.00  0.00     0.000 C 
ENDBRANCH  14  15
ENDBRANCH  12  14
ENDBRANCH   3  11
TORSDOF 3
ENDMDL
