MODEL 1
REMARK VINA RESULT:      -7.6      0.000      0.000
REMARK  4 active torsions:
REMARK  status: ('A' for Active; 'I' for Inactive)
REMARK    1  A    between atoms: N_6  and  C_1 
REMARK    2  A    between atoms: C_7  and  N_2 
REMARK       I    between atoms: C_8  and  N_6 
REMARK    3  A    between atoms: C_19  and  C_8 
REMARK    4  A    between atoms: O_20  and  C_15 
ROOT
ATOM      1  C   UNL d   1     -48.982  13.114  22.857  0.00  0.00     0.169 A 
ATOM      2  N   UNL d   1     -48.271  12.703  22.988  0.00  0.00    -0.212 N 
ATOM      3  N   UNL d   1     -48.475  11.985  23.337  0.00  0.00    -0.163 NA
ATOM      4  C   UNL d   1     -49.592  12.646  23.124  0.00  0.00     0.062 A 
ATOM      5  C   UNL d   1     -49.298  11.936  23.428  0.00  0.00     0.111 A 
ATOM      6  S   UNL d   1     -50.601  11.880  23.562  0.00  0.00    -0.084 SA
ATOM      7  C   UNL d   1     -50.436  12.611  23.210  0.00  0.00     0.040 A 
ATOM      8  C   UNL d   1     -49.937  11.466  23.698  0.00  0.00     0.056 A 
ENDROOT
BRANCH   2   9
ATOM      9  C   UNL d   1     -47.537  12.952  22.812  0.00  0.00     0.085 A 
ATOM     10  C   UNL d   1     -47.300  13.019  22.045  0.00  0.00     0.021 A 
ATOM     11  C   UNL d   1     -46.538  13.277  21.853  0.00  0.00     0.026 A 
ATOM     12  C   UNL d   1     -46.013  13.468  22.433  0.00  0.00     0.094 A 
ATOM     13  C   UNL d   1     -46.247  13.402  23.219  0.00  0.00     0.026 A 
ATOM     14  C   UNL d   1     -47.009  13.144  23.411  0.00  0.00     0.021 A 
BRANCH  12  15
ATOM     15  O   UNL d   1     -45.308  13.707  22.293  0.00  0.00    -0.328 OA
ATOM     16  C   UNL d   1     -44.701  13.156  21.847  0.00  0.00     0.181 C 
ENDBRANCH  12  15
ENDBRANCH   2   9
BRANCH   1  17
ATOM     17  N   UNL d   1     -49.025  13.819  22.535  0.00  0.00    -0.188 NA
ATOM     18  C   UNL d   1     -49.390  14.441  22.926  0.00  0.00     0.292 C 
ATOM     19  O   UNL d   1     -49.716  14.294  23.685  0.00  0.00    -0.264 OA
BRANCH  18  20
ATOM     20  C   UNL d   1     -49.424  15.182  22.565  0.00  0.00     0.131 C 
ATOM     21 CL   UNL d   1     -49.362  15.881  22.989  0.00  0.00    -0.076 Cl
ENDBRANCH  18  20
ENDBRANCH   1  17
TORSDOF 4
ENDMDL
MODEL 2
REMARK VINA RESULT:      -7.4      1.473      2.229
REMARK  4 active torsions:
REMARK  status: ('A' for Active; 'I' for Inactive)
REMARK    1  A    between atoms: N_6  and  C_1 
REMARK    2  A    between atoms: C_7  and  N_2 
REMARK       I    between atoms: C_8  and  N_6 
REMARK    3  A    between atoms: C_19  and  C_8 
REMARK    4  A    between atoms: O_20  and  C_15 
ROOT
ATOM      1  C   UNL d   1     -48.817  13.845  23.232  0.00  0.00     0.169 A 
ATOM      2  N   UNL d   1     -48.156  14.174  22.850  0.00  0.00    -0.212 N 
ATOM      3  N   UNL d   1     -48.389  14.914  22.572  0.00  0.00    -0.163 NA
ATOM      4  C   UNL d   1     -49.427  14.383  23.179  0.00  0.00     0.062 A 
ATOM      5  C   UNL d   1     -49.181  15.057  22.771  0.00  0.00     0.111 A 
ATOM      6  S   UNL d   1     -50.434  15.263  23.096  0.00  0.00    -0.084 SA
ATOM      7  C   UNL d   1     -50.239  14.514  23.391  0.00  0.00     0.040 A 
ATOM      8  C   UNL d   1     -49.819  15.599  22.726  0.00  0.00     0.056 A 
ENDROOT
BRANCH   2   9
ATOM      9  C   UNL d   1     -47.439  13.842  22.767  0.00  0.00     0.085 A 
ATOM     10  C   UNL d   1     -47.235  13.471  22.081  0.00  0.00     0.021 A 
ATOM     11  C   UNL d   1     -46.491  13.123  21.987  0.00  0.00     0.026 A 
ATOM     12  C   UNL d   1     -45.951  13.147  22.584  0.00  0.00     0.094 A 
ATOM     13  C   UNL d   1     -46.150  13.523  23.287  0.00  0.00     0.026 A 
ATOM     14  C   UNL d   1     -46.895  13.871  23.381  0.00  0.00     0.021 A 
BRANCH  12  15
ATOM     15  O   UNL d   1     -45.261  12.838  22.531  0.00  0.00    -0.328 OA
ATOM     16  C   UNL d   1     -44.717  13.018  21.794  0.00  0.00     0.181 C 
ENDBRANCH  12  15
ENDBRANCH   2   9
BRANCH   1  17
ATOM     17  N   UNL d   1     -48.823  13.146  23.570  0.00  0.00    -0.188 NA
ATOM     18  C   UNL d   1     -49.343  12.562  23.324  0.00  0.00     0.292 C 
ATOM     19  O   UNL d   1     -49.870  12.740  22.696  0.00  0.00    -0.264 OA
BRANCH  18  20
ATOM     20  C   UNL d   1     -49.331  11.826  23.698  0.00  0.00     0.131 C 
ATOM     21 CL   UNL d   1     -49.955  11.297  23.645  0.00  0.00    -0.076 Cl
ENDBRANCH  18  20
ENDBRANCH   1  17
TORSDOF 4
ENDMDL
MODEL 3
REMARK VINA RESULT:      -7.0      1.923      3.691
REMARK  4 active torsions:
REMARK  status: ('A' for Active; 'I' for Inactive)
REMARK    1  A    between atoms: N_6  and  C_1 
REMARK    2  A    between atoms: C_7  and  N_2 
REMARK       I    between atoms: C_8  and  N_6 
REMARK    3  A    between atoms: C_19  and  C_8 
REMARK    4  A    between atoms: O_20  and  C_15 
ROOT
ATOM      1  C   UNL d   1     -47.636  13.215  23.045  0.00  0.00     0.169 A 
ATOM      2  N   UNL d   1     -47.766  13.934  22.648  0.00  0.00    -0.212 N 
ATOM      3  N   UNL d   1     -47.054  14.133  22.284  0.00  0.00    -0.163 NA
ATOM      4  C   UNL d   1     -46.863  12.996  22.916  0.00  0.00     0.062 A 
ATOM      5  C   UNL d   1     -46.480  13.556  22.444  0.00  0.00     0.111 A 
ATOM      6  S   UNL d   1     -45.590  12.631  22.709  0.00  0.00    -0.084 SA
ATOM      7  C   UNL d   1     -46.287  12.396  23.089  0.00  0.00     0.040 A 
ATOM      8  C   UNL d   1     -45.687  13.317  22.321  0.00  0.00     0.056 A 
ENDROOT
BRANCH   2   9
ATOM      9  C   UNL d   1     -48.443  14.349  22.623  0.00  0.00     0.085 A 
ATOM     10  C   UNL d   1     -48.897  14.353  21.957  0.00  0.00     0.021 A 
ATOM     11  C   UNL d   1     -49.603  14.783  21.923  0.00  0.00     0.026 A 
ATOM     12  C   UNL d   1     -49.853  15.210  22.558  0.00  0.00     0.094 A 
ATOM     13  C   UNL d   1     -49.395  15.212  23.241  0.00  0.00     0.026 A 
ATOM     14  C   UNL d   1     -48.689  14.782  23.276  0.00  0.00     0.021 A 
BRANCH  12  15
ATOM     15  O   UNL d   1     -50.493  15.614  22.560  0.00  0.00    -0.328 OA
ATOM     16  C   UNL d   1     -51.061  15.598  23.300  0.00  0.00     0.181 C 
ENDBRANCH  12  15
ENDBRANCH   2   9
BRANCH   1  17
ATOM     17  N   UNL d   1     -48.178  12.841  23.458  0.00  0.00    -0.188 NA
ATOM     18  C   UNL d   1     -48.427  12.089  23.244  0.00  0.00     0.292 C 
ATOM     19  O   UNL d   1     -48.080  11.734  22.567  0.00  0.00    -0.264 OA
BRANCH  18  20
ATOM     20  C   UNL d   1     -49.003  11.710  23.697  0.00  0.00     0.131 C 
ATOM     21 CL   UNL d   1     -49.650  11.336  23.361  0.00  0.00    -0.076 Cl
ENDBRANCH  18  20
ENDBRANCH   1  17
TORSDOF 4
ENDMDL
MODEL 4
REMARK VINA RESULT:      -5.6      8.586      9.718
REMARK  4 active torsions:
REMARK  status: ('A' for Active; 'I' for Inactive)
REMARK    1  A    between atoms: N_6  and  C_1 
REMARK    2  A    between atoms: C_7  and  N_2 
REMARK       I    between atoms: C_8  and  N_6 
REMARK    3  A    between atoms: C_19  and  C_8 
REMARK    4  A    between atoms: O_20  and  C_15 
ROOT
ATOM      1  C   UNL d   1     -39.355  14.738  19.993  0.00  0.00     0.169 A 
ATOM      2  N   UNL d   1     -39.273  14.408  19.234  0.00  0.00    -0.212 N 
ATOM      3  N   UNL d   1     -38.736  13.787  19.305  0.00  0.00    -0.163 NA
ATOM      4  C   UNL d   1     -38.874  14.319  20.499  0.00  0.00     0.062 A 
ATOM      5  C   UNL d   1     -38.478  13.720  20.090  0.00  0.00     0.111 A 
ATOM      6  S   UNL d   1     -38.085  13.632  21.337  0.00  0.00    -0.084 SA
ATOM      7  C   UNL d   1     -38.621  14.264  21.308  0.00  0.00     0.040 A 
ATOM      8  C   UNL d   1     -37.989  13.298  20.624  0.00  0.00     0.056 A 
ENDROOT
BRANCH   2   9
ATOM      9  C   UNL d   1     -39.640  14.642  18.570  0.00  0.00     0.085 A 
ATOM     10  C   UNL d   1     -39.432  15.331  18.208  0.00  0.00     0.021 A 
ATOM     11  C   UNL d   1     -39.809  15.583  17.516  0.00  0.00     0.026 A 
ATOM     12  C   UNL d   1     -40.397  15.142  17.188  0.00  0.00     0.094 A 
ATOM     13  C   UNL d   1     -40.616  14.437  17.551  0.00  0.00     0.026 A 
ATOM     14  C   UNL d   1     -40.239  14.185  18.243  0.00  0.00     0.021 A 
BRANCH  12  15
ATOM     15  O   UNL d   1     -40.763  15.343  16.556  0.00  0.00    -0.328 OA
ATOM     16  C   UNL d   1     -41.493  15.922  16.595  0.00  0.00     0.181 C 
ENDBRANCH  12  15
ENDBRANCH   2   9
BRANCH   1  17
ATOM     17  N   UNL d   1     -39.816  15.340  20.159  0.00  0.00    -0.188 NA
ATOM     18  C   UNL d   1     -40.425  15.268  20.703  0.00  0.00     0.292 C 
ATOM     19  O   UNL d   1     -40.537  14.525  21.076  0.00  0.00    -0.264 OA
BRANCH  18  20
ATOM     20  C   UNL d   1     -40.903  15.921  20.864  0.00  0.00     0.131 C 
ATOM     21 CL   UNL d   1     -41.698  15.849  21.051  0.00  0.00    -0.076 Cl
ENDBRANCH  18  20
ENDBRANCH   1  17
TORSDOF 4
ENDMDL
MODEL 5
REMARK VINA RESULT:      -4.9      8.678     10.088
REMARK  4 active torsions:
REMARK  status: ('A' for Active; 'I' for Inactive)
REMARK    1  A    between atoms: N_6  and  C_1 
REMARK    2  A    between atoms: C_7  and  N_2 
REMARK       I    between atoms: C_8  and  N_6 
REMARK    3  A    between atoms: C_19  and  C_8 
REMARK    4  A    between atoms: O_20  and  C_15 
ROOT
ATOM      1  C   UNL d   1     -39.437  14.862  19.863  0.00  0.00     0.169 A 
ATOM      2  N   UNL d   1     -39.726  14.846  19.084  0.00  0.00    -0.212 N 
ATOM      3  N   UNL d   1     -40.447  15.245  19.092  0.00  0.00    -0.163 NA
ATOM      4  C   UNL d   1     -39.979  15.263  20.321  0.00  0.00     0.062 A 
ATOM      5  C   UNL d   1     -40.617  15.511  19.859  0.00  0.00     0.111 A 
ATOM      6  S   UNL d   1     -40.866  15.922  21.078  0.00  0.00    -0.084 SA
ATOM      7  C   UNL d   1     -40.138  15.528  21.112  0.00  0.00     0.040 A 
ATOM      8  C   UNL d   1     -41.164  15.921  20.343  0.00  0.00     0.056 A 
ENDROOT
BRANCH   2   9
ATOM      9  C   UNL d   1     -39.377  14.512  18.453  0.00  0.00     0.085 A 
ATOM     10  C   UNL d   1     -38.756  14.873  18.089  0.00  0.00     0.021 A 
ATOM     11  C   UNL d   1     -38.387  14.533  17.431  0.00  0.00     0.026 A 
ATOM     12  C   UNL d   1     -38.644  13.828  17.139  0.00  0.00     0.094 A 
ATOM     13  C   UNL d   1     -39.277  13.452  17.504  0.00  0.00     0.026 A 
ATOM     14  C   UNL d   1     -39.646  13.793  18.162  0.00  0.00     0.021 A 
BRANCH  12  15
ATOM     15  O   UNL d   1     -38.329  13.489  16.540  0.00  0.00    -0.328 OA
ATOM     16  C   UNL d   1     -38.179  13.964  15.751  0.00  0.00     0.181 C 
ENDBRANCH  12  15
ENDBRANCH   2   9
BRANCH   1  17
ATOM     17  N   UNL d   1     -38.766  14.541  20.086  0.00  0.00    -0.188 NA
ATOM     18  C   UNL d   1     -38.733  14.034  20.730  0.00  0.00     0.292 C 
ATOM     19  O   UNL d   1     -39.446  13.871  21.142  0.00  0.00    -0.264 OA
BRANCH  18  20
ATOM     20  C   UNL d   1     -38.009  13.705  20.949  0.00  0.00     0.131 C 
ATOM     21 CL   UNL d   1     -37.939  12.933  21.214  0.00  0.00    -0.076 Cl
ENDBRANCH  18  20
ENDBRANCH   1  17
TORSDOF 4
ENDMDL
MODEL 6
REMARK VINA RESULT:      -4.9      2.020      2.524
REMARK  4 active torsions:
REMARK  status: ('A' for Active; 'I' for Inactive)
REMARK    1  A    between atoms: N_6  and  C_1 
REMARK    2  A    between atoms: C_7  and  N_2 
REMARK       I    between atoms: C_8  and  N_6 
REMARK    3  A    between atoms: C_19  and  C_8 
REMARK    4  A    between atoms: O_20  and  C_15 
ROOT
ATOM      1  C   UNL d   1     -49.154  14.158  23.159  0.00  0.00     0.169 A 
ATOM      2  N   UNL d   1     -49.448  13.383  23.231  0.00  0.00    -0.212 N 
ATOM      3  N   UNL d   1     -50.239  13.452  23.451  0.00  0.00    -0.163 NA
ATOM      4  C   UNL d   1     -49.761  14.671  23.335  0.00  0.00     0.062 A 
ATOM      5  C   UNL d   1     -50.448  14.251  23.520  0.00  0.00     0.111 A 
ATOM      6  S   UNL d   1     -50.757  15.521  23.623  0.00  0.00    -0.084 SA
ATOM      7  C   UNL d   1     -49.959  15.495  23.401  0.00  0.00     0.040 A 
ATOM      8  C   UNL d   1     -51.063  14.793  23.698  0.00  0.00     0.056 A 
ENDROOT
BRANCH   2   9
ATOM      9  C   UNL d   1     -49.047  12.709  23.110  0.00  0.00     0.085 A 
ATOM     10  C   UNL d   1     -49.123  12.304  22.418  0.00  0.00     0.021 A 
ATOM     11  C   UNL d   1     -48.710  11.600  22.284  0.00  0.00     0.026 A 
ATOM     12  C   UNL d   1     -48.218  11.302  22.848  0.00  0.00     0.094 A 
ATOM     13  C   UNL d   1     -48.135  11.708  23.558  0.00  0.00     0.026 A 
ATOM     14  C   UNL d   1     -48.548  12.412  23.692  0.00  0.00     0.021 A 
BRANCH  12  15
ATOM     15  O   UNL d   1     -47.825  10.661  22.759  0.00  0.00    -0.328 OA
ATOM     16  C   UNL d   1     -47.009  10.542  23.194  0.00  0.00     0.181 C 
ENDBRANCH  12  15
ENDBRANCH   2   9
BRANCH   1  17
ATOM     17  N   UNL d   1     -48.424  14.330  22.959  0.00  0.00    -0.188 NA
ATOM     18  C   UNL d   1     -48.266  14.821  22.321  0.00  0.00     0.292 C 
ATOM     19  O   UNL d   1     -48.915  15.131  21.890  0.00  0.00    -0.264 OA
BRANCH  18  20
ATOM     20  C   UNL d   1     -47.482  14.990  22.125  0.00  0.00     0.131 C 
ATOM     21 CL   UNL d   1     -46.984  15.404  22.628  0.00  0.00    -0.076 Cl
ENDBRANCH  18  20
ENDBRANCH   1  17
TORSDOF 4
ENDMDL
MODEL 7
REMARK VINA RESULT:      -4.8      9.303     10.640
REMARK  4 active torsions:
REMARK  status: ('A' for Active; 'I' for Inactive)
REMARK    1  A    between atoms: N_6  and  C_1 
REMARK    2  A    between atoms: C_7  and  N_2 
REMARK       I    between atoms: C_8  and  N_6 
REMARK    3  A    between atoms: C_19  and  C_8 
REMARK    4  A    between atoms: O_20  and  C_15 
ROOT
ATOM      1  C   UNL d   1     -39.753  15.164  18.014  0.00  0.00     0.169 A 
ATOM      2  N   UNL d   1     -39.119  14.669  17.804  0.00  0.00    -0.212 N 
ATOM      3  N   UNL d   1     -38.852  14.321  18.502  0.00  0.00    -0.163 NA
ATOM      4  C   UNL d   1     -39.857  15.107  18.819  0.00  0.00     0.062 A 
ATOM      5  C   UNL d   1     -39.304  14.586  19.144  0.00  0.00     0.111 A 
ATOM      6  S   UNL d   1     -40.032  15.018  20.145  0.00  0.00    -0.084 SA
ATOM      7  C   UNL d   1     -40.330  15.389  19.466  0.00  0.00     0.040 A 
ATOM      8  C   UNL d   1     -39.424  14.539  19.972  0.00  0.00     0.056 A 
ENDROOT
BRANCH   2   9
ATOM      9  C   UNL d   1     -38.826  14.553  17.075  0.00  0.00     0.085 A 
ATOM     10  C   UNL d   1     -38.491  15.160  16.666  0.00  0.00     0.021 A 
ATOM     11  C   UNL d   1     -38.183  15.048  15.906  0.00  0.00     0.026 A 
ATOM     12  C   UNL d   1     -38.212  14.323  15.558  0.00  0.00     0.094 A 
ATOM     13  C   UNL d   1     -38.552  13.697  15.968  0.00  0.00     0.026 A 
ATOM     14  C   UNL d   1     -38.860  13.809  16.727  0.00  0.00     0.021 A 
BRANCH  12  15
ATOM     15  O   UNL d   1     -37.940  14.185  14.864  0.00  0.00    -0.328 OA
ATOM     16  C   UNL d   1     -37.940  14.854  14.214  0.00  0.00     0.181 C 
ENDBRANCH  12  15
ENDBRANCH   2   9
BRANCH   1  17
ATOM     17  N   UNL d   1     -40.157  15.593  17.507  0.00  0.00    -0.188 NA
ATOM     18  C   UNL d   1     -40.955  15.453  17.378  0.00  0.00     0.292 C 
ATOM     19  O   UNL d   1     -41.323  14.833  17.807  0.00  0.00    -0.264 OA
BRANCH  18  20
ATOM     20  C   UNL d   1     -41.365  15.921  16.835  0.00  0.00     0.131 C 
ATOM     21 CL   UNL d   1     -41.924  15.611  16.322  0.00  0.00    -0.076 Cl
ENDBRANCH  18  20
ENDBRANCH   1  17
TORSDOF 4
ENDMDL
MODEL 8
REMARK VINA RESULT:      -4.6      9.662     10.530
REMARK  4 active torsions:
REMARK  status: ('A' for Active; 'I' for Inactive)
REMARK    1  A    between atoms: N_6  and  C_1 
REMARK    2  A    between atoms: C_7  and  N_2 
REMARK       I    between atoms: C_8  and  N_6 
REMARK    3  A    between atoms: C_19  and  C_8 
REMARK    4  A    between atoms: O_20  and  C_15 
ROOT
ATOM      1  C   UNL d   1     -38.806  14.274  18.984  0.00  0.00     0.169 A 
ATOM      2  N   UNL d   1     -39.499  14.734  18.999  0.00  0.00    -0.212 N 
ATOM      3  N   UNL d   1     -39.703  14.827  19.792  0.00  0.00    -0.163 NA
ATOM      4  C   UNL d   1     -38.606  14.102  19.755  0.00  0.00     0.062 A 
ATOM      5  C   UNL d   1     -39.153  14.437  20.276  0.00  0.00     0.111 A 
ATOM      6  S   UNL d   1     -38.273  13.814  21.020  0.00  0.00    -0.084 SA
ATOM      7  C   UNL d   1     -38.035  13.697  20.235  0.00  0.00     0.040 A 
ATOM      8  C   UNL d   1     -38.934  14.250  21.063  0.00  0.00     0.056 A 
ENDROOT
BRANCH   2   9
ATOM      9  C   UNL d   1     -39.890  15.026  18.373  0.00  0.00     0.085 A 
ATOM     10  C   UNL d   1     -40.644  14.791  18.213  0.00  0.00     0.021 A 
ATOM     11  C   UNL d   1     -41.059  15.090  17.563  0.00  0.00     0.026 A 
ATOM     12  C   UNL d   1     -40.715  15.628  17.072  0.00  0.00     0.094 A 
ATOM     13  C   UNL d   1     -39.946  15.874  17.227  0.00  0.00     0.026 A 
ATOM     14  C   UNL d   1     -39.531  15.574  17.877  0.00  0.00     0.021 A 
BRANCH  12  15
ATOM     15  O   UNL d   1     -41.066  15.922  16.469  0.00  0.00    -0.328 OA
ATOM     16  C   UNL d   1     -41.892  15.588  16.192  0.00  0.00     0.181 C 
ENDBRANCH  12  15
ENDBRANCH   2   9
BRANCH   1  17
ATOM     17  N   UNL d   1     -38.437  14.063  18.335  0.00  0.00    -0.188 NA
ATOM     18  C   UNL d   1     -38.367  13.273  18.127  0.00  0.00     0.292 C 
ATOM     19  O   UNL d   1     -38.706  12.698  18.635  0.00  0.00    -0.264 OA
BRANCH  18  20
ATOM     20  C   UNL d   1     -37.970  13.071  17.432  0.00  0.00     0.131 C 
ATOM     21 CL   UNL d   1     -37.941  12.302  17.150  0.00  0.00    -0.076 Cl
ENDBRANCH  18  20
ENDBRANCH   1  17
TORSDOF 4
ENDMDL
