MODEL 1
REMARK VINA RESULT:      -6.5      0.000      0.000
REMARK  5 active torsions:
REMARK  status: ('A' for Active; 'I' for Inactive)
REMARK    1  A    between atoms: C_14  and  N_1 
REMARK    2  A    between atoms: C_13  and  C_3 
REMARK    3  A    between atoms: C_4  and  S_11 
REMARK    4  A    between atoms: S_11  and  C_13 
REMARK    5  A    between atoms: C_15  and  C_14 
ROOT
ATOM      1  S   UNL d   1     -47.782  13.922  22.829  0.00  0.00    -0.058 SA
ENDROOT
BRANCH   1   2
ATOM      2  C   UNL d   1     -47.262  13.307  22.963  0.00  0.00     0.141 A 
ATOM      3  N   UNL d   1     -47.440  12.612  23.375  0.00  0.00    -0.232 NA
ATOM      4  C   UNL d   1     -46.764  12.149  23.380  0.00  0.00     0.088 A 
ATOM      5  C   UNL d   1     -46.592  11.409  23.695  0.00  0.00     0.020 A 
ATOM      6  C   UNL d   1     -46.174  12.560  22.972  0.00  0.00     0.049 A 
ATOM      7  C   UNL d   1     -45.859  11.080  23.613  0.00  0.00     0.002 A 
ATOM      8  C   UNL d   1     -45.269  11.491  23.205  0.00  0.00     0.001 A 
ATOM      9  C   UNL d   1     -45.416  12.228  22.882  0.00  0.00     0.008 A 
ATOM     10  S   UNL d   1     -46.493  13.270  22.721  0.00  0.00    -0.060 SA
ENDBRANCH   1   2
BRANCH   1  11
ATOM     11  C   UNL d   1     -48.567  13.851  23.084  0.00  0.00     0.077 C 
BRANCH  11  12
ATOM     12  C   UNL d   1     -49.091  14.470  22.950  0.00  0.00     0.178 A 
ATOM     13  N   UNL d   1     -49.842  14.420  23.235  0.00  0.00    -0.264 N 
ATOM     14  C   UNL d   1     -50.230  15.115  23.016  0.00  0.00     0.227 A 
ATOM     15  N   UNL d   1     -49.707  15.559  22.608  0.00  0.00    -0.117 NA
ATOM     16  S   UNL d   1     -51.050  15.348  23.182  0.00  0.00    -0.036 SA
ATOM     17  N   UNL d   1     -49.016  15.180  22.562  0.00  0.00    -0.127 NA
BRANCH  13  18
ATOM     18  C   UNL d   1     -50.207  13.788  23.684  0.00  0.00     0.084 C 
BRANCH  18  19
ATOM     19  C   UNL d   1     -50.832  13.360  23.340  0.00  0.00     0.019 C 
ATOM     20  C   UNL d   1     -51.051  12.618  23.653  0.00  0.00     0.002 C 
ENDBRANCH  18  19
ENDBRANCH  13  18
ENDBRANCH  11  12
ENDBRANCH   1  11
TORSDOF 5
ENDMDL
MODEL 2
REMARK VINA RESULT:      -5.3      8.985     11.044
REMARK  5 active torsions:
REMARK  status: ('A' for Active; 'I' for Inactive)
REMARK    1  A    between atoms: C_14  and  N_1 
REMARK    2  A    between atoms: C_13  and  C_3 
REMARK    3  A    between atoms: C_4  and  S_11 
REMARK    4  A    between atoms: S_11  and  C_13 
REMARK    5  A    between atoms: C_15  and  C_14 
ROOT
ATOM      1  S   UNL d   1     -39.320  15.848  18.079  0.00  0.00    -0.058 SA
ENDROOT
BRANCH   1   2
ATOM      2  C   UNL d   1     -39.666  15.861  18.817  0.00  0.00     0.141 A 
ATOM      3  N   UNL d   1     -39.258  15.894  19.537  0.00  0.00    -0.232 NA
ATOM      4  C   UNL d   1     -39.815  15.896  20.137  0.00  0.00     0.088 A 
ATOM      5  C   UNL d   1     -39.758  15.922  20.956  0.00  0.00     0.020 A 
ATOM      6  C   UNL d   1     -40.564  15.864  19.786  0.00  0.00     0.049 A 
ATOM      7  C   UNL d   1     -40.418  15.917  21.422  0.00  0.00     0.002 A 
ATOM      8  C   UNL d   1     -41.167  15.885  21.072  0.00  0.00     0.001 A 
ATOM      9  C   UNL d   1     -41.249  15.859  20.258  0.00  0.00     0.008 A 
ATOM     10  S   UNL d   1     -40.458  15.843  18.975  0.00  0.00    -0.060 SA
ENDBRANCH   1   2
BRANCH   1  11
ATOM     11  C   UNL d   1     -38.992  15.143  17.796  0.00  0.00     0.077 C 
BRANCH  11  12
ATOM     12  C   UNL d   1     -38.697  15.114  17.030  0.00  0.00     0.178 A 
ATOM     13  N   UNL d   1     -38.554  14.399  16.688  0.00  0.00    -0.264 N 
ATOM     14  C   UNL d   1     -38.265  14.548  15.930  0.00  0.00     0.227 A 
ATOM     15  N   UNL d   1     -38.243  15.340  15.836  0.00  0.00    -0.117 NA
ATOM     16  S   UNL d   1     -38.023  13.973  15.325  0.00  0.00    -0.036 SA
ATOM     17  N   UNL d   1     -38.502  15.693  16.493  0.00  0.00    -0.127 NA
BRANCH  13  18
ATOM     18  C   UNL d   1     -38.665  13.614  17.015  0.00  0.00     0.084 C 
BRANCH  18  19
ATOM     19  C   UNL d   1     -37.995  13.151  17.186  0.00  0.00     0.019 C 
ATOM     20  C   UNL d   1     -38.085  12.351  17.401  0.00  0.00     0.002 C 
ENDBRANCH  18  19
ENDBRANCH  13  18
ENDBRANCH  11  12
ENDBRANCH   1  11
TORSDOF 5
ENDMDL
MODEL 3
REMARK VINA RESULT:      -5.2      8.989      9.587
REMARK  5 active torsions:
REMARK  status: ('A' for Active; 'I' for Inactive)
REMARK    1  A    between atoms: C_14  and  N_1 
REMARK    2  A    between atoms: C_13  and  C_3 
REMARK    3  A    between atoms: C_4  and  S_11 
REMARK    4  A    between atoms: S_11  and  C_13 
REMARK    5  A    between atoms: C_15  and  C_14 
ROOT
ATOM      1  S   UNL d   1     -40.203  15.232  20.428  0.00  0.00    -0.058 SA
ENDROOT
BRANCH   1   2
ATOM      2  C   UNL d   1     -39.809  14.960  21.089  0.00  0.00     0.141 A 
ATOM      3  N   UNL d   1     -39.750  14.167  21.317  0.00  0.00    -0.232 NA
ATOM      4  C   UNL d   1     -39.309  14.141  22.007  0.00  0.00     0.088 A 
ATOM      5  C   UNL d   1     -39.064  13.526  22.494  0.00  0.00     0.020 A 
ATOM      6  C   UNL d   1     -39.098  14.917  22.201  0.00  0.00     0.049 A 
ATOM      7  C   UNL d   1     -38.622  13.667  23.156  0.00  0.00     0.002 A 
ATOM      8  C   UNL d   1     -38.412  14.443  23.350  0.00  0.00     0.001 A 
ATOM      9  C   UNL d   1     -38.644  15.072  22.880  0.00  0.00     0.008 A 
ATOM     10  S   UNL d   1     -39.412  15.411  21.628  0.00  0.00    -0.060 SA
ENDBRANCH   1   2
BRANCH   1  11
ATOM     11  C   UNL d   1     -39.938  15.010  19.676  0.00  0.00     0.077 C 
BRANCH  11  12
ATOM     12  C   UNL d   1     -40.311  15.314  19.011  0.00  0.00     0.178 A 
ATOM     13  N   UNL d   1     -40.047  15.104  18.279  0.00  0.00    -0.264 N 
ATOM     14  C   UNL d   1     -40.525  15.493  17.730  0.00  0.00     0.227 A 
ATOM     15  N   UNL d   1     -41.058  15.921  18.141  0.00  0.00    -0.117 NA
ATOM     16  S   UNL d   1     -40.481  15.462  16.863  0.00  0.00    -0.036 SA
ATOM     17  N   UNL d   1     -40.939  15.821  18.915  0.00  0.00    -0.127 NA
BRANCH  13  18
ATOM     18  C   UNL d   1     -39.400  14.584  18.069  0.00  0.00     0.084 C 
BRANCH  18  19
ATOM     19  C   UNL d   1     -39.573  13.845  17.727  0.00  0.00     0.019 C 
ATOM     20  C   UNL d   1     -38.960  13.298  17.585  0.00  0.00     0.002 C 
ENDBRANCH  18  19
ENDBRANCH  13  18
ENDBRANCH  11  12
ENDBRANCH   1  11
TORSDOF 5
ENDMDL
MODEL 4
REMARK VINA RESULT:      -4.9      9.529     10.419
REMARK  5 active torsions:
REMARK  status: ('A' for Active; 'I' for Inactive)
REMARK    1  A    between atoms: C_14  and  N_1 
REMARK    2  A    between atoms: C_13  and  C_3 
REMARK    3  A    between atoms: C_4  and  S_11 
REMARK    4  A    between atoms: S_11  and  C_13 
REMARK    5  A    between atoms: C_15  and  C_14 
ROOT
ATOM      1  S   UNL d   1     -39.038  13.951  19.183  0.00  0.00    -0.058 SA
ENDROOT
BRANCH   1   2
ATOM      2  C   UNL d   1     -39.419  14.373  18.597  0.00  0.00     0.141 A 
ATOM      3  N   UNL d   1     -40.233  14.353  18.446  0.00  0.00    -0.232 NA
ATOM      4  C   UNL d   1     -40.378  14.855  17.815  0.00  0.00     0.088 A 
ATOM      5  C   UNL d   1     -41.062  15.068  17.413  0.00  0.00     0.020 A 
ATOM      6  C   UNL d   1     -39.655  15.182  17.581  0.00  0.00     0.049 A 
ATOM      7  C   UNL d   1     -41.040  15.590  16.796  0.00  0.00     0.002 A 
ATOM      8  C   UNL d   1     -40.318  15.917  16.562  0.00  0.00     0.001 A 
ATOM      9  C   UNL d   1     -39.622  15.720  16.947  0.00  0.00     0.008 A 
ATOM     10  S   UNL d   1     -39.074  14.877  18.070  0.00  0.00    -0.060 SA
ENDBRANCH   1   2
BRANCH   1  11
ATOM     11  C   UNL d   1     -39.087  14.211  19.968  0.00  0.00     0.077 C 
BRANCH  11  12
ATOM     12  C   UNL d   1     -38.685  13.799  20.554  0.00  0.00     0.178 A 
ATOM     13  N   UNL d   1     -38.817  13.984  21.327  0.00  0.00    -0.264 N 
ATOM     14  C   UNL d   1     -38.340  13.483  21.778  0.00  0.00     0.227 A 
ATOM     15  N   UNL d   1     -37.940  13.016  21.270  0.00  0.00    -0.117 NA
ATOM     16  S   UNL d   1     -38.267  13.448  22.643  0.00  0.00    -0.036 SA
ATOM     17  N   UNL d   1     -38.139  13.197  20.529  0.00  0.00    -0.127 NA
BRANCH  13  18
ATOM     18  C   UNL d   1     -39.340  14.576  21.657  0.00  0.00     0.084 C 
BRANCH  18  19
ATOM     19  C   UNL d   1     -39.010  15.210  22.085  0.00  0.00     0.019 C 
ATOM     20  C   UNL d   1     -39.443  15.916  22.184  0.00  0.00     0.002 C 
ENDBRANCH  18  19
ENDBRANCH  13  18
ENDBRANCH  11  12
ENDBRANCH   1  11
TORSDOF 5
ENDMDL
MODEL 5
REMARK VINA RESULT:      -4.6      9.225     10.459
REMARK  5 active torsions:
REMARK  status: ('A' for Active; 'I' for Inactive)
REMARK    1  A    between atoms: C_14  and  N_1 
REMARK    2  A    between atoms: C_13  and  C_3 
REMARK    3  A    between atoms: C_4  and  S_11 
REMARK    4  A    between atoms: S_11  and  C_13 
REMARK    5  A    between atoms: C_15  and  C_14 
ROOT
ATOM      1  S   UNL d   1     -39.741  15.002  18.936  0.00  0.00    -0.058 SA
ENDROOT
BRANCH   1   2
ATOM      2  C   UNL d   1     -39.406  14.726  18.246  0.00  0.00     0.141 A 
ATOM      3  N   UNL d   1     -39.193  13.939  18.099  0.00  0.00    -0.232 NA
ATOM      4  C   UNL d   1     -38.878  13.907  17.343  0.00  0.00     0.088 A 
ATOM      5  C   UNL d   1     -38.573  13.294  16.888  0.00  0.00     0.020 A 
ATOM      6  C   UNL d   1     -38.898  14.671  17.028  0.00  0.00     0.049 A 
ATOM      7  C   UNL d   1     -38.294  13.426  16.141  0.00  0.00     0.002 A 
ATOM      8  C   UNL d   1     -38.314  14.190  15.826  0.00  0.00     0.001 A 
ATOM      9  C   UNL d   1     -38.613  14.817  16.260  0.00  0.00     0.008 A 
ATOM     10  S   UNL d   1     -39.225  15.165  17.593  0.00  0.00    -0.060 SA
ENDBRANCH   1   2
BRANCH   1  11
ATOM     11  C   UNL d   1     -39.363  14.856  19.658  0.00  0.00     0.077 C 
BRANCH  11  12
ATOM     12  C   UNL d   1     -39.631  15.231  20.337  0.00  0.00     0.178 A 
ATOM     13  N   UNL d   1     -39.236  15.124  21.031  0.00  0.00    -0.264 N 
ATOM     14  C   UNL d   1     -39.632  15.565  21.605  0.00  0.00     0.227 A 
ATOM     15  N   UNL d   1     -40.249  15.922  21.245  0.00  0.00    -0.117 NA
ATOM     16  S   UNL d   1     -39.440  15.646  22.448  0.00  0.00    -0.036 SA
ATOM     17  N   UNL d   1     -40.259  15.728  20.480  0.00  0.00    -0.127 NA
BRANCH  13  18
ATOM     18  C   UNL d   1     -38.537  14.653  21.185  0.00  0.00     0.084 C 
BRANCH  18  19
ATOM     19  C   UNL d   1     -38.615  13.949  21.622  0.00  0.00     0.019 C 
ATOM     20  C   UNL d   1     -37.964  13.433  21.700  0.00  0.00     0.002 C 
ENDBRANCH  18  19
ENDBRANCH  13  18
ENDBRANCH  11  12
ENDBRANCH   1  11
TORSDOF 5
ENDMDL
MODEL 6
REMARK VINA RESULT:      -4.4      1.754      2.634
REMARK  5 active torsions:
REMARK  status: ('A' for Active; 'I' for Inactive)
REMARK    1  A    between atoms: C_14  and  N_1 
REMARK    2  A    between atoms: C_13  and  C_3 
REMARK    3  A    between atoms: C_4  and  S_11 
REMARK    4  A    between atoms: S_11  and  C_13 
REMARK    5  A    between atoms: C_15  and  C_14 
ROOT
ATOM      1  S   UNL d   1     -47.056  11.547  23.680  0.00  0.00    -0.058 SA
ENDROOT
BRANCH   1   2
ATOM      2  C   UNL d   1     -46.276  11.336  23.563  0.00  0.00     0.141 A 
ATOM      3  N   UNL d   1     -45.681  11.839  23.285  0.00  0.00    -0.232 NA
ATOM      4  C   UNL d   1     -44.987  11.405  23.251  0.00  0.00     0.088 A 
ATOM      5  C   UNL d   1     -44.219  11.590  23.024  0.00  0.00     0.020 A 
ATOM      6  C   UNL d   1     -45.157  10.637  23.509  0.00  0.00     0.049 A 
ATOM      7  C   UNL d   1     -43.631  11.037  23.048  0.00  0.00     0.002 A 
ATOM      8  C   UNL d   1     -43.800  10.269  23.306  0.00  0.00     0.001 A 
ATOM      9  C   UNL d   1     -44.557  10.061  23.537  0.00  0.00     0.008 A 
ATOM     10  S   UNL d   1     -45.953  10.609  23.698  0.00  0.00    -0.060 SA
ENDBRANCH   1   2
BRANCH   1  11
ATOM     11  C   UNL d   1     -47.451  11.979  23.094  0.00  0.00     0.077 C 
BRANCH  11  12
ATOM     12  C   UNL d   1     -48.271  11.953  23.059  0.00  0.00     0.178 A 
ATOM     13  N   UNL d   1     -48.673  12.578  22.751  0.00  0.00    -0.264 N 
ATOM     14  C   UNL d   1     -49.476  12.392  22.791  0.00  0.00     0.227 A 
ATOM     15  N   UNL d   1     -49.535  11.667  23.118  0.00  0.00    -0.117 NA
ATOM     16  S   UNL d   1     -50.153  12.873  22.533  0.00  0.00    -0.036 SA
ATOM     17  N   UNL d   1     -48.814  11.391  23.285  0.00  0.00    -0.127 NA
BRANCH  13  18
ATOM     18  C   UNL d   1     -48.366  13.312  22.433  0.00  0.00     0.084 C 
BRANCH  18  19
ATOM     19  C   UNL d   1     -48.840  13.995  22.467  0.00  0.00     0.019 C 
ATOM     20  C   UNL d   1     -48.489  14.740  22.601  0.00  0.00     0.002 C 
ENDBRANCH  18  19
ENDBRANCH  13  18
ENDBRANCH  11  12
ENDBRANCH   1  11
TORSDOF 5
ENDMDL
