MODEL 1
REMARK VINA RESULT:      -8.8      0.000      0.000
REMARK  2 active torsions:
REMARK  status: ('A' for Active; 'I' for Inactive)
REMARK    1  A    between atoms: C_6  and  C_1 
REMARK    2  A    between atoms: O_10  and  C_6 
ROOT
ATOM      1  C   UNL d   1      53.104  32.023  53.435  0.00  0.00     0.096 A 
ATOM      2  S   UNL d   1      52.548  32.641  53.372  0.00  0.00    -0.040 SA
ATOM      3  C   UNL d   1      52.687  33.361  53.759  0.00  0.00     0.226 A 
ATOM      4  C   UNL d   1      53.793  32.132  53.883  0.00  0.00     0.012 A 
ATOM      5  C   UNL d   1      53.929  32.849  54.266  0.00  0.00     0.004 A 
ATOM      6  C   UNL d   1      53.379  33.461  54.204  0.00  0.00     0.045 A 
ATOM      7  O   UNL d   1      52.137  33.973  53.697  0.00  0.00    -0.279 OA
ATOM      8  C   UNL d   1      54.614  32.954  54.710  0.00  0.00     0.000 A 
ATOM      9  C   UNL d   1      53.508  34.183  54.585  0.00  0.00     0.004 A 
ATOM     10  C   UNL d   1      54.749  33.671  55.092  0.00  0.00     0.000 A 
ATOM     11  C   UNL d   1      54.193  34.289  55.029  0.00  0.00     0.000 A 
ENDROOT
BRANCH   1  12
ATOM     12  C   UNL d   1      52.961  31.310  53.049  0.00  0.00     0.302 C 
ATOM     13  O   UNL d   1      52.854  31.306  52.231  0.00  0.00    -0.259 OA
BRANCH  12  14
ATOM     14  O   UNL d   1      52.924  30.604  53.465  0.00  0.00    -0.295 OA
ATOM     15  C   UNL d   1      52.772  29.894  53.056  0.00  0.00     0.185 C 
ENDBRANCH  12  14
ENDBRANCH   1  12
TORSDOF 2
ENDMDL
MODEL 2
REMARK VINA RESULT:      -8.8      1.190      3.065
REMARK  2 active torsions:
REMARK  status: ('A' for Active; 'I' for Inactive)
REMARK    1  A    between atoms: C_6  and  C_1 
REMARK    2  A    between atoms: O_10  and  C_6 
ROOT
ATOM      1  C   UNL d   1      53.773  32.691  54.171  0.00  0.00     0.096 A 
ATOM      2  S   UNL d   1      53.287  32.943  53.542  0.00  0.00    -0.040 SA
ATOM      3  C   UNL d   1      52.917  32.380  53.057  0.00  0.00     0.226 A 
ATOM      4  C   UNL d   1      53.883  31.881  54.308  0.00  0.00     0.012 A 
ATOM      5  C   UNL d   1      53.515  31.325  53.825  0.00  0.00     0.004 A 
ATOM      6  C   UNL d   1      53.034  31.574  53.203  0.00  0.00     0.045 A 
ATOM      7  O   UNL d   1      52.436  32.629  52.435  0.00  0.00    -0.279 OA
ATOM      8  C   UNL d   1      53.627  30.522  53.964  0.00  0.00     0.000 A 
ATOM      9  C   UNL d   1      52.660  31.022  52.713  0.00  0.00     0.004 A 
ATOM     10  C   UNL d   1      53.258  29.966  53.481  0.00  0.00     0.000 A 
ATOM     11  C   UNL d   1      52.772  30.218  52.851  0.00  0.00     0.000 A 
ENDROOT
BRANCH   1  12
ATOM     12  C   UNL d   1      54.138  33.253  54.650  0.00  0.00     0.302 C 
ATOM     13  O   UNL d   1      53.674  33.742  55.126  0.00  0.00    -0.259 OA
BRANCH  12  14
ATOM     14  O   UNL d   1      54.953  33.334  54.660  0.00  0.00    -0.295 OA
ATOM     15  C   UNL d   1      55.303  33.901  55.162  0.00  0.00     0.185 C 
ENDBRANCH  12  14
ENDBRANCH   1  12
TORSDOF 2
ENDMDL
MODEL 3
REMARK VINA RESULT:      -8.7      1.148      2.410
REMARK  2 active torsions:
REMARK  status: ('A' for Active; 'I' for Inactive)
REMARK    1  A    between atoms: C_6  and  C_1 
REMARK    2  A    between atoms: O_10  and  C_6 
ROOT
ATOM      1  C   UNL d   1      52.176  33.613  53.196  0.00  0.00     0.096 A 
ATOM      2  S   UNL d   1      52.398  32.829  53.016  0.00  0.00    -0.040 SA
ATOM      3  C   UNL d   1      53.040  32.482  53.410  0.00  0.00     0.226 A 
ATOM      4  C   UNL d   1      52.599  34.040  53.768  0.00  0.00     0.012 A 
ATOM      5  C   UNL d   1      53.236  33.692  54.157  0.00  0.00     0.004 A 
ATOM      6  C   UNL d   1      53.456  32.917  53.979  0.00  0.00     0.045 A 
ATOM      7  O   UNL d   1      53.260  31.707  53.232  0.00  0.00    -0.279 OA
ATOM      8  C   UNL d   1      53.653  34.119  54.723  0.00  0.00     0.000 A 
ATOM      9  C   UNL d   1      54.094  32.561  54.366  0.00  0.00     0.004 A 
ATOM     10  C   UNL d   1      54.290  33.772  55.113  0.00  0.00     0.000 A 
ATOM     11  C   UNL d   1      54.512  32.988  54.933  0.00  0.00     0.000 A 
ENDROOT
BRANCH   1  12
ATOM     12  C   UNL d   1      51.538  33.952  52.802  0.00  0.00     0.302 C 
ATOM     13  O   UNL d   1      51.660  34.315  52.071  0.00  0.00    -0.259 OA
BRANCH  12  14
ATOM     14  O   UNL d   1      50.785  33.936  53.124  0.00  0.00    -0.295 OA
ATOM     15  C   UNL d   1      50.160  34.318  52.727  0.00  0.00     0.185 C 
ENDBRANCH  12  14
ENDBRANCH   1  12
TORSDOF 2
ENDMDL
MODEL 4
REMARK VINA RESULT:      -8.3      1.487      2.965
REMARK  2 active torsions:
REMARK  status: ('A' for Active; 'I' for Inactive)
REMARK    1  A    between atoms: C_6  and  C_1 
REMARK    2  A    between atoms: O_10  and  C_6 
ROOT
ATOM      1  C   UNL d   1      53.558  33.186  54.171  0.00  0.00     0.096 A 
ATOM      2  S   UNL d   1      53.444  32.552  53.641  0.00  0.00    -0.040 SA
ATOM      3  C   UNL d   1      52.839  32.592  53.075  0.00  0.00     0.226 A 
ATOM      4  C   UNL d   1      53.066  33.852  54.128  0.00  0.00     0.012 A 
ATOM      5  C   UNL d   1      52.466  33.888  53.565  0.00  0.00     0.004 A 
ATOM      6  C   UNL d   1      52.353  33.261  53.041  0.00  0.00     0.045 A 
ATOM      7  O   UNL d   1      52.726  31.965  52.551  0.00  0.00    -0.279 OA
ATOM      8  C   UNL d   1      51.979  34.550  53.526  0.00  0.00     0.000 A 
ATOM      9  C   UNL d   1      51.753  33.290  52.473  0.00  0.00     0.004 A 
ATOM     10  C   UNL d   1      51.380  34.587  52.963  0.00  0.00     0.000 A 
ATOM     11  C   UNL d   1      51.266  33.953  52.433  0.00  0.00     0.000 A 
ENDROOT
BRANCH   1  12
ATOM     12  C   UNL d   1      54.160  33.141  54.730  0.00  0.00     0.302 C 
ATOM     13  O   UNL d   1      54.063  32.658  55.392  0.00  0.00    -0.259 OA
BRANCH  12  14
ATOM     14  O   UNL d   1      54.853  33.570  54.641  0.00  0.00    -0.295 OA
ATOM     15  C   UNL d   1      55.338  33.710  55.305  0.00  0.00     0.185 C 
ENDBRANCH  12  14
ENDBRANCH   1  12
TORSDOF 2
ENDMDL
MODEL 5
REMARK VINA RESULT:      -8.2      1.547      2.887
REMARK  2 active torsions:
REMARK  status: ('A' for Active; 'I' for Inactive)
REMARK    1  A    between atoms: C_6  and  C_1 
REMARK    2  A    between atoms: O_10  and  C_6 
ROOT
ATOM      1  C   UNL d   1      52.164  33.313  53.091  0.00  0.00     0.096 A 
ATOM      2  S   UNL d   1      52.771  33.554  53.610  0.00  0.00    -0.040 SA
ATOM      3  C   UNL d   1      53.327  33.000  53.879  0.00  0.00     0.226 A 
ATOM      4  C   UNL d   1      52.120  32.521  52.848  0.00  0.00     0.012 A 
ATOM      5  C   UNL d   1      52.674  31.974  53.117  0.00  0.00     0.004 A 
ATOM      6  C   UNL d   1      53.274  32.213  53.630  0.00  0.00     0.045 A 
ATOM      7  O   UNL d   1      53.927  33.239  54.393  0.00  0.00    -0.279 OA
ATOM      8  C   UNL d   1      52.627  31.190  52.873  0.00  0.00     0.000 A 
ATOM      9  C   UNL d   1      53.834  31.669  53.905  0.00  0.00     0.004 A 
ATOM     10  C   UNL d   1      53.181  30.643  53.142  0.00  0.00     0.000 A 
ATOM     11  C   UNL d   1      53.787  30.884  53.661  0.00  0.00     0.000 A 
ENDROOT
BRANCH   1  12
ATOM     12  C   UNL d   1      51.615  33.866  52.827  0.00  0.00     0.302 C 
ATOM     13  O   UNL d   1      51.839  34.420  52.258  0.00  0.00    -0.259 OA
BRANCH  12  14
ATOM     14  O   UNL d   1      50.850  33.876  53.121  0.00  0.00    -0.295 OA
ATOM     15  C   UNL d   1      50.285  34.386  52.779  0.00  0.00     0.185 C 
ENDBRANCH  12  14
ENDBRANCH   1  12
TORSDOF 2
ENDMDL
MODEL 6
REMARK VINA RESULT:      -7.7      1.455      3.219
REMARK  2 active torsions:
REMARK  status: ('A' for Active; 'I' for Inactive)
REMARK    1  A    between atoms: C_6  and  C_1 
REMARK    2  A    between atoms: O_10  and  C_6 
ROOT
ATOM      1  C   UNL d   1      53.137  33.664  53.695  0.00  0.00     0.096 A 
ATOM      2  S   UNL d   1      53.863  33.426  54.030  0.00  0.00    -0.040 SA
ATOM      3  C   UNL d   1      54.089  32.629  53.998  0.00  0.00     0.226 A 
ATOM      4  C   UNL d   1      52.646  33.102  53.332  0.00  0.00     0.012 A 
ATOM      5  C   UNL d   1      52.874  32.311  53.302  0.00  0.00     0.004 A 
ATOM      6  C   UNL d   1      53.592  32.076  53.633  0.00  0.00     0.045 A 
ATOM      7  O   UNL d   1      54.807  32.394  54.329  0.00  0.00    -0.279 OA
ATOM      8  C   UNL d   1      52.385  31.757  52.942  0.00  0.00     0.000 A 
ATOM      9  C   UNL d   1      53.828  31.284  53.607  0.00  0.00     0.004 A 
ATOM     10  C   UNL d   1      52.613  30.966  52.912  0.00  0.00     0.000 A 
ATOM     11  C   UNL d   1      53.339  30.728  53.247  0.00  0.00     0.000 A 
ENDROOT
BRANCH   1  12
ATOM     12  C   UNL d   1      52.916  34.457  53.729  0.00  0.00     0.302 C 
ATOM     13  O   UNL d   1      52.794  34.874  53.028  0.00  0.00    -0.259 OA
BRANCH  12  14
ATOM     14  O   UNL d   1      52.816  34.837  54.448  0.00  0.00    -0.295 OA
ATOM     15  C   UNL d   1      52.749  35.668  54.468  0.00  0.00     0.185 C 
ENDBRANCH  12  14
ENDBRANCH   1  12
TORSDOF 2
ENDMDL
