MODEL 1
REMARK VINA RESULT:       2.1      0.000      0.000
REMARK  4 active torsions:
REMARK  status: ('A' for Active; 'I' for Inactive)
REMARK    1  A    between atoms: N_5  and  C_1 
REMARK    2  A    between atoms: N_8  and  C_3 
REMARK    3  A    between atoms: C_19  and  N_8 
REMARK    4  A    between atoms: C_21  and  C_19 
ROOT
ATOM      1  C   UNL d   1     -41.930-121.310 -53.094  0.00  0.00     0.200 A 
ATOM      2  C   UNL d   1     -42.098-121.016 -53.845  0.00  0.00     0.288 A 
ATOM      3  C   UNL d   1     -41.643-122.086 -52.996  0.00  0.00     0.109 A 
ATOM      4  N   UNL d   1     -41.979-121.501 -54.510  0.00  0.00    -0.270 N 
ATOM      5  C   UNL d   1     -41.527-122.564 -53.667  0.00  0.00     0.036 A 
ATOM      6  C   UNL d   1     -41.695-122.270 -54.421  0.00  0.00     0.069 A 
ATOM      7  O   UNL d   1     -42.382-120.248 -53.934  0.00  0.00    -0.265 OA
ATOM      8  C   UNL d   1     -42.147-121.208 -55.261  0.00  0.00     0.102 C 
ATOM      9  C   UNL d   1     -41.243-123.333 -53.578  0.00  0.00     0.003 A 
ATOM     10  C   UNL d   1     -41.579-122.747 -55.083  0.00  0.00     0.018 A 
ATOM     11  C   UNL d   1     -41.127-123.809 -54.243  0.00  0.00     0.000 A 
ATOM     12  C   UNL d   1     -41.295-123.516 -54.994  0.00  0.00     0.002 A 
ENDROOT
BRANCH   3  13
ATOM     13  N   UNL d   1     -41.475-122.380 -52.246  0.00  0.00    -0.242 NA
BRANCH  13  14
ATOM     14  C   UNL d   1     -42.059-122.769 -51.813  0.00  0.00     0.099 C 
BRANCH  14  15
ATOM     15  C   UNL d   1     -41.905-123.018 -51.044  0.00  0.00     0.021 A 
ATOM     16  C   UNL d   1     -42.375-122.750 -50.424  0.00  0.00     0.028 A 
ATOM     17  C   UNL d   1     -42.221-122.999 -49.654  0.00  0.00     0.119 A 
ATOM     18  O   UNL d   1     -42.583-122.832 -48.940  0.00  0.00    -0.300 OA
ATOM     19  C   UNL d   1     -41.596-123.516 -49.505  0.00  0.00     0.119 A 
ATOM     20  C   UNL d   1     -42.189-123.242 -48.344  0.00  0.00     0.304 A 
ATOM     21  O   UNL d   1     -41.576-123.666 -48.700  0.00  0.00    -0.300 OA
ATOM     22  C   UNL d   1     -41.123-123.785 -50.134  0.00  0.00     0.026 A 
ATOM     23  C   UNL d   1     -41.278-123.535 -50.902  0.00  0.00     0.004 A 
ENDBRANCH  14  15
ENDBRANCH  13  14
ENDBRANCH   3  13
BRANCH   1  24
ATOM     24  N   UNL d   1     -42.046-120.833 -52.425  0.00  0.00    -0.107 N 
ATOM     25  O   UNL d   1     -41.407-120.433 -52.091  0.00  0.00    -0.531 OA
ATOM     26  O   UNL d   1     -42.800-120.757 -52.093  0.00  0.00    -0.531 OA
ENDBRANCH   1  24
TORSDOF 4
ENDMDL
MODEL 2
REMARK VINA RESULT:       4.4      1.576      4.496
REMARK  4 active torsions:
REMARK  status: ('A' for Active; 'I' for Inactive)
REMARK    1  A    between atoms: N_5  and  C_1 
REMARK    2  A    between atoms: N_8  and  C_3 
REMARK    3  A    between atoms: C_19  and  N_8 
REMARK    4  A    between atoms: C_21  and  C_19 
ROOT
ATOM      1  C   UNL d   1     -43.294-122.333 -50.397  0.00  0.00     0.200 A 
ATOM      2  C   UNL d   1     -43.787-122.496 -49.757  0.00  0.00     0.288 A 
ATOM      3  C   UNL d   1     -42.499-122.580 -50.394  0.00  0.00     0.109 A 
ATOM      4  N   UNL d   1     -43.485-122.910 -49.103  0.00  0.00    -0.270 N 
ATOM      5  C   UNL d   1     -42.205-122.994 -49.736  0.00  0.00     0.036 A 
ATOM      6  C   UNL d   1     -42.698-123.158 -49.093  0.00  0.00     0.069 A 
ATOM      7  O   UNL d   1     -44.573-122.249 -49.767  0.00  0.00    -0.265 OA
ATOM      8  C   UNL d   1     -43.976-123.073 -48.463  0.00  0.00     0.102 C 
ATOM      9  C   UNL d   1     -41.418-123.242 -49.726  0.00  0.00     0.003 A 
ATOM     10  C   UNL d   1     -42.403-123.569 -48.443  0.00  0.00     0.018 A 
ATOM     11  C   UNL d   1     -41.124-123.653 -49.072  0.00  0.00     0.000 A 
ATOM     12  C   UNL d   1     -41.616-123.816 -48.432  0.00  0.00     0.002 A 
ENDROOT
BRANCH   3  13
ATOM     13  N   UNL d   1     -42.006-122.418 -51.033  0.00  0.00    -0.242 NA
BRANCH  13  14
ATOM     14  C   UNL d   1     -41.737-123.031 -51.514  0.00  0.00     0.099 C 
BRANCH  14  15
ATOM     15  C   UNL d   1     -41.571-122.889 -52.308  0.00  0.00     0.021 A 
ATOM     16  C   UNL d   1     -41.681-123.486 -52.864  0.00  0.00     0.028 A 
ATOM     17  C   UNL d   1     -41.515-123.344 -53.657  0.00  0.00     0.119 A 
ATOM     18  O   UNL d   1     -41.568-123.817 -54.323  0.00  0.00    -0.300 OA
ATOM     19  C   UNL d   1     -41.238-122.604 -53.895  0.00  0.00     0.119 A 
ATOM     20  C   UNL d   1     -41.326-123.378 -54.976  0.00  0.00     0.304 A 
ATOM     21  O   UNL d   1     -41.123-122.625 -54.706  0.00  0.00    -0.300 OA
ATOM     22  C   UNL d   1     -41.128-122.004 -53.332  0.00  0.00     0.026 A 
ATOM     23  C   UNL d   1     -41.295-122.147 -52.539  0.00  0.00     0.004 A 
ENDBRANCH  14  15
ENDBRANCH  13  14
ENDBRANCH   3  13
BRANCH   1  24
ATOM     24  N   UNL d   1     -43.589-121.920 -51.054  0.00  0.00    -0.107 N 
ATOM     25  O   UNL d   1     -44.176-122.259 -51.522  0.00  0.00    -0.531 OA
ATOM     26  O   UNL d   1     -43.294-121.169 -51.239  0.00  0.00    -0.531 OA
ENDBRANCH   1  24
TORSDOF 4
ENDMDL
