MODEL 1
REMARK VINA RESULT:      93.4      0.000      0.000
REMARK  4 active torsions:
REMARK  status: ('A' for Active; 'I' for Inactive)
REMARK    1  A    between atoms: C_2  and  C_1 
REMARK       I    between atoms: N_7  and  C_1 
REMARK    2  A    between atoms: N_6  and  C_5 
REMARK    3  A    between atoms: C_12  and  N_7 
REMARK    4  A    between atoms: C_8  and  C_9 
ROOT
ATOM      1  C   UNL d   1      60.556  48.037  50.845  0.00  0.00     0.021 A 
ATOM      2  C   UNL d   1      59.617  49.022  50.412  0.00  0.00     0.085 A 
ATOM      3  C   UNL d   1      59.834  48.231  50.496  0.00  0.00     0.021 A 
ATOM      4  C   UNL d   1      61.060  48.635  51.110  0.00  0.00     0.002 A 
ATOM      5  C   UNL d   1      60.840  49.418  51.025  0.00  0.00     0.002 A 
ATOM      6  C   UNL d   1      60.118  49.611  50.675  0.00  0.00     0.019 A 
ENDROOT
BRANCH   1   7
ATOM      7  C   UNL d   1      60.773  47.236  50.929  0.00  0.00     0.103 A 
ATOM      8  N   UNL d   1      60.771  46.888  51.668  0.00  0.00    -0.147 NA
ATOM      9  N   UNL d   1      60.986  46.094  51.747  0.00  0.00    -0.130 NA
ATOM     10  C   UNL d   1      61.202  45.657  51.081  0.00  0.00     0.170 A 
ATOM     11  C   UNL d   1      61.201  46.017  50.334  0.00  0.00     0.041 A 
ATOM     12  C   UNL d   1      60.988  46.800  50.263  0.00  0.00     0.024 A 
BRANCH  10  13
ATOM     13  N   UNL d   1      61.415  44.872  51.155  0.00  0.00    -0.284 N 
ATOM     14  C   UNL d   1      61.377  44.504  51.892  0.00  0.00     0.108 A 
ATOM     15  C   UNL d   1      61.591  43.711  51.971  0.00  0.00     0.142 A 
ATOM     16  O   UNL d   1      61.845  43.286  51.312  0.00  0.00    -0.300 OA
ATOM     17  C   UNL d   1      61.884  43.653  50.573  0.00  0.00     0.142 A 
ATOM     18  C   UNL d   1      61.669  44.446  50.495  0.00  0.00     0.108 A 
ENDBRANCH  10  13
ENDBRANCH   1   7
BRANCH   2  19
ATOM     19  N   UNL d   1      58.895  49.216  50.063  0.00  0.00    -0.208 NA
ATOM     20  C   UNL d   1      58.196  49.119  50.477  0.00  0.00     0.280 C 
ATOM     21  O   UNL d   1      58.216  48.825  51.248  0.00  0.00    -0.265 OA
BRANCH  20  22
ATOM     22  C   UNL d   1      57.479  49.311  50.130  0.00  0.00     0.069 A 
ATOM     23  C   UNL d   1      56.817  49.441  50.593  0.00  0.00     0.062 A 
ATOM     24 CL   UNL d   1      56.871  49.377  51.422  0.00  0.00    -0.082 Cl
ATOM     25  C   UNL d   1      56.095  49.635  50.244  0.00  0.00     0.012 A 
ATOM     26  C   UNL d   1      56.035  49.699  49.431  0.00  0.00     0.001 A 
ATOM     27  C   UNL d   1      56.700  49.570  48.959  0.00  0.00     0.000 A 
ATOM     28  C   UNL d   1      57.421  49.376  49.308  0.00  0.00     0.006 A 
ENDBRANCH  20  22
ENDBRANCH   2  19
TORSDOF 4
ENDMDL
