MODEL 1
REMARK VINA RESULT:      -8.8      0.000      0.000
REMARK  3 active torsions:
REMARK  status: ('A' for Active; 'I' for Inactive)
REMARK    1  A    between atoms: N_2  and  S_1 
REMARK    2  A    between atoms: C_8  and  S_1 
REMARK    3  A    between atoms: C_3  and  N_2 
ROOT
ATOM      1  C   UNL d   1     -47.869  12.977  23.056  0.00  0.00     0.094 A 
ATOM      2  C   UNL d   1     -47.258  12.429  23.232  0.00  0.00     0.021 A 
ATOM      3  C   UNL d   1     -46.528  12.679  23.080  0.00  0.00     0.040 A 
ATOM      4  C   UNL d   1     -46.308  13.394  22.778  0.00  0.00     0.196 A 
ATOM      5  C   UNL d   1     -47.714  13.713  22.750  0.00  0.00     0.023 A 
ATOM      6  C   UNL d   1     -46.921  13.945  22.601  0.00  0.00     0.044 A 
ATOM      7  O   UNL d   1     -45.477  13.621  22.628  0.00  0.00    -0.287 OA
ATOM      8  C   UNL d   1     -47.435  11.731  23.524  0.00  0.00     0.002 A 
ATOM      9  C   UNL d   1     -45.872  12.183  23.233  0.00  0.00     0.003 A 
ATOM     10  C   UNL d   1     -46.036  11.417  23.551  0.00  0.00     0.000 A 
ATOM     11  C   UNL d   1     -46.836  11.193  23.698  0.00  0.00     0.000 A 
ENDROOT
BRANCH   1  12
ATOM     12  N   UNL d   1     -48.604  12.775  23.189  0.00  0.00    -0.158 NA
BRANCH  12  13
ATOM     13  S   UNL d   1     -49.225  13.215  22.840  0.00  0.00     0.285 S 
ATOM     14  O   UNL d   1     -49.178  12.708  22.149  0.00  0.00    -0.198 OA
ATOM     15  O   UNL d   1     -49.243  13.662  23.489  0.00  0.00    -0.198 OA
BRANCH  13  16
ATOM     16  C   UNL d   1     -49.851  13.652  22.481  0.00  0.00     0.105 A 
ATOM     17  C   UNL d   1     -50.263  13.306  21.841  0.00  0.00     0.013 A 
ATOM     18  C   UNL d   1     -50.859  13.701  21.484  0.00  0.00     0.001 A 
ATOM     19  C   UNL d   1     -51.064  14.421  21.734  0.00  0.00     0.000 A 
ATOM     20  C   UNL d   1     -50.652  14.776  22.380  0.00  0.00     0.001 A 
ATOM     21  C   UNL d   1     -50.038  14.357  22.739  0.00  0.00     0.013 A 
ENDBRANCH  13  16
ENDBRANCH  12  13
ENDBRANCH   1  12
TORSDOF 3
ENDMDL
MODEL 2
REMARK VINA RESULT:      -8.7      1.187      4.124
REMARK  3 active torsions:
REMARK  status: ('A' for Active; 'I' for Inactive)
REMARK    1  A    between atoms: N_2  and  S_1 
REMARK    2  A    between atoms: C_8  and  S_1 
REMARK    3  A    between atoms: C_3  and  N_2 
ROOT
ATOM      1  C   UNL d   1     -48.924  14.385  22.650  0.00  0.00     0.094 A 
ATOM      2  C   UNL d   1     -49.644  14.763  22.856  0.00  0.00     0.021 A 
ATOM      3  C   UNL d   1     -50.264  14.571  22.410  0.00  0.00     0.040 A 
ATOM      4  C   UNL d   1     -50.278  14.060  21.786  0.00  0.00     0.196 A 
ATOM      5  C   UNL d   1     -48.871  13.860  22.033  0.00  0.00     0.023 A 
ATOM      6  C   UNL d   1     -49.554  13.680  21.579  0.00  0.00     0.044 A 
ATOM      7  O   UNL d   1     -50.998  13.882  21.322  0.00  0.00    -0.287 OA
ATOM      8  C   UNL d   1     -49.666  15.261  23.451  0.00  0.00     0.002 A 
ATOM      9  C   UNL d   1     -51.013  14.910  22.560  0.00  0.00     0.003 A 
ATOM     10  C   UNL d   1     -51.064  15.457  23.203  0.00  0.00     0.000 A 
ATOM     11  C   UNL d   1     -50.373  15.631  23.654  0.00  0.00     0.000 A 
ENDROOT
BRANCH   1  12
ATOM     12  N   UNL d   1     -48.287  14.543  23.061  0.00  0.00    -0.158 NA
BRANCH  12  13
ATOM     13  S   UNL d   1     -47.605  14.064  22.971  0.00  0.00     0.285 S 
ATOM     14  O   UNL d   1     -47.256  14.677  22.482  0.00  0.00    -0.198 OA
ATOM     15  O   UNL d   1     -47.955  13.522  23.424  0.00  0.00    -0.198 OA
BRANCH  13  16
ATOM     16  C   UNL d   1     -46.915  13.590  22.876  0.00  0.00     0.105 A 
ATOM     17  C   UNL d   1     -46.864  12.870  23.298  0.00  0.00     0.013 A 
ATOM     18  C   UNL d   1     -46.219  12.403  23.223  0.00  0.00     0.001 A 
ATOM     19  C   UNL d   1     -45.625  12.618  22.750  0.00  0.00     0.000 A 
ATOM     20  C   UNL d   1     -45.671  13.344  22.321  0.00  0.00     0.001 A 
ATOM     21  C   UNL d   1     -46.343  13.817  22.407  0.00  0.00     0.013 A 
ENDBRANCH  13  16
ENDBRANCH  12  13
ENDBRANCH   1  12
TORSDOF 3
ENDMDL
MODEL 3
REMARK VINA RESULT:      -7.9      1.326      3.689
REMARK  3 active torsions:
REMARK  status: ('A' for Active; 'I' for Inactive)
REMARK    1  A    between atoms: N_2  and  S_1 
REMARK    2  A    between atoms: C_8  and  S_1 
REMARK    3  A    between atoms: C_3  and  N_2 
ROOT
ATOM      1  C   UNL d   1     -48.868  13.202  22.840  0.00  0.00     0.094 A 
ATOM      2  C   UNL d   1     -49.609  12.837  22.989  0.00  0.00     0.021 A 
ATOM      3  C   UNL d   1     -50.199  13.074  22.526  0.00  0.00     0.040 A 
ATOM      4  C   UNL d   1     -50.168  13.622  21.935  0.00  0.00     0.196 A 
ATOM      5  C   UNL d   1     -48.770  13.761  22.260  0.00  0.00     0.023 A 
ATOM      6  C   UNL d   1     -49.424  13.989  21.786  0.00  0.00     0.044 A 
ATOM      7  O   UNL d   1     -50.858  13.850  21.449  0.00  0.00    -0.287 OA
ATOM      8  C   UNL d   1     -49.674  12.305  23.551  0.00  0.00     0.002 A 
ATOM      9  C   UNL d   1     -50.965  12.751  22.620  0.00  0.00     0.003 A 
ATOM     10  C   UNL d   1     -51.064  12.169  23.226  0.00  0.00     0.000 A 
ATOM     11  C   UNL d   1     -50.401  11.946  23.697  0.00  0.00     0.000 A 
ENDROOT
BRANCH   1  12
ATOM     12  N   UNL d   1     -48.257  13.000  23.271  0.00  0.00    -0.158 NA
BRANCH  12  13
ATOM     13  S   UNL d   1     -47.485  13.195  23.013  0.00  0.00     0.285 S 
ATOM     14  O   UNL d   1     -47.479  12.482  22.534  0.00  0.00    -0.198 OA
ATOM     15  O   UNL d   1     -47.522  13.840  23.464  0.00  0.00    -0.198 OA
BRANCH  13  16
ATOM     16  C   UNL d   1     -46.706  13.383  22.749  0.00  0.00     0.105 A 
ATOM     17  C   UNL d   1     -46.232  12.770  22.436  0.00  0.00     0.013 A 
ATOM     18  C   UNL d   1     -45.491  12.924  22.179  0.00  0.00     0.001 A 
ATOM     19  C   UNL d   1     -45.201  13.657  22.219  0.00  0.00     0.000 A 
ATOM     20  C   UNL d   1     -45.675  14.281  22.534  0.00  0.00     0.001 A 
ATOM     21  C   UNL d   1     -46.439  14.108  22.796  0.00  0.00     0.013 A 
ENDBRANCH  13  16
ENDBRANCH  12  13
ENDBRANCH   1  12
TORSDOF 3
ENDMDL
MODEL 4
REMARK VINA RESULT:      -6.5      8.506     10.111
REMARK  3 active torsions:
REMARK  status: ('A' for Active; 'I' for Inactive)
REMARK    1  A    between atoms: N_2  and  S_1 
REMARK    2  A    between atoms: C_8  and  S_1 
REMARK    3  A    between atoms: C_3  and  N_2 
ROOT
ATOM      1  C   UNL d   1     -39.865  14.634  19.347  0.00  0.00     0.094 A 
ATOM      2  C   UNL d   1     -40.284  15.078  19.923  0.00  0.00     0.021 A 
ATOM      3  C   UNL d   1     -39.989  15.043  20.653  0.00  0.00     0.040 A 
ATOM      4  C   UNL d   1     -39.339  14.634  20.899  0.00  0.00     0.196 A 
ATOM      5  C   UNL d   1     -39.204  14.201  19.530  0.00  0.00     0.023 A 
ATOM      6  C   UNL d   1     -38.919  14.188  20.319  0.00  0.00     0.044 A 
ATOM      7  O   UNL d   1     -39.053  14.630  21.725  0.00  0.00    -0.287 OA
ATOM      8  C   UNL d   1     -40.914  15.484  19.720  0.00  0.00     0.002 A 
ATOM      9  C   UNL d   1     -40.356  15.462  21.276  0.00  0.00     0.003 A 
ATOM     10  C   UNL d   1     -41.045  15.912  21.082  0.00  0.00     0.000 A 
ATOM     11  C   UNL d   1     -41.324  15.919  20.287  0.00  0.00     0.000 A 
ENDROOT
BRANCH   1  12
ATOM     12  N   UNL d   1     -40.118  14.638  18.615  0.00  0.00    -0.158 NA
BRANCH  12  13
ATOM     13  S   UNL d   1     -39.619  14.364  18.001  0.00  0.00     0.285 S 
ATOM     14  O   UNL d   1     -40.023  13.607  18.028  0.00  0.00    -0.198 OA
ATOM     15  O   UNL d   1     -39.269  15.070  18.002  0.00  0.00    -0.198 OA
BRANCH  13  16
ATOM     16  C   UNL d   1     -39.121  14.080  17.383  0.00  0.00     0.105 A 
ATOM     17  C   UNL d   1     -38.899  14.608  16.775  0.00  0.00     0.013 A 
ATOM     18  C   UNL d   1     -38.427  14.361  16.178  0.00  0.00     0.001 A 
ATOM     19  C   UNL d   1     -38.167  13.616  16.159  0.00  0.00     0.000 A 
ATOM     20  C   UNL d   1     -38.388  13.078  16.771  0.00  0.00     0.001 A 
ATOM     21  C   UNL d   1     -38.876  13.346  17.381  0.00  0.00     0.013 A 
ENDBRANCH  13  16
ENDBRANCH  12  13
ENDBRANCH   1  12
TORSDOF 3
ENDMDL
MODEL 5
REMARK VINA RESULT:      -6.5      8.419     10.042
REMARK  3 active torsions:
REMARK  status: ('A' for Active; 'I' for Inactive)
REMARK    1  A    between atoms: N_2  and  S_1 
REMARK    2  A    between atoms: C_8  and  S_1 
REMARK    3  A    between atoms: C_3  and  N_2 
ROOT
ATOM      1  C   UNL d   1     -39.516  14.118  18.170  0.00  0.00     0.094 A 
ATOM      2  C   UNL d   1     -38.997  13.670  17.686  0.00  0.00     0.021 A 
ATOM      3  C   UNL d   1     -38.820  13.994  16.992  0.00  0.00     0.040 A 
ATOM      4  C   UNL d   1     -39.080  14.700  16.701  0.00  0.00     0.196 A 
ATOM      5  C   UNL d   1     -39.813  14.837  17.935  0.00  0.00     0.023 A 
ATOM      6  C   UNL d   1     -39.601  15.151  17.187  0.00  0.00     0.044 A 
ATOM      7  O   UNL d   1     -38.850  15.016  15.918  0.00  0.00    -0.287 OA
ATOM      8  C   UNL d   1     -38.728  12.985  17.936  0.00  0.00     0.002 A 
ATOM      9  C   UNL d   1     -38.308  13.601  16.461  0.00  0.00     0.003 A 
ATOM     10  C   UNL d   1     -38.001  12.853  16.707  0.00  0.00     0.000 A 
ATOM     11  C   UNL d   1     -38.219  12.544  17.461  0.00  0.00     0.000 A 
ENDROOT
BRANCH   1  12
ATOM     12  N   UNL d   1     -39.719  13.839  18.862  0.00  0.00    -0.158 NA
BRANCH  12  13
ATOM     13  S   UNL d   1     -39.970  14.363  19.465  0.00  0.00     0.285 S 
ATOM     14  O   UNL d   1     -40.785  14.215  19.237  0.00  0.00    -0.198 OA
ATOM     15  O   UNL d   1     -39.212  14.478  19.649  0.00  0.00    -0.198 OA
BRANCH  13  16
ATOM     16  C   UNL d   1     -40.232  14.890  20.070  0.00  0.00     0.105 A 
ATOM     17  C   UNL d   1     -39.659  15.316  20.503  0.00  0.00     0.013 A 
ATOM     18  C   UNL d   1     -39.883  15.821  21.081  0.00  0.00     0.001 A 
ATOM     19  C   UNL d   1     -40.648  15.921  21.247  0.00  0.00     0.000 A 
ATOM     20  C   UNL d   1     -41.232  15.493  20.813  0.00  0.00     0.001 A 
ATOM     21  C   UNL d   1     -40.987  14.975  20.218  0.00  0.00     0.013 A 
ENDBRANCH  13  16
ENDBRANCH  12  13
ENDBRANCH   1  12
TORSDOF 3
ENDMDL
MODEL 6
REMARK VINA RESULT:      -6.4      8.706      9.750
REMARK  3 active torsions:
REMARK  status: ('A' for Active; 'I' for Inactive)
REMARK    1  A    between atoms: N_2  and  S_1 
REMARK    2  A    between atoms: C_8  and  S_1 
REMARK    3  A    between atoms: C_3  and  N_2 
ROOT
ATOM      1  C   UNL d   1     -40.164  14.787  18.984  0.00  0.00     0.094 A 
ATOM      2  C   UNL d   1     -40.427  15.068  18.239  0.00  0.00     0.021 A 
ATOM      3  C   UNL d   1     -40.108  14.712  17.613  0.00  0.00     0.040 A 
ATOM      4  C   UNL d   1     -39.565  14.116  17.614  0.00  0.00     0.196 A 
ATOM      5  C   UNL d   1     -39.619  14.189  19.053  0.00  0.00     0.023 A 
ATOM      6  C   UNL d   1     -39.300  13.833  18.363  0.00  0.00     0.044 A 
ATOM      7  O   UNL d   1     -39.241  13.755  16.886  0.00  0.00    -0.287 OA
ATOM      8  C   UNL d   1     -40.949  15.642  18.202  0.00  0.00     0.002 A 
ATOM      9  C   UNL d   1     -40.325  14.944  16.840  0.00  0.00     0.003 A 
ATOM     10  C   UNL d   1     -40.893  15.566  16.771  0.00  0.00     0.000 A 
ATOM     11  C   UNL d   1     -41.208  15.918  17.470  0.00  0.00     0.000 A 
ENDROOT
BRANCH   1  12
ATOM     12  N   UNL d   1     -40.450  15.107  19.628  0.00  0.00    -0.158 NA
BRANCH  12  13
ATOM     13  S   UNL d   1     -40.089  14.949  20.367  0.00  0.00     0.285 S 
ATOM     14  O   UNL d   1     -40.681  14.344  20.512  0.00  0.00    -0.198 OA
ATOM     15  O   UNL d   1     -39.561  15.510  20.203  0.00  0.00    -0.198 OA
BRANCH  13  16
ATOM     16  C   UNL d   1     -39.732  14.783  21.112  0.00  0.00     0.105 A 
ATOM     17  C   UNL d   1     -39.349  15.404  21.519  0.00  0.00     0.013 A 
ATOM     18  C   UNL d   1     -39.004  15.271  22.227  0.00  0.00     0.001 A 
ATOM     19  C   UNL d   1     -39.022  14.551  22.549  0.00  0.00     0.000 A 
ATOM     20  C   UNL d   1     -39.407  13.919  22.144  0.00  0.00     0.001 A 
ATOM     21  C   UNL d   1     -39.760  14.070  21.412  0.00  0.00     0.013 A 
ENDBRANCH  13  16
ENDBRANCH  12  13
ENDBRANCH   1  12
TORSDOF 3
ENDMDL
MODEL 7
REMARK VINA RESULT:      -6.1      9.028      9.505
REMARK  3 active torsions:
REMARK  status: ('A' for Active; 'I' for Inactive)
REMARK    1  A    between atoms: N_2  and  S_1 
REMARK    2  A    between atoms: C_8  and  S_1 
REMARK    3  A    between atoms: C_3  and  N_2 
ROOT
ATOM      1  C   UNL d   1     -39.654  14.764  20.002  0.00  0.00     0.094 A 
ATOM      2  C   UNL d   1     -39.257  14.440  20.666  0.00  0.00     0.021 A 
ATOM      3  C   UNL d   1     -39.346  14.840  21.338  0.00  0.00     0.040 A 
ATOM      4  C   UNL d   1     -39.770  15.516  21.453  0.00  0.00     0.196 A 
ATOM      5  C   UNL d   1     -40.098  15.443  20.051  0.00  0.00     0.023 A 
ATOM      6  C   UNL d   1     -40.168  15.842  20.785  0.00  0.00     0.044 A 
ATOM      7  O   UNL d   1     -39.835  15.922  22.225  0.00  0.00    -0.287 OA
ATOM      8  C   UNL d   1     -38.840  13.790  20.590  0.00  0.00     0.002 A 
ATOM      9  C   UNL d   1     -38.977  14.573  22.039  0.00  0.00     0.003 A 
ATOM     10  C   UNL d   1     -38.516  13.866  21.985  0.00  0.00     0.000 A 
ATOM     11  C   UNL d   1     -38.450  13.471  21.243  0.00  0.00     0.000 A 
ENDROOT
BRANCH   1  12
ATOM     12  N   UNL d   1     -39.597  14.405  19.318  0.00  0.00    -0.158 NA
BRANCH  12  13
ATOM     13  S   UNL d   1     -39.877  14.782  18.625  0.00  0.00     0.285 S 
ATOM     14  O   UNL d   1     -40.603  14.327  18.687  0.00  0.00    -0.198 OA
ATOM     15  O   UNL d   1     -39.199  15.184  18.598  0.00  0.00    -0.198 OA
BRANCH  13  16
ATOM     16  C   UNL d   1     -40.167  15.157  17.928  0.00  0.00     0.105 A 
ATOM     17  C   UNL d   1     -39.624  15.553  17.432  0.00  0.00     0.013 A 
ATOM     18  C   UNL d   1     -39.875  15.916  16.766  0.00  0.00     0.001 A 
ATOM     19  C   UNL d   1     -40.640  15.902  16.570  0.00  0.00     0.000 A 
ATOM     20  C   UNL d   1     -41.194  15.503  17.067  0.00  0.00     0.001 A 
ATOM     21  C   UNL d   1     -40.921  15.133  17.752  0.00  0.00     0.013 A 
ENDBRANCH  13  16
ENDBRANCH  12  13
ENDBRANCH   1  12
TORSDOF 3
ENDMDL
