MODEL 1
REMARK VINA RESULT:      -7.4      0.000      0.000
REMARK  3 active torsions:
REMARK  status: ('A' for Active; 'I' for Inactive)
REMARK    1  A    between atoms: C_12  and  C_4 
REMARK    2  A    between atoms: S_8  and  C_12 
REMARK    3  A    between atoms: C_11  and  S_8 
ROOT
ATOM      1  N   UNL d   1      53.184  33.087  53.759  0.00  0.00    -0.289 N 
ATOM      2  C   UNL d   1      53.202  33.861  54.100  0.00  0.00     0.148 A 
ATOM      3  N   UNL d   1      52.635  34.334  53.694  0.00  0.00    -0.226 NA
ATOM      4  C   UNL d   1      52.295  33.842  53.130  0.00  0.00     0.107 A 
ATOM      5  C   UNL d   1      52.606  33.114  53.158  0.00  0.00     0.101 A 
ATOM      6  C   UNL d   1      53.683  32.518  54.053  0.00  0.00     0.066 A 
ATOM      7  C   UNL d   1      53.719  34.034  54.719  0.00  0.00     0.037 A 
ATOM      8  C   UNL d   1      54.221  33.439  55.005  0.00  0.00     0.005 A 
ATOM      9  C   UNL d   1      54.203  32.697  54.679  0.00  0.00     0.018 A 
ATOM     10  C   UNL d   1      53.664  31.747  53.714  0.00  0.00     0.019 C 
ENDROOT
BRANCH   4  11
ATOM     11  C   UNL d   1      51.695  34.124  52.610  0.00  0.00     0.056 C 
BRANCH  11  12
ATOM     12  S   UNL d   1      50.943  34.227  52.928  0.00  0.00    -0.083 SA
BRANCH  12  13
ATOM     13  C   UNL d   1      50.289  34.378  52.411  0.00  0.00     0.049 A 
ATOM     14  C   UNL d   1      49.626  34.770  52.694  0.00  0.00     0.109 A 
ATOM     15  N   UNL d   1      49.595  35.028  53.518  0.00  0.00    -0.148 N 
ATOM     16  C   UNL d   1      48.990  34.917  52.191  0.00  0.00     0.021 A 
ATOM     17  C   UNL d   1      49.024  34.671  51.412  0.00  0.00     0.002 A 
ATOM     18  C   UNL d   1      49.651  34.298  51.136  0.00  0.00     0.001 A 
ATOM     19  C   UNL d   1      50.322  34.130  51.625  0.00  0.00     0.008 A 
ENDBRANCH  12  13
ENDBRANCH  11  12
ENDBRANCH   4  11
TORSDOF 3
ENDMDL
MODEL 2
REMARK VINA RESULT:      -7.4      2.059      4.269
REMARK  3 active torsions:
REMARK  status: ('A' for Active; 'I' for Inactive)
REMARK    1  A    between atoms: C_12  and  C_4 
REMARK    2  A    between atoms: S_8  and  C_12 
REMARK    3  A    between atoms: C_11  and  S_8 
ROOT
ATOM      1  N   UNL d   1      53.010  33.919  53.713  0.00  0.00    -0.289 N 
ATOM      2  C   UNL d   1      53.402  34.008  54.457  0.00  0.00     0.148 A 
ATOM      3  N   UNL d   1      53.708  33.256  54.679  0.00  0.00    -0.226 NA
ATOM      4  C   UNL d   1      53.496  32.740  54.074  0.00  0.00     0.107 A 
ATOM      5  C   UNL d   1      53.090  33.114  53.506  0.00  0.00     0.101 A 
ATOM      6  C   UNL d   1      52.662  34.569  53.372  0.00  0.00     0.066 A 
ATOM      7  C   UNL d   1      53.431  34.744  54.830  0.00  0.00     0.037 A 
ATOM      8  C   UNL d   1      53.070  35.396  54.465  0.00  0.00     0.005 A 
ATOM      9  C   UNL d   1      52.694  35.310  53.752  0.00  0.00     0.018 A 
ATOM     10  C   UNL d   1      52.272  34.479  52.632  0.00  0.00     0.019 C 
ENDROOT
BRANCH   4  11
ATOM     11  C   UNL d   1      53.709  31.925  54.101  0.00  0.00     0.056 C 
BRANCH  11  12
ATOM     12  S   UNL d   1      53.311  31.418  53.590  0.00  0.00    -0.083 SA
BRANCH  12  13
ATOM     13  C   UNL d   1      53.271  30.592  53.771  0.00  0.00     0.049 A 
ATOM     14  C   UNL d   1      52.983  30.063  53.212  0.00  0.00     0.109 A 
ATOM     15  N   UNL d   1      52.722  30.351  52.440  0.00  0.00    -0.148 N 
ATOM     16  C   UNL d   1      52.944  29.259  53.388  0.00  0.00     0.021 A 
ATOM     17  C   UNL d   1      53.193  28.992  54.120  0.00  0.00     0.002 A 
ATOM     18  C   UNL d   1      53.467  29.489  54.656  0.00  0.00     0.001 A 
ATOM     19  C   UNL d   1      53.521  30.321  54.509  0.00  0.00     0.008 A 
ENDBRANCH  12  13
ENDBRANCH  11  12
ENDBRANCH   4  11
TORSDOF 3
ENDMDL
MODEL 3
REMARK VINA RESULT:      -7.3      2.239      3.545
REMARK  3 active torsions:
REMARK  status: ('A' for Active; 'I' for Inactive)
REMARK    1  A    between atoms: C_12  and  C_4 
REMARK    2  A    between atoms: S_8  and  C_12 
REMARK    3  A    between atoms: C_11  and  S_8 
ROOT
ATOM      1  N   UNL d   1      53.251  30.576  53.780  0.00  0.00    -0.289 N 
ATOM      2  C   UNL d   1      53.035  30.770  52.985  0.00  0.00     0.148 A 
ATOM      3  N   UNL d   1      53.132  31.601  52.888  0.00  0.00    -0.226 NA
ATOM      4  C   UNL d   1      53.399  31.882  53.614  0.00  0.00     0.107 A 
ATOM      5  C   UNL d   1      53.472  31.295  54.141  0.00  0.00     0.101 A 
ATOM      6  C   UNL d   1      53.206  29.802  54.020  0.00  0.00     0.066 A 
ATOM      7  C   UNL d   1      52.784  30.182  52.464  0.00  0.00     0.037 A 
ATOM      8  C   UNL d   1      52.745  29.397  52.729  0.00  0.00     0.005 A 
ATOM      9  C   UNL d   1      52.952  29.211  53.490  0.00  0.00     0.018 A 
ATOM     10  C   UNL d   1      53.421  29.609  54.811  0.00  0.00     0.019 C 
ENDROOT
BRANCH   4  11
ATOM     11  C   UNL d   1      53.561  32.700  53.732  0.00  0.00     0.056 C 
BRANCH  11  12
ATOM     12  S   UNL d   1      52.933  33.223  53.638  0.00  0.00    -0.083 SA
BRANCH  12  13
ATOM     13  C   UNL d   1      52.998  34.012  53.940  0.00  0.00     0.049 A 
ATOM     14  C   UNL d   1      52.561  34.618  53.601  0.00  0.00     0.109 A 
ATOM     15  N   UNL d   1      52.035  34.451  52.936  0.00  0.00    -0.148 N 
ATOM     16  C   UNL d   1      52.624  35.385  53.895  0.00  0.00     0.021 A 
ATOM     17  C   UNL d   1      53.123  35.538  54.525  0.00  0.00     0.002 A 
ATOM     18  C   UNL d   1      53.542  34.966  54.852  0.00  0.00     0.001 A 
ATOM     19  C   UNL d   1      53.501  34.167  54.575  0.00  0.00     0.008 A 
ENDBRANCH  12  13
ENDBRANCH  11  12
ENDBRANCH   4  11
TORSDOF 3
ENDMDL
MODEL 4
REMARK VINA RESULT:      -7.2      0.888      4.526
REMARK  3 active torsions:
REMARK  status: ('A' for Active; 'I' for Inactive)
REMARK    1  A    between atoms: C_12  and  C_4 
REMARK    2  A    between atoms: S_8  and  C_12 
REMARK    3  A    between atoms: C_11  and  S_8 
ROOT
ATOM      1  N   UNL d   1      50.457  34.589  52.759  0.00  0.00    -0.289 N 
ATOM      2  C   UNL d   1      50.826  34.244  52.080  0.00  0.00     0.148 A 
ATOM      3  N   UNL d   1      51.632  34.094  52.275  0.00  0.00    -0.226 NA
ATOM      4  C   UNL d   1      51.726  34.348  53.051  0.00  0.00     0.107 A 
ATOM      5  C   UNL d   1      51.050  34.637  53.344  0.00  0.00     0.101 A 
ATOM      6  C   UNL d   1      49.671  34.789  52.718  0.00  0.00     0.066 A 
ATOM      7  C   UNL d   1      50.394  34.113  51.389  0.00  0.00     0.037 A 
ATOM      8  C   UNL d   1      49.592  34.325  51.368  0.00  0.00     0.005 A 
ATOM      9  C   UNL d   1      49.238  34.655  52.018  0.00  0.00     0.018 A 
ATOM     10  C   UNL d   1      49.303  35.132  53.394  0.00  0.00     0.019 C 
ENDROOT
BRANCH   4  11
ATOM     11  C   UNL d   1      52.470  34.286  53.443  0.00  0.00     0.056 C 
BRANCH  11  12
ATOM     12  S   UNL d   1      52.693  33.539  53.706  0.00  0.00    -0.083 SA
BRANCH  12  13
ATOM     13  C   UNL d   1      53.377  33.457  54.198  0.00  0.00     0.049 A 
ATOM     14  C   UNL d   1      53.742  32.726  54.275  0.00  0.00     0.109 A 
ATOM     15  N   UNL d   1      53.428  32.040  53.853  0.00  0.00    -0.148 N 
ATOM     16  C   UNL d   1      54.408  32.647  54.754  0.00  0.00     0.021 A 
ATOM     17  C   UNL d   1      54.701  33.299  55.152  0.00  0.00     0.002 A 
ATOM     18  C   UNL d   1      54.359  33.998  55.083  0.00  0.00     0.001 A 
ATOM     19  C   UNL d   1      53.674  34.114  54.600  0.00  0.00     0.008 A 
ENDBRANCH  12  13
ENDBRANCH  11  12
ENDBRANCH   4  11
TORSDOF 3
ENDMDL
MODEL 5
REMARK VINA RESULT:      -6.9      1.013      4.434
REMARK  3 active torsions:
REMARK  status: ('A' for Active; 'I' for Inactive)
REMARK    1  A    between atoms: C_12  and  C_4 
REMARK    2  A    between atoms: S_8  and  C_12 
REMARK    3  A    between atoms: C_11  and  S_8 
ROOT
ATOM      1  N   UNL d   1      50.007  34.459  52.047  0.00  0.00    -0.289 N 
ATOM      2  C   UNL d   1      49.958  34.748  52.840  0.00  0.00     0.148 A 
ATOM      3  N   UNL d   1      50.691  34.580  53.220  0.00  0.00    -0.226 NA
ATOM      4  C   UNL d   1      51.154  34.201  52.656  0.00  0.00     0.107 A 
ATOM      5  C   UNL d   1      50.767  34.125  51.970  0.00  0.00     0.101 A 
ATOM      6  C   UNL d   1      49.367  34.551  51.556  0.00  0.00     0.066 A 
ATOM      7  C   UNL d   1      49.271  35.117  53.110  0.00  0.00     0.037 A 
ATOM      8  C   UNL d   1      48.628  35.202  52.593  0.00  0.00     0.005 A 
ATOM      9  C   UNL d   1      48.675  34.925  51.832  0.00  0.00     0.018 A 
ATOM     10  C   UNL d   1      49.415  34.263  50.766  0.00  0.00     0.019 C 
ENDROOT
BRANCH   4  11
ATOM     11  C   UNL d   1      51.937  33.945  52.836  0.00  0.00     0.056 C 
BRANCH  11  12
ATOM     12  S   UNL d   1      52.047  33.141  52.965  0.00  0.00    -0.083 SA
BRANCH  12  13
ATOM     13  C   UNL d   1      52.800  32.860  53.233  0.00  0.00     0.049 A 
ATOM     14  C   UNL d   1      52.966  32.057  53.222  0.00  0.00     0.109 A 
ATOM     15  N   UNL d   1      52.372  31.497  52.937  0.00  0.00    -0.148 N 
ATOM     16  C   UNL d   1      53.699  31.784  53.482  0.00  0.00     0.021 A 
ATOM     17  C   UNL d   1      54.257  32.318  53.751  0.00  0.00     0.002 A 
ATOM     18  C   UNL d   1      54.107  33.084  53.765  0.00  0.00     0.001 A 
ATOM     19  C   UNL d   1      53.365  33.397  53.504  0.00  0.00     0.008 A 
ENDBRANCH  12  13
ENDBRANCH  11  12
ENDBRANCH   4  11
TORSDOF 3
ENDMDL
MODEL 6
REMARK VINA RESULT:      -5.8     10.008     10.897
REMARK  3 active torsions:
REMARK  status: ('A' for Active; 'I' for Inactive)
REMARK    1  A    between atoms: C_12  and  C_4 
REMARK    2  A    between atoms: S_8  and  C_12 
REMARK    3  A    between atoms: C_11  and  S_8 
ROOT
ATOM      1  N   UNL d   1      45.038  29.071  58.138  0.00  0.00    -0.289 N 
ATOM      2  C   UNL d   1      44.776  29.790  57.779  0.00  0.00     0.148 A 
ATOM      3  N   UNL d   1      44.708  30.370  58.386  0.00  0.00    -0.226 NA
ATOM      4  C   UNL d   1      44.927  29.993  59.082  0.00  0.00     0.107 A 
ATOM      5  C   UNL d   1      45.121  29.236  58.951  0.00  0.00     0.101 A 
ATOM      6  C   UNL d   1      45.149  28.417  57.669  0.00  0.00     0.066 A 
ATOM      7  C   UNL d   1      44.635  29.827  56.966  0.00  0.00     0.037 A 
ATOM      8  C   UNL d   1      44.755  29.148  56.505  0.00  0.00     0.005 A 
ATOM      9  C   UNL d   1      45.006  28.458  56.849  0.00  0.00     0.018 A 
ATOM     10  C   UNL d   1      45.411  27.701  58.027  0.00  0.00     0.019 C 
ENDROOT
BRANCH   4  11
ATOM     11  C   UNL d   1      44.928  30.403  59.819  0.00  0.00     0.056 C 
BRANCH  11  12
ATOM     12  S   UNL d   1      44.617  30.005  60.469  0.00  0.00    -0.083 SA
BRANCH  12  13
ATOM     13  C   UNL d   1      44.514  30.419  61.200  0.00  0.00     0.049 A 
ATOM     14  C   UNL d   1      44.415  29.999  61.899  0.00  0.00     0.109 A 
ATOM     15  N   UNL d   1      44.415  29.135  61.886  0.00  0.00    -0.148 N 
ATOM     16  C   UNL d   1      44.314  30.402  62.610  0.00  0.00     0.021 A 
ATOM     17  C   UNL d   1      44.315  31.220  62.617  0.00  0.00     0.002 A 
ATOM     18  C   UNL d   1      44.409  31.626  61.957  0.00  0.00     0.001 A 
ATOM     19  C   UNL d   1      44.515  31.244  61.208  0.00  0.00     0.008 A 
ENDBRANCH  12  13
ENDBRANCH  11  12
ENDBRANCH   4  11
TORSDOF 3
ENDMDL
MODEL 7
REMARK VINA RESULT:      -5.2     10.305     10.974
REMARK  3 active torsions:
REMARK  status: ('A' for Active; 'I' for Inactive)
REMARK    1  A    between atoms: C_12  and  C_4 
REMARK    2  A    between atoms: S_8  and  C_12 
REMARK    3  A    between atoms: C_11  and  S_8 
ROOT
ATOM      1  N   UNL d   1      44.478  30.072  61.344  0.00  0.00    -0.289 N 
ATOM      2  C   UNL d   1      44.442  29.228  61.307  0.00  0.00     0.148 A 
ATOM      3  N   UNL d   1      44.405  29.008  60.494  0.00  0.00    -0.226 NA
ATOM      4  C   UNL d   1      44.419  29.713  60.071  0.00  0.00     0.107 A 
ATOM      5  C   UNL d   1      44.462  30.339  60.554  0.00  0.00     0.101 A 
ATOM      6  C   UNL d   1      44.518  30.431  62.072  0.00  0.00     0.066 A 
ATOM      7  C   UNL d   1      44.447  28.777  61.998  0.00  0.00     0.037 A 
ATOM      8  C   UNL d   1      44.489  29.162  62.731  0.00  0.00     0.005 A 
ATOM      9  C   UNL d   1      44.523  29.972  62.767  0.00  0.00     0.018 A 
ATOM     10  C   UNL d   1      44.554  31.271  62.109  0.00  0.00     0.019 C 
ENDROOT
BRANCH   4  11
ATOM     11  C   UNL d   1      44.390  29.715  59.228  0.00  0.00     0.056 C 
BRANCH  11  12
ATOM     12  S   UNL d   1      44.858  29.164  58.836  0.00  0.00    -0.083 SA
BRANCH  12  13
ATOM     13  C   UNL d   1      44.881  29.163  57.990  0.00  0.00     0.049 A 
ATOM     14  C   UNL d   1      45.179  28.513  57.588  0.00  0.00     0.109 A 
ATOM     15  N   UNL d   1      45.470  27.829  58.029  0.00  0.00    -0.148 N 
ATOM     16  C   UNL d   1      45.202  28.512  56.764  0.00  0.00     0.021 A 
ATOM     17  C   UNL d   1      44.925  29.163  56.351  0.00  0.00     0.002 A 
ATOM     18  C   UNL d   1      44.640  29.785  56.726  0.00  0.00     0.001 A 
ATOM     19  C   UNL d   1      44.602  29.818  57.571  0.00  0.00     0.008 A 
ENDBRANCH  12  13
ENDBRANCH  11  12
ENDBRANCH   4  11
TORSDOF 3
ENDMDL
MODEL 8
REMARK VINA RESULT:      -5.2     11.208     11.911
REMARK  3 active torsions:
REMARK  status: ('A' for Active; 'I' for Inactive)
REMARK    1  A    between atoms: C_12  and  C_4 
REMARK    2  A    between atoms: S_8  and  C_12 
REMARK    3  A    between atoms: C_11  and  S_8 
ROOT
ATOM      1  N   UNL d   1      44.882  28.094  58.491  0.00  0.00    -0.289 N 
ATOM      2  C   UNL d   1      45.085  27.292  58.669  0.00  0.00     0.148 A 
ATOM      3  N   UNL d   1      44.908  27.157  59.482  0.00  0.00    -0.226 NA
ATOM      4  C   UNL d   1      44.608  27.868  59.767  0.00  0.00     0.107 A 
ATOM      5  C   UNL d   1      44.588  28.420  59.200  0.00  0.00     0.101 A 
ATOM      6  C   UNL d   1      44.999  28.369  57.736  0.00  0.00     0.066 A 
ATOM      7  C   UNL d   1      45.397  26.799  58.086  0.00  0.00     0.037 A 
ATOM      8  C   UNL d   1      45.509  27.099  57.321  0.00  0.00     0.005 A 
ATOM      9  C   UNL d   1      45.315  27.868  57.149  0.00  0.00     0.018 A 
ATOM     10  C   UNL d   1      44.797  29.167  57.558  0.00  0.00     0.019 C 
ENDROOT
BRANCH   4  11
ATOM     11  C   UNL d   1      44.366  27.947  60.570  0.00  0.00     0.056 C 
BRANCH  11  12
ATOM     12  S   UNL d   1      44.651  28.599  60.984  0.00  0.00    -0.083 SA
BRANCH  12  13
ATOM     13  C   UNL d   1      44.562  28.630  61.826  0.00  0.00     0.049 A 
ATOM     14  C   UNL d   1      44.642  29.345  62.220  0.00  0.00     0.109 A 
ATOM     15  N   UNL d   1      44.815  30.066  61.776  0.00  0.00    -0.148 N 
ATOM     16  C   UNL d   1      44.555  29.376  63.039  0.00  0.00     0.021 A 
ATOM     17  C   UNL d   1      44.391  28.690  63.454  0.00  0.00     0.002 A 
ATOM     18  C   UNL d   1      44.314  28.006  63.086  0.00  0.00     0.001 A 
ATOM     19  C   UNL d   1      44.397  27.940  62.246  0.00  0.00     0.008 A 
ENDBRANCH  12  13
ENDBRANCH  11  12
ENDBRANCH   4  11
TORSDOF 3
ENDMDL
MODEL 9
REMARK VINA RESULT:      -5.0      9.718     10.654
REMARK  3 active torsions:
REMARK  status: ('A' for Active; 'I' for Inactive)
REMARK    1  A    between atoms: C_12  and  C_4 
REMARK    2  A    between atoms: S_8  and  C_12 
REMARK    3  A    between atoms: C_11  and  S_8 
ROOT
ATOM      1  N   UNL d   1      44.893  30.138  58.102  0.00  0.00    -0.289 N 
ATOM      2  C   UNL d   1      44.865  29.993  57.269  0.00  0.00     0.148 A 
ATOM      3  N   UNL d   1      44.995  29.170  57.147  0.00  0.00    -0.226 NA
ATOM      4  C   UNL d   1      45.097  28.845  57.896  0.00  0.00     0.107 A 
ATOM      5  C   UNL d   1      45.040  29.398  58.460  0.00  0.00     0.101 A 
ATOM      6  C   UNL d   1      44.784  30.896  58.372  0.00  0.00     0.066 A 
ATOM      7  C   UNL d   1      44.728  30.611  56.740  0.00  0.00     0.037 A 
ATOM      8  C   UNL d   1      44.618  31.379  57.036  0.00  0.00     0.005 A 
ATOM      9  C   UNL d   1      44.645  31.518  57.834  0.00  0.00     0.018 A 
ATOM     10  C   UNL d   1      44.812  31.040  59.201  0.00  0.00     0.019 C 
ENDROOT
BRANCH   4  11
ATOM     11  C   UNL d   1      45.241  28.021  57.998  0.00  0.00     0.056 C 
BRANCH  11  12
ATOM     12  S   UNL d   1      44.734  27.502  57.612  0.00  0.00    -0.083 SA
BRANCH  12  13
ATOM     13  C   UNL d   1      44.709  26.689  57.848  0.00  0.00     0.049 A 
ATOM     14  C   UNL d   1      44.505  26.109  57.304  0.00  0.00     0.109 A 
ATOM     15  N   UNL d   1      44.314  26.329  56.490  0.00  0.00    -0.148 N 
ATOM     16  C   UNL d   1      44.481  25.319  57.535  0.00  0.00     0.021 A 
ATOM     17  C   UNL d   1      44.662  25.116  58.306  0.00  0.00     0.002 A 
ATOM     18  C   UNL d   1      44.858  25.662  58.829  0.00  0.00     0.001 A 
ATOM     19  C   UNL d   1      44.892  26.483  58.626  0.00  0.00     0.008 A 
ENDBRANCH  12  13
ENDBRANCH  11  12
ENDBRANCH   4  11
TORSDOF 3
ENDMDL
