MODEL 1
REMARK VINA RESULT:      -3.4      0.000      0.000
REMARK  6 active torsions:
REMARK  status: ('A' for Active; 'I' for Inactive)
REMARK    1  A    between atoms: N_4  and  C_1 
REMARK       I    between atoms: C_7  and  N_4 
REMARK    2  A    between atoms: C_8  and  C_7 
REMARK    3  A    between atoms: C_11  and  C_8 
REMARK    4  A    between atoms: C_10  and  O_17 
REMARK    5  A    between atoms: O_17  and  C_11 
REMARK    6  A    between atoms: O_18  and  C_12 
ROOT
ATOM      1  C   UNL d   1      33.155  19.128 -22.455  0.00  0.00     0.089 C 
ENDROOT
BRANCH   1   2
ATOM      2  C   UNL d   1      32.922  18.623 -23.066  0.00  0.00     0.283 C 
ATOM      3  N   UNL d   1      32.861  17.812 -22.920  0.00  0.00    -0.186 NA
ATOM      4  O   UNL d   1      32.754  18.920 -23.809  0.00  0.00    -0.265 OA
BRANCH   3   5
ATOM      5  C   UNL d   1      32.631  17.308 -23.521  0.00  0.00     0.194 A 
ATOM      6  N   UNL d   1      33.082  17.098 -24.184  0.00  0.00    -0.107 NA
ATOM      7  O   UNL d   1      32.634  16.583 -24.637  0.00  0.00    -0.210 OA
ATOM      8  C   UNL d   1      31.918  16.470 -24.269  0.00  0.00     0.128 A 
ATOM      9  C   UNL d   1      31.909  16.920 -23.572  0.00  0.00     0.068 A 
ATOM     10  C   UNL d   1      31.302  15.995 -24.534  0.00  0.00     0.029 C 
ENDBRANCH   3   5
ENDBRANCH   1   2
BRANCH   1  11
ATOM     11  C   UNL d   1      32.925  19.914 -22.473  0.00  0.00     0.128 C 
BRANCH  11  12
ATOM     12  O   UNL d   1      33.075  20.200 -21.711  0.00  0.00    -0.305 OA
BRANCH  12  13
ATOM     13  C   UNL d   1      32.853  20.963 -21.505  0.00  0.00     0.100 A 
ATOM     14  C   UNL d   1      32.311  21.086 -20.893  0.00  0.00     0.027 A 
ATOM     15  C   UNL d   1      32.084  21.850 -20.681  0.00  0.00     0.026 A 
ATOM     16  C   UNL d   1      32.407  22.490 -21.090  0.00  0.00     0.094 A 
ATOM     17  C   UNL d   1      32.949  22.367 -21.702  0.00  0.00     0.026 A 
ATOM     18  C   UNL d   1      33.171  21.604 -21.908  0.00  0.00     0.027 A 
BRANCH  16  19
ATOM     19  O   UNL d   1      32.181  23.266 -20.880  0.00  0.00    -0.328 OA
ATOM     20  C   UNL d   1      31.705  23.702 -21.394  0.00  0.00     0.181 C 
ENDBRANCH  16  19
ENDBRANCH  12  13
ENDBRANCH  11  12
ENDBRANCH   1  11
TORSDOF 6
ENDMDL
MODEL 2
REMARK VINA RESULT:      -3.4      1.550      5.432
REMARK  6 active torsions:
REMARK  status: ('A' for Active; 'I' for Inactive)
REMARK    1  A    between atoms: N_4  and  C_1 
REMARK       I    between atoms: C_7  and  N_4 
REMARK    2  A    between atoms: C_8  and  C_7 
REMARK    3  A    between atoms: C_11  and  C_8 
REMARK    4  A    between atoms: C_10  and  O_17 
REMARK    5  A    between atoms: O_17  and  C_11 
REMARK    6  A    between atoms: O_18  and  C_12 
ROOT
ATOM      1  C   UNL d   1      33.207  19.784 -22.051  0.00  0.00     0.089 C 
ENDROOT
BRANCH   1   2
ATOM      2  C   UNL d   1      32.987  20.548 -21.822  0.00  0.00     0.283 C 
ATOM      3  N   UNL d   1      32.692  20.673 -21.061  0.00  0.00    -0.186 NA
ATOM      4  O   UNL d   1      33.060  21.173 -22.342  0.00  0.00    -0.265 OA
BRANCH   3   5
ATOM      5  C   UNL d   1      32.473  21.426 -20.830  0.00  0.00     0.194 A 
ATOM      6  N   UNL d   1      31.754  21.800 -21.001  0.00  0.00    -0.107 NA
ATOM      7  O   UNL d   1      31.775  22.547 -20.660  0.00  0.00    -0.210 OA
ATOM      8  C   UNL d   1      32.490  22.639 -20.285  0.00  0.00     0.128 A 
ATOM      9  C   UNL d   1      32.931  21.944 -20.387  0.00  0.00     0.068 A 
ATOM     10  C   UNL d   1      32.742  23.304 -19.872  0.00  0.00     0.029 C 
ENDBRANCH   3   5
ENDBRANCH   1   2
BRANCH   1  11
ATOM     11  C   UNL d   1      32.906  19.469 -22.745  0.00  0.00     0.128 C 
BRANCH  11  12
ATOM     12  O   UNL d   1      33.199  18.696 -22.775  0.00  0.00    -0.305 OA
BRANCH  12  13
ATOM     13  C   UNL d   1      32.909  18.166 -23.331  0.00  0.00     0.100 A 
ATOM     14  C   UNL d   1      32.951  18.347 -24.137  0.00  0.00     0.027 A 
ATOM     15  C   UNL d   1      32.661  17.820 -24.700  0.00  0.00     0.026 A 
ATOM     16  C   UNL d   1      32.329  17.108 -24.448  0.00  0.00     0.094 A 
ATOM     17  C   UNL d   1      32.288  16.926 -23.642  0.00  0.00     0.026 A 
ATOM     18  C   UNL d   1      32.578  17.457 -23.086  0.00  0.00     0.027 A 
BRANCH  16  19
ATOM     19  O   UNL d   1      32.035  16.570 -25.014  0.00  0.00    -0.328 OA
ATOM     20  C   UNL d   1      31.219  16.475 -25.097  0.00  0.00     0.181 C 
ENDBRANCH  16  19
ENDBRANCH  12  13
ENDBRANCH  11  12
ENDBRANCH   1  11
TORSDOF 6
ENDMDL
MODEL 3
REMARK VINA RESULT:      -0.6      2.085      3.327
REMARK  6 active torsions:
REMARK  status: ('A' for Active; 'I' for Inactive)
REMARK    1  A    between atoms: N_4  and  C_1 
REMARK       I    between atoms: C_7  and  N_4 
REMARK    2  A    between atoms: C_8  and  C_7 
REMARK    3  A    between atoms: C_11  and  C_8 
REMARK    4  A    between atoms: C_10  and  O_17 
REMARK    5  A    between atoms: O_17  and  C_11 
REMARK    6  A    between atoms: O_18  and  C_12 
ROOT
ATOM      1  C   UNL d   1      31.494  17.410 -24.869  0.00  0.00     0.089 C 
ENDROOT
BRANCH   1   2
ATOM      2  C   UNL d   1      30.872  16.892 -24.699  0.00  0.00     0.283 C 
ATOM      3  N   UNL d   1      30.094  17.167 -24.736  0.00  0.00    -0.186 NA
ATOM      4  O   UNL d   1      31.023  16.116 -24.495  0.00  0.00    -0.265 OA
BRANCH   3   5
ATOM      5  C   UNL d   1      29.476  16.660 -24.569  0.00  0.00     0.194 A 
ATOM      6  N   UNL d   1      29.236  16.013 -25.029  0.00  0.00    -0.107 NA
ATOM      7  O   UNL d   1      28.596  15.664 -24.652  0.00  0.00    -0.210 OA
ATOM      8  C   UNL d   1      28.438  16.080 -23.972  0.00  0.00     0.128 A 
ATOM      9  C   UNL d   1      28.984  16.703 -23.914  0.00  0.00     0.068 A 
ATOM     10  C   UNL d   1      27.844  15.919 -23.428  0.00  0.00     0.029 C 
ENDBRANCH   3   5
ENDBRANCH   1   2
BRANCH   1  11
ATOM     11  C   UNL d   1      31.983  17.664 -24.262  0.00  0.00     0.128 C 
BRANCH  11  12
ATOM     12  O   UNL d   1      32.126  18.463 -24.422  0.00  0.00    -0.305 OA
BRANCH  12  13
ATOM     13  C   UNL d   1      32.403  18.959 -23.829  0.00  0.00     0.100 A 
ATOM     14  C   UNL d   1      32.579  18.653 -23.081  0.00  0.00     0.027 A 
ATOM     15  C   UNL d   1      32.858  19.145 -22.482  0.00  0.00     0.026 A 
ATOM     16  C   UNL d   1      32.959  19.949 -22.639  0.00  0.00     0.094 A 
ATOM     17  C   UNL d   1      32.783  20.255 -23.387  0.00  0.00     0.026 A 
ATOM     18  C   UNL d   1      32.506  19.759 -23.980  0.00  0.00     0.027 A 
BRANCH  16  19
ATOM     19  O   UNL d   1      33.241  20.452 -22.036  0.00  0.00    -0.328 OA
ATOM     20  C   UNL d   1      32.766  20.600 -21.378  0.00  0.00     0.181 C 
ENDBRANCH  16  19
ENDBRANCH  12  13
ENDBRANCH  11  12
ENDBRANCH   1  11
TORSDOF 6
ENDMDL
MODEL 4
REMARK VINA RESULT:      -0.5      4.145      5.235
REMARK  6 active torsions:
REMARK  status: ('A' for Active; 'I' for Inactive)
REMARK    1  A    between atoms: N_4  and  C_1 
REMARK       I    between atoms: C_7  and  N_4 
REMARK    2  A    between atoms: C_8  and  C_7 
REMARK    3  A    between atoms: C_11  and  C_8 
REMARK    4  A    between atoms: C_10  and  O_17 
REMARK    5  A    between atoms: O_17  and  C_11 
REMARK    6  A    between atoms: O_18  and  C_12 
ROOT
ATOM      1  C   UNL d   1      32.219  23.330 -20.416  0.00  0.00     0.089 C 
ENDROOT
BRANCH   1   2
ATOM      2  C   UNL d   1      32.536  23.320 -21.180  0.00  0.00     0.283 C 
ATOM      3  N   UNL d   1      32.133  22.921 -21.781  0.00  0.00    -0.186 NA
ATOM      4  O   UNL d   1      33.240  23.702 -21.341  0.00  0.00    -0.265 OA
BRANCH   3   5
ATOM      5  C   UNL d   1      32.442  22.909 -22.537  0.00  0.00     0.194 A 
ATOM      6  N   UNL d   1      33.097  22.469 -22.791  0.00  0.00    -0.107 NA
ATOM      7  O   UNL d   1      33.208  22.626 -23.589  0.00  0.00    -0.210 OA
ATOM      8  C   UNL d   1      32.637  23.152 -23.830  0.00  0.00     0.128 A 
ATOM      9  C   UNL d   1      32.156  23.333 -23.179  0.00  0.00     0.068 A 
ATOM     10  C   UNL d   1      32.544  23.459 -24.587  0.00  0.00     0.029 C 
ENDBRANCH   3   5
ENDBRANCH   1   2
BRANCH   1  11
ATOM     11  C   UNL d   1      32.658  23.648 -19.802  0.00  0.00     0.128 C 
BRANCH  11  12
ATOM     12  O   UNL d   1      32.131  23.702 -19.167  0.00  0.00    -0.305 OA
BRANCH  12  13
ATOM     13  C   UNL d   1      32.351  23.431 -18.423  0.00  0.00     0.100 A 
ATOM     14  C   UNL d   1      31.897  23.628 -17.760  0.00  0.00     0.027 A 
ATOM     15  C   UNL d   1      32.112  23.359 -17.011  0.00  0.00     0.026 A 
ATOM     16  C   UNL d   1      32.787  22.890 -16.933  0.00  0.00     0.094 A 
ATOM     17  C   UNL d   1      33.241  22.694 -17.596  0.00  0.00     0.026 A 
ATOM     18  C   UNL d   1      33.021  22.965 -18.340  0.00  0.00     0.027 A 
BRANCH  16  19
ATOM     19  O   UNL d   1      33.009  22.615 -16.177  0.00  0.00    -0.328 OA
ATOM     20  C   UNL d   1      33.196  23.161 -15.587  0.00  0.00     0.181 C 
ENDBRANCH  16  19
ENDBRANCH  12  13
ENDBRANCH  11  12
ENDBRANCH   1  11
TORSDOF 6
ENDMDL
MODEL 5
REMARK VINA RESULT:      -0.4      3.095      6.194
REMARK  6 active torsions:
REMARK  status: ('A' for Active; 'I' for Inactive)
REMARK    1  A    between atoms: N_4  and  C_1 
REMARK       I    between atoms: C_7  and  N_4 
REMARK    2  A    between atoms: C_8  and  C_7 
REMARK    3  A    between atoms: C_11  and  C_8 
REMARK    4  A    between atoms: C_10  and  O_17 
REMARK    5  A    between atoms: O_17  and  C_11 
REMARK    6  A    between atoms: O_18  and  C_12 
ROOT
ATOM      1  C   UNL d   1      32.989  22.558 -20.200  0.00  0.00     0.089 C 
ENDROOT
BRANCH   1   2
ATOM      2  C   UNL d   1      32.748  22.568 -19.409  0.00  0.00     0.283 C 
ATOM      3  N   UNL d   1      33.129  23.070 -18.876  0.00  0.00    -0.186 NA
ATOM      4  O   UNL d   1      32.139  22.086 -19.156  0.00  0.00    -0.265 OA
BRANCH   3   5
ATOM      5  C   UNL d   1      32.895  23.084 -18.093  0.00  0.00     0.194 A 
ATOM      6  N   UNL d   1      32.269  22.653 -17.762  0.00  0.00    -0.107 NA
ATOM      7  O   UNL d   1      32.236  22.837 -16.963  0.00  0.00    -0.210 OA
ATOM      8  C   UNL d   1      32.825  23.371 -16.796  0.00  0.00     0.128 A 
ATOM      9  C   UNL d   1      33.241  23.530 -17.497  0.00  0.00     0.068 A 
ATOM     10  C   UNL d   1      32.990  23.702 -16.063  0.00  0.00     0.029 C 
ENDBRANCH   3   5
ENDBRANCH   1   2
BRANCH   1  11
ATOM     11  C   UNL d   1      32.655  22.016 -20.716  0.00  0.00     0.128 C 
BRANCH  11  12
ATOM     12  O   UNL d   1      33.204  21.938 -21.330  0.00  0.00    -0.305 OA
BRANCH  12  13
ATOM     13  C   UNL d   1      33.159  21.299 -21.844  0.00  0.00     0.100 A 
ATOM     14  C   UNL d   1      33.032  21.425 -22.652  0.00  0.00     0.027 A 
ATOM     15  C   UNL d   1      32.987  20.789 -23.174  0.00  0.00     0.026 A 
ATOM     16  C   UNL d   1      33.070  20.023 -22.878  0.00  0.00     0.094 A 
ATOM     17  C   UNL d   1      33.197  19.896 -22.070  0.00  0.00     0.026 A 
ATOM     18  C   UNL d   1      33.241  20.535 -21.556  0.00  0.00     0.027 A 
BRANCH  16  19
ATOM     19  O   UNL d   1      33.024  19.375 -23.402  0.00  0.00    -0.328 OA
ATOM     20  C   UNL d   1      32.489  18.766 -23.247  0.00  0.00     0.181 C 
ENDBRANCH  16  19
ENDBRANCH  12  13
ENDBRANCH  11  12
ENDBRANCH   1  11
TORSDOF 6
ENDMDL
