MODEL 1
REMARK VINA RESULT:      44.6      0.000      0.000
REMARK  5 active torsions:
REMARK  status: ('A' for Active; 'I' for Inactive)
REMARK    1  A    between atoms: N_4  and  C_1 
REMARK    2  A    between atoms: C_10  and  C_3 
REMARK       I    between atoms: C_7  and  N_4 
REMARK    3  A    between atoms: C_8  and  C_7 
REMARK    4  A    between atoms: C_9  and  C_8 
REMARK    5  A    between atoms: C_12  and  C_9 
ROOT
ATOM      1  C   UNL d   1     -54.909-101.459 -41.572  0.00  0.00     0.197 A 
ATOM      2  N   UNL d   1     -55.076-100.926 -42.173  0.00  0.00    -0.221 NA
ATOM      3  C   UNL d   1     -55.007-101.308 -42.890  0.00  0.00     0.090 A 
ATOM      4  S   UNL d   1     -54.736-102.178 -41.907  0.00  0.00    -0.046 SA
ATOM      5  C   UNL d   1     -54.795-102.090 -42.725  0.00  0.00     0.058 A 
ENDROOT
BRANCH   1   6
ATOM      6  N   UNL d   1     -54.919-101.283 -40.749  0.00  0.00    -0.183 NA
ATOM      7  C   UNL d   1     -55.330-101.776 -40.233  0.00  0.00     0.281 C 
ATOM      8  O   UNL d   1     -55.723-102.425 -40.506  0.00  0.00    -0.265 OA
BRANCH   7   9
ATOM      9  C   UNL d   1     -55.343-101.607 -39.423  0.00  0.00     0.063 C 
BRANCH   9  10
ATOM     10  C   UNL d   1     -54.780-101.930 -38.921  0.00  0.00     0.005 C 
BRANCH  10  11
ATOM     11  C   UNL d   1     -54.952-102.058 -38.124  0.00  0.00     0.000 A 
ATOM     12  C   UNL d   1     -55.332-102.736 -37.906  0.00  0.00     0.000 A 
ATOM     13  C   UNL d   1     -55.503-102.867 -37.134  0.00  0.00     0.000 A 
ATOM     14  C   UNL d   1     -55.292-102.306 -36.544  0.00  0.00     0.000 A 
ATOM     15  C   UNL d   1     -54.908-101.620 -36.761  0.00  0.00     0.000 A 
ATOM     16  C   UNL d   1     -54.735-101.492 -37.559  0.00  0.00     0.000 A 
ENDBRANCH  10  11
ENDBRANCH   9  10
ENDBRANCH   7   9
ENDBRANCH   1   6
BRANCH   3  17
ATOM     17  C   UNL d   1     -55.137-100.935 -43.617  0.00  0.00     0.018 A 
ATOM     18  C   UNL d   1     -54.910-101.292 -44.301  0.00  0.00     0.002 A 
ATOM     19  C   UNL d   1     -55.048-100.904 -45.020  0.00  0.00     0.000 A 
ATOM     20  C   UNL d   1     -55.409-100.170 -45.037  0.00  0.00     0.000 A 
ATOM     21  C   UNL d   1     -55.640 -99.810 -44.333  0.00  0.00     0.000 A 
ATOM     22  C   UNL d   1     -55.506-100.187 -43.634  0.00  0.00     0.002 A 
ENDBRANCH   3  17
TORSDOF 5
ENDMDL
MODEL 2
REMARK VINA RESULT:      46.2      1.385      2.108
REMARK  5 active torsions:
REMARK  status: ('A' for Active; 'I' for Inactive)
REMARK    1  A    between atoms: N_4  and  C_1 
REMARK    2  A    between atoms: C_10  and  C_3 
REMARK       I    between atoms: C_7  and  N_4 
REMARK    3  A    between atoms: C_8  and  C_7 
REMARK    4  A    between atoms: C_9  and  C_8 
REMARK    5  A    between atoms: C_12  and  C_9 
ROOT
ATOM      1  C   UNL d   1     -55.059-101.969 -43.513  0.00  0.00     0.197 A 
ATOM      2  N   UNL d   1     -55.521-101.292 -43.457  0.00  0.00    -0.221 NA
ATOM      3  C   UNL d   1     -55.471-100.883 -44.161  0.00  0.00     0.090 A 
ATOM      4  S   UNL d   1     -54.718-101.989 -44.249  0.00  0.00    -0.046 SA
ATOM      5  C   UNL d   1     -54.970-101.317 -44.655  0.00  0.00     0.058 A 
ENDROOT
BRANCH   1   6
ATOM      6  N   UNL d   1     -54.962-102.542 -42.903  0.00  0.00    -0.183 NA
ATOM      7  C   UNL d   1     -55.043-102.314 -42.116  0.00  0.00     0.281 C 
ATOM      8  O   UNL d   1     -55.215-101.551 -41.921  0.00  0.00    -0.265 OA
BRANCH   7   9
ATOM      9  C   UNL d   1     -54.949-102.873 -41.513  0.00  0.00     0.063 C 
BRANCH   9  10
ATOM     10  C   UNL d   1     -54.716-102.639 -40.761  0.00  0.00     0.005 C 
BRANCH  10  11
ATOM     11  C   UNL d   1     -55.245-102.679 -40.128  0.00  0.00     0.000 A 
ATOM     12  C   UNL d   1     -54.961-102.636 -39.374  0.00  0.00     0.000 A 
ATOM     13  C   UNL d   1     -55.467-102.674 -38.754  0.00  0.00     0.000 A 
ATOM     14  C   UNL d   1     -56.294-102.758 -38.877  0.00  0.00     0.000 A 
ATOM     15  C   UNL d   1     -56.585-102.801 -39.638  0.00  0.00     0.000 A 
ATOM     16  C   UNL d   1     -56.056-102.762 -40.272  0.00  0.00     0.000 A 
ENDBRANCH  10  11
ENDBRANCH   9  10
ENDBRANCH   7   9
ENDBRANCH   1   6
BRANCH   3  17
ATOM     17  C   UNL d   1     -55.869-100.170 -44.300  0.00  0.00     0.018 A 
ATOM     18  C   UNL d   1     -55.512 -99.583 -44.715  0.00  0.00     0.002 A 
ATOM     19  C   UNL d   1     -55.924 -98.876 -44.845  0.00  0.00     0.000 A 
ATOM     20  C   UNL d   1     -56.683 -98.776 -44.556  0.00  0.00     0.000 A 
ATOM     21  C   UNL d   1     -57.043 -99.381 -44.131  0.00  0.00     0.000 A 
ATOM     22  C   UNL d   1     -56.642-100.069 -44.005  0.00  0.00     0.002 A 
ENDBRANCH   3  17
TORSDOF 5
ENDMDL
