MODEL 1
REMARK VINA RESULT:      -6.9      0.000      0.000
REMARK  4 active torsions:
REMARK  status: ('A' for Active; 'I' for Inactive)
REMARK    1  A    between atoms: C_4  and  C_1 
REMARK    2  A    between atoms: C_7  and  C_4 
REMARK    3  A    between atoms: N_10  and  C_7 
REMARK    4  A    between atoms: C_11  and  N_10 
ROOT
ATOM      1  C   UNL d   1     -47.153  13.029  22.853  0.00  0.00     0.122 C 
ATOM      2  C   UNL d   1     -46.837  13.785  22.907  0.00  0.00     0.106 C 
ATOM      3  N   UNL d   1     -46.520  14.542  22.961  0.00  0.00    -0.191 NA
ENDROOT
BRANCH   1   4
ATOM      4  C   UNL d   1     -47.968  12.926  22.787  0.00  0.00     0.159 A 
ATOM      5  N   UNL d   1     -48.513  12.936  23.407  0.00  0.00    -0.226 NA
ATOM      6  C   UNL d   1     -49.258  12.812  23.092  0.00  0.00     0.099 A 
ATOM      7  C   UNL d   1     -50.009  12.766  23.442  0.00  0.00     0.021 A 
ATOM      8  C   UNL d   1     -49.180  12.724  22.277  0.00  0.00     0.083 A 
ATOM      9  C   UNL d   1     -50.673  12.632  22.969  0.00  0.00     0.002 A 
ATOM     10  C   UNL d   1     -50.595  12.544  22.153  0.00  0.00     0.002 A 
ATOM     11  C   UNL d   1     -49.853  12.589  21.803  0.00  0.00     0.019 A 
ATOM     12  N   UNL d   1     -48.386  12.793  22.084  0.00  0.00    -0.287 N 
ATOM     13  C   UNL d   1     -48.053  12.742  21.327  0.00  0.00     0.101 C 
ENDBRANCH   1   4
BRANCH   1  14
ATOM     14  C   UNL d   1     -46.655  12.374  22.866  0.00  0.00     0.114 C 
BRANCH  14  15
ATOM     15  N   UNL d   1     -45.976  12.381  23.333  0.00  0.00    -0.225 NA
BRANCH  15  16
ATOM     16  C   UNL d   1     -45.468  11.730  23.331  0.00  0.00     0.163 A 
ATOM     17  N   UNL d   1     -44.725  11.782  22.978  0.00  0.00    -0.225 NA
ATOM     18  C   UNL d   1     -44.220  11.130  22.977  0.00  0.00     0.101 A 
ATOM     19  C   UNL d   1     -44.462  10.425  23.333  0.00  0.00     0.021 A 
ATOM     20  C   UNL d   1     -45.214  10.369  23.692  0.00  0.00     0.005 A 
ATOM     21  C   UNL d   1     -45.714  11.028  23.687  0.00  0.00     0.039 A 
ENDBRANCH  15  16
ENDBRANCH  14  15
ENDBRANCH   1  14
TORSDOF 4
ENDMDL
MODEL 2
REMARK VINA RESULT:      -6.2      1.438      2.163
REMARK  4 active torsions:
REMARK  status: ('A' for Active; 'I' for Inactive)
REMARK    1  A    between atoms: C_4  and  C_1 
REMARK    2  A    between atoms: C_7  and  C_4 
REMARK    3  A    between atoms: N_10  and  C_7 
REMARK    4  A    between atoms: C_11  and  N_10 
ROOT
ATOM      1  C   UNL d   1     -48.570  12.567  22.983  0.00  0.00     0.122 C 
ATOM      2  C   UNL d   1     -48.765  11.853  23.340  0.00  0.00     0.106 C 
ATOM      3  N   UNL d   1     -48.961  11.139  23.698  0.00  0.00    -0.191 NA
ENDROOT
BRANCH   1   4
ATOM      4  C   UNL d   1     -49.131  13.169  22.929  0.00  0.00     0.159 A 
ATOM      5  N   UNL d   1     -49.306  13.725  23.513  0.00  0.00    -0.226 NA
ATOM      6  C   UNL d   1     -49.895  14.217  23.227  0.00  0.00     0.099 A 
ATOM      7  C   UNL d   1     -50.288  14.867  23.560  0.00  0.00     0.021 A 
ATOM      8  C   UNL d   1     -50.088  13.968  22.466  0.00  0.00     0.083 A 
ATOM      9  C   UNL d   1     -50.871  15.260  23.126  0.00  0.00     0.002 A 
ATOM     10  C   UNL d   1     -51.064  15.011  22.364  0.00  0.00     0.002 A 
ATOM     11  C   UNL d   1     -50.677  14.367  22.030  0.00  0.00     0.019 A 
ATOM     12  N   UNL d   1     -49.620  13.322  22.278  0.00  0.00    -0.287 N 
ATOM     13  C   UNL d   1     -49.626  12.893  21.569  0.00  0.00     0.101 C 
ENDBRANCH   1   4
BRANCH   1  14
ATOM     14  C   UNL d   1     -47.814  12.680  22.680  0.00  0.00     0.114 C 
BRANCH  14  15
ATOM     15  N   UNL d   1     -47.162  12.678  23.184  0.00  0.00    -0.225 NA
BRANCH  15  16
ATOM     16  C   UNL d   1     -46.402  12.768  22.875  0.00  0.00     0.163 A 
ATOM     17  N   UNL d   1     -45.863  12.145  22.905  0.00  0.00    -0.225 NA
ATOM     18  C   UNL d   1     -45.104  12.238  22.595  0.00  0.00     0.101 A 
ATOM     19  C   UNL d   1     -44.887  12.958  22.254  0.00  0.00     0.021 A 
ATOM     20  C   UNL d   1     -45.431  13.592  22.221  0.00  0.00     0.005 A 
ATOM     21  C   UNL d   1     -46.189  13.489  22.535  0.00  0.00     0.039 A 
ENDBRANCH  15  16
ENDBRANCH  14  15
ENDBRANCH   1  14
TORSDOF 4
ENDMDL
MODEL 3
REMARK VINA RESULT:      -5.9      1.682      4.549
REMARK  4 active torsions:
REMARK  status: ('A' for Active; 'I' for Inactive)
REMARK    1  A    between atoms: C_4  and  C_1 
REMARK    2  A    between atoms: C_7  and  C_4 
REMARK    3  A    between atoms: N_10  and  C_7 
REMARK    4  A    between atoms: C_11  and  N_10 
ROOT
ATOM      1  C   UNL d   1     -48.407  13.077  22.212  0.00  0.00     0.122 C 
ATOM      2  C   UNL d   1     -48.652  12.932  21.441  0.00  0.00     0.106 C 
ATOM      3  N   UNL d   1     -48.897  12.785  20.670  0.00  0.00    -0.191 NA
ENDROOT
BRANCH   1   4
ATOM      4  C   UNL d   1     -47.792  12.638  22.540  0.00  0.00     0.159 A 
ATOM      5  N   UNL d   1     -47.010  12.887  22.631  0.00  0.00    -0.226 NA
ATOM      6  C   UNL d   1     -46.589  12.278  22.980  0.00  0.00     0.099 A 
ATOM      7  C   UNL d   1     -45.793  12.209  23.203  0.00  0.00     0.021 A 
ATOM      8  C   UNL d   1     -47.105  11.649  23.106  0.00  0.00     0.083 A 
ATOM      9  C   UNL d   1     -45.524  11.509  23.551  0.00  0.00     0.002 A 
ATOM     10  C   UNL d   1     -46.041  10.880  23.677  0.00  0.00     0.002 A 
ATOM     11  C   UNL d   1     -46.831  10.944  23.457  0.00  0.00     0.019 A 
ATOM     12  N   UNL d   1     -47.848  11.867  22.836  0.00  0.00    -0.287 N 
ATOM     13  C   UNL d   1     -48.536  11.406  22.852  0.00  0.00     0.101 C 
ENDBRANCH   1   4
BRANCH   1  14
ATOM     14  C   UNL d   1     -48.777  13.663  22.656  0.00  0.00     0.114 C 
BRANCH  14  15
ATOM     15  N   UNL d   1     -49.385  14.109  22.324  0.00  0.00    -0.225 NA
BRANCH  15  16
ATOM     16  C   UNL d   1     -49.780  14.672  22.783  0.00  0.00     0.163 A 
ATOM     17  N   UNL d   1     -50.567  14.557  22.998  0.00  0.00    -0.225 NA
ATOM     18  C   UNL d   1     -50.959  15.120  23.455  0.00  0.00     0.101 A 
ATOM     19  C   UNL d   1     -50.558  15.801  23.698  0.00  0.00     0.021 A 
ATOM     20  C   UNL d   1     -49.760  15.921  23.481  0.00  0.00     0.005 A 
ATOM     21  C   UNL d   1     -49.376  15.350  23.022  0.00  0.00     0.039 A 
ENDBRANCH  15  16
ENDBRANCH  14  15
ENDBRANCH   1  14
TORSDOF 4
ENDMDL
MODEL 4
REMARK VINA RESULT:      -5.5      7.706      9.276
REMARK  4 active torsions:
REMARK  status: ('A' for Active; 'I' for Inactive)
REMARK    1  A    between atoms: C_4  and  C_1 
REMARK    2  A    between atoms: C_7  and  C_4 
REMARK    3  A    between atoms: N_10  and  C_7 
REMARK    4  A    between atoms: C_11  and  N_10 
ROOT
ATOM      1  C   UNL d   1     -40.214  15.145  20.588  0.00  0.00     0.122 C 
ATOM      2  C   UNL d   1     -40.909  15.534  20.793  0.00  0.00     0.106 C 
ATOM      3  N   UNL d   1     -41.604  15.922  20.998  0.00  0.00    -0.191 NA
ENDROOT
BRANCH   1   4
ATOM      4  C   UNL d   1     -39.743  14.806  21.173  0.00  0.00     0.159 A 
ATOM      5  N   UNL d   1     -39.835  14.053  21.497  0.00  0.00    -0.226 NA
ATOM      6  C   UNL d   1     -39.249  13.944  22.057  0.00  0.00     0.099 A 
ATOM      7  C   UNL d   1     -39.067  13.305  22.555  0.00  0.00     0.021 A 
ATOM      8  C   UNL d   1     -38.790  14.627  22.084  0.00  0.00     0.083 A 
ATOM      9  C   UNL d   1     -38.425  13.361  23.073  0.00  0.00     0.002 A 
ATOM     10  C   UNL d   1     -37.966  14.044  23.100  0.00  0.00     0.002 A 
ATOM     11  C   UNL d   1     -38.144  14.679  22.608  0.00  0.00     0.019 A 
ATOM     12  N   UNL d   1     -39.091  15.162  21.540  0.00  0.00    -0.287 N 
ATOM     13  C   UNL d   1     -38.803  15.922  21.379  0.00  0.00     0.101 C 
ENDBRANCH   1   4
BRANCH   1  14
ATOM     14  C   UNL d   1     -39.990  15.096  19.798  0.00  0.00     0.114 C 
BRANCH  14  15
ATOM     15  N   UNL d   1     -40.563  15.028  19.210  0.00  0.00    -0.225 NA
BRANCH  15  16
ATOM     16  C   UNL d   1     -40.336  14.970  18.418  0.00  0.00     0.163 A 
ATOM     17  N   UNL d   1     -40.322  15.638  17.937  0.00  0.00    -0.225 NA
ATOM     18  C   UNL d   1     -40.095  15.577  17.147  0.00  0.00     0.101 A 
ATOM     19  C   UNL d   1     -39.880  14.841  16.839  0.00  0.00     0.021 A 
ATOM     20  C   UNL d   1     -39.893  14.160  17.324  0.00  0.00     0.005 A 
ATOM     21  C   UNL d   1     -40.123  14.232  18.116  0.00  0.00     0.039 A 
ENDBRANCH  15  16
ENDBRANCH  14  15
ENDBRANCH   1  14
TORSDOF 4
ENDMDL
MODEL 5
REMARK VINA RESULT:      -5.4      6.862      8.572
REMARK  4 active torsions:
REMARK  status: ('A' for Active; 'I' for Inactive)
REMARK    1  A    between atoms: C_4  and  C_1 
REMARK    2  A    between atoms: C_7  and  C_4 
REMARK    3  A    between atoms: N_10  and  C_7 
REMARK    4  A    between atoms: C_11  and  N_10 
ROOT
ATOM      1  C   UNL d   1     -40.619  14.293  20.485  0.00  0.00     0.122 C 
ATOM      2  C   UNL d   1     -41.335  13.987  20.749  0.00  0.00     0.106 C 
ATOM      3  N   UNL d   1     -42.051  13.681  21.014  0.00  0.00    -0.191 NA
ENDROOT
BRANCH   1   4
ATOM      4  C   UNL d   1     -40.518  14.479  19.689  0.00  0.00     0.159 A 
ATOM      5  N   UNL d   1     -40.287  13.958  19.092  0.00  0.00    -0.226 NA
ATOM      6  C   UNL d   1     -40.257  14.374  18.388  0.00  0.00     0.099 A 
ATOM      7  C   UNL d   1     -40.063  14.146  17.615  0.00  0.00     0.021 A 
ATOM      8  C   UNL d   1     -40.470  15.155  18.544  0.00  0.00     0.083 A 
ATOM      9  C   UNL d   1     -40.084  14.705  17.006  0.00  0.00     0.002 A 
ATOM     10  C   UNL d   1     -40.297  15.485  17.161  0.00  0.00     0.002 A 
ATOM     11  C   UNL d   1     -40.490  15.715  17.927  0.00  0.00     0.019 A 
ATOM     12  N   UNL d   1     -40.632  15.223  19.344  0.00  0.00    -0.287 N 
ATOM     13  C   UNL d   1     -40.867  15.909  19.746  0.00  0.00     0.101 C 
ENDBRANCH   1   4
BRANCH   1  14
ATOM     14  C   UNL d   1     -40.003  14.413  21.017  0.00  0.00     0.114 C 
BRANCH  14  15
ATOM     15  N   UNL d   1     -39.874  13.874  21.627  0.00  0.00    -0.225 NA
BRANCH  15  16
ATOM     16  C   UNL d   1     -39.230  13.973  22.135  0.00  0.00     0.163 A 
ATOM     17  N   UNL d   1     -39.139  14.670  22.563  0.00  0.00    -0.225 NA
ATOM     18  C   UNL d   1     -38.495  14.766  23.069  0.00  0.00     0.101 A 
ATOM     19  C   UNL d   1     -37.940  14.158  23.144  0.00  0.00     0.021 A 
ATOM     20  C   UNL d   1     -38.029  13.449  22.711  0.00  0.00     0.005 A 
ATOM     21  C   UNL d   1     -38.679  13.363  22.206  0.00  0.00     0.039 A 
ENDBRANCH  15  16
ENDBRANCH  14  15
ENDBRANCH   1  14
TORSDOF 4
ENDMDL
MODEL 6
REMARK VINA RESULT:      -4.9      8.523     10.126
REMARK  4 active torsions:
REMARK  status: ('A' for Active; 'I' for Inactive)
REMARK    1  A    between atoms: C_4  and  C_1 
REMARK    2  A    between atoms: C_7  and  C_4 
REMARK    3  A    between atoms: N_10  and  C_7 
REMARK    4  A    between atoms: C_11  and  N_10 
ROOT
ATOM      1  C   UNL d   1     -39.715  14.557  18.838  0.00  0.00     0.122 C 
ATOM      2  C   UNL d   1     -40.432  14.183  18.695  0.00  0.00     0.106 C 
ATOM      3  N   UNL d   1     -41.150  13.808  18.551  0.00  0.00    -0.191 NA
ENDROOT
BRANCH   1   4
ATOM      4  C   UNL d   1     -39.506  14.769  19.607  0.00  0.00     0.159 A 
ATOM      5  N   UNL d   1     -39.797  15.414  20.031  0.00  0.00    -0.226 NA
ATOM      6  C   UNL d   1     -39.442  15.415  20.768  0.00  0.00     0.099 A 
ATOM      7  C   UNL d   1     -39.515  15.922  21.421  0.00  0.00     0.021 A 
ATOM      8  C   UNL d   1     -38.929  14.772  20.805  0.00  0.00     0.083 A 
ATOM      9  C   UNL d   1     -39.073  15.776  22.104  0.00  0.00     0.002 A 
ATOM     10  C   UNL d   1     -38.560  15.133  22.141  0.00  0.00     0.002 A 
ATOM     11  C   UNL d   1     -38.485  14.628  21.496  0.00  0.00     0.019 A 
ATOM     12  N   UNL d   1     -38.965  14.370  20.092  0.00  0.00    -0.287 N 
ATOM     13  C   UNL d   1     -38.543  13.689  19.883  0.00  0.00     0.101 C 
ENDBRANCH   1   4
BRANCH   1  14
ATOM     14  C   UNL d   1     -39.206  14.721  18.213  0.00  0.00     0.114 C 
BRANCH  14  15
ATOM     15  N   UNL d   1     -39.503  14.801  17.449  0.00  0.00    -0.225 NA
BRANCH  15  16
ATOM     16  C   UNL d   1     -38.990  14.962  16.822  0.00  0.00     0.163 A 
ATOM     17  N   UNL d   1     -38.648  14.347  16.394  0.00  0.00    -0.225 NA
ATOM     18  C   UNL d   1     -38.136  14.510  15.769  0.00  0.00     0.101 A 
ATOM     19  C   UNL d   1     -37.967  15.295  15.573  0.00  0.00     0.021 A 
ATOM     20  C   UNL d   1     -38.313  15.922  16.005  0.00  0.00     0.005 A 
ATOM     21  C   UNL d   1     -38.825  15.747  16.630  0.00  0.00     0.039 A 
ENDBRANCH  15  16
ENDBRANCH  14  15
ENDBRANCH   1  14
TORSDOF 4
ENDMDL
MODEL 7
REMARK VINA RESULT:      -4.8      0.940      4.265
REMARK  4 active torsions:
REMARK  status: ('A' for Active; 'I' for Inactive)
REMARK    1  A    between atoms: C_4  and  C_1 
REMARK    2  A    between atoms: C_7  and  C_4 
REMARK    3  A    between atoms: N_10  and  C_7 
REMARK    4  A    between atoms: C_11  and  N_10 
ROOT
ATOM      1  C   UNL d   1     -47.397  13.530  22.663  0.00  0.00     0.122 C 
ATOM      2  C   UNL d   1     -47.151  14.303  22.797  0.00  0.00     0.106 C 
ATOM      3  N   UNL d   1     -46.904  15.076  22.932  0.00  0.00    -0.191 NA
ENDROOT
BRANCH   1   4
ATOM      4  C   UNL d   1     -46.903  12.900  22.858  0.00  0.00     0.159 A 
ATOM      5  N   UNL d   1     -47.121  12.221  23.272  0.00  0.00    -0.226 NA
ATOM      6  C   UNL d   1     -46.461  11.742  23.342  0.00  0.00     0.099 A 
ATOM      7  C   UNL d   1     -46.345  11.002  23.697  0.00  0.00     0.021 A 
ATOM      8  C   UNL d   1     -45.830  12.122  22.972  0.00  0.00     0.083 A 
ATOM      9  C   UNL d   1     -45.597  10.650  23.677  0.00  0.00     0.002 A 
ATOM     10  C   UNL d   1     -44.966  11.030  23.307  0.00  0.00     0.002 A 
ATOM     11  C   UNL d   1     -45.077  11.764  22.953  0.00  0.00     0.019 A 
ATOM     12  N   UNL d   1     -46.098  12.836  22.672  0.00  0.00    -0.287 N 
ATOM     13  C   UNL d   1     -45.654  13.398  22.257  0.00  0.00     0.101 C 
ENDBRANCH   1   4
BRANCH   1  14
ATOM     14  C   UNL d   1     -48.137  13.388  22.333  0.00  0.00     0.114 C 
BRANCH  14  15
ATOM     15  N   UNL d   1     -48.760  13.907  22.477  0.00  0.00    -0.225 NA
BRANCH  15  16
ATOM     16  C   UNL d   1     -49.528  13.701  22.255  0.00  0.00     0.163 A 
ATOM     17  N   UNL d   1     -49.734  13.654  21.458  0.00  0.00    -0.225 NA
ATOM     18  C   UNL d   1     -50.502  13.448  21.240  0.00  0.00     0.101 A 
ATOM     19  C   UNL d   1     -51.064  13.288  21.823  0.00  0.00     0.021 A 
ATOM     20  C   UNL d   1     -50.859  13.335  22.632  0.00  0.00     0.005 A 
ATOM     21  C   UNL d   1     -50.086  13.543  22.841  0.00  0.00     0.039 A 
ENDBRANCH  15  16
ENDBRANCH  14  15
ENDBRANCH   1  14
TORSDOF 4
ENDMDL
