MODEL 1
REMARK VINA RESULT:      39.8      0.000      0.000
REMARK  5 active torsions:
REMARK  status: ('A' for Active; 'I' for Inactive)
REMARK    1  A    between atoms: C_5  and  N_1 
REMARK    2  A    between atoms: C_7  and  C_3 
REMARK    3  A    between atoms: C_8  and  C_4 
REMARK    4  A    between atoms: N_10  and  C_5 
REMARK    5  A    between atoms: O_21  and  C_15 
ROOT
ATOM      1  N   UNL d   1      14.396  13.133  -1.749  0.00  0.00    -0.203 N 
ATOM      2  N   UNL d   1      14.693  13.767  -1.306  0.00  0.00    -0.163 NA
ATOM      3  C   UNL d   1      14.629  14.451  -1.727  0.00  0.00     0.103 A 
ATOM      4  C   UNL d   1      14.132  13.430  -2.483  0.00  0.00     0.087 A 
ATOM      5  C   UNL d   1      14.273  14.246  -2.477  0.00  0.00     0.040 A 
ENDROOT
BRANCH   4   6
ATOM      6  C   UNL d   1      13.793  13.020  -3.115  0.00  0.00     0.018 A 
ATOM      7  C   UNL d   1      13.594  12.227  -3.047  0.00  0.00     0.004 A 
ATOM      8  C   UNL d   1      13.255  11.820  -3.677  0.00  0.00     0.024 A 
ATOM      9  C   UNL d   1      13.115  12.214  -4.384  0.00  0.00     0.094 A 
ATOM     10  C   UNL d   1      13.305  12.989  -4.465  0.00  0.00     0.024 A 
ATOM     11  C   UNL d   1      13.645  13.400  -3.833  0.00  0.00     0.004 A 
BRANCH   9  12
ATOM     12  O   UNL d   1      12.769  11.780  -5.015  0.00  0.00    -0.328 OA
ATOM     13  C   UNL d   1      12.923  11.989  -5.818  0.00  0.00     0.181 C 
ENDBRANCH   9  12
ENDBRANCH   4   6
BRANCH   1  14
ATOM     14  C   UNL d   1      14.362  12.326  -1.508  0.00  0.00     0.222 C 
ATOM     15  S   UNL d   1      14.924  11.779  -1.828  0.00  0.00    -0.037 SA
BRANCH  14  16
ATOM     16  N   UNL d   1      13.781  12.053  -0.957  0.00  0.00    -0.214 NA
ATOM     17  C   UNL d   1      14.005  11.859  -0.179  0.00  0.00     0.122 C 
ENDBRANCH  14  16
ENDBRANCH   1  14
BRANCH   3  18
ATOM     18  C   UNL d   1      14.870  15.203  -1.460  0.00  0.00     0.019 A 
ATOM     19  C   UNL d   1      15.314  15.283  -0.771  0.00  0.00     0.002 A 
ATOM     20  C   UNL d   1      15.548  16.046  -0.519  0.00  0.00     0.000 A 
ATOM     21  C   UNL d   1      15.335  16.704  -0.954  0.00  0.00     0.000 A 
ATOM     22  C   UNL d   1      14.890  16.604  -1.642  0.00  0.00     0.000 A 
ATOM     23  C   UNL d   1      15.701  17.588  -0.512  0.00  0.00     0.000 C 
ATOM     24  C   UNL d   1      14.661  15.869  -1.892  0.00  0.00     0.002 A 
ENDBRANCH   3  18
TORSDOF 5
ENDMDL
