MODEL 1
REMARK VINA RESULT:      58.0      0.000      0.000
REMARK  5 active torsions:
REMARK  status: ('A' for Active; 'I' for Inactive)
REMARK    1  A    between atoms: C_8  and  C_1 
REMARK    2  A    between atoms: C_9  and  C_2 
REMARK    3  A    between atoms: S_6  and  C_4 
REMARK    4  A    between atoms: C_11  and  S_6 
REMARK    5  A    between atoms: C_7  and  C_11 
ROOT
ATOM      1  C   UNL d   1      59.833  49.227  51.368  0.00  0.00     0.107 A 
ATOM      2  C   UNL d   1      59.725  48.601  50.844  0.00  0.00     0.120 A 
ATOM      3  N   UNL d   1      59.167  49.708  51.316  0.00  0.00    -0.214 NA
ATOM      4  C   UNL d   1      58.659  49.372  50.764  0.00  0.00     0.215 A 
ATOM      5  O   UNL d   1      59.012  48.686  50.476  0.00  0.00    -0.283 OA
ENDROOT
BRANCH   1   6
ATOM      6  C   UNL d   1      60.473  49.386  51.869  0.00  0.00     0.020 A 
ATOM      7  C   UNL d   1      61.227  49.545  51.535  0.00  0.00     0.002 A 
ATOM      8  C   UNL d   1      61.875  49.707  52.053  0.00  0.00     0.000 A 
ATOM      9  C   UNL d   1      61.759  49.705  52.861  0.00  0.00     0.000 A 
ATOM     10  C   UNL d   1      61.010  49.547  53.183  0.00  0.00     0.000 A 
ATOM     11  C   UNL d   1      60.366  49.387  52.690  0.00  0.00     0.002 A 
ENDBRANCH   1   6
BRANCH   2  12
ATOM     12  C   UNL d   1      60.238  47.975  50.697  0.00  0.00     0.024 A 
ATOM     13  C   UNL d   1      60.848  48.050  50.145  0.00  0.00     0.002 A 
ATOM     14  C   UNL d   1      61.368  47.427  49.991  0.00  0.00     0.000 A 
ATOM     15  C   UNL d   1      61.271  46.727  50.396  0.00  0.00     0.000 A 
ATOM     16  C   UNL d   1      60.666  46.643  50.949  0.00  0.00     0.000 A 
ATOM     17  C   UNL d   1      60.153  47.268  51.096  0.00  0.00     0.002 A 
ENDBRANCH   2  12
BRANCH   4  18
ATOM     18  S   UNL d   1      57.922  49.691  50.553  0.00  0.00    -0.037 SA
BRANCH  18  19
ATOM     19  C   UNL d   1      57.582  49.482  49.815  0.00  0.00     0.103 C 
BRANCH  19  20
ATOM     20  C   UNL d   1      56.786  49.586  49.697  0.00  0.00     0.303 C 
ATOM     21  O   UNL d   1      56.258  49.592  50.352  0.00  0.00    -0.263 OA
ATOM     22  N   UNL d   1      56.488  49.686  48.931  0.00  0.00    -0.102 N 
ENDBRANCH  19  20
ENDBRANCH  18  19
ENDBRANCH   4  18
TORSDOF 5
ENDMDL
