MODEL 1
REMARK VINA RESULT:      -5.8      0.000      0.000
REMARK  7 active torsions:
REMARK  status: ('A' for Active; 'I' for Inactive)
REMARK    1  A    between atoms: C_11  and  N_3 
REMARK    2  A    between atoms: C_10  and  C_4 
REMARK    3  A    between atoms: C_16  and  C_11 
REMARK    4  A    between atoms: N_13  and  C_17 
REMARK    5  A    between atoms: C_26  and  N_14 
REMARK    6  A    between atoms: C_17  and  C_16 
REMARK    7  A    between atoms: C_28  and  C_26 
ROOT
ATOM      1  C   UNL d   1     -48.527  13.634  22.851  0.00  0.00     0.137 A 
ATOM      2  N   UNL d   1     -49.233  13.190  22.842  0.00  0.00    -0.259 N 
ATOM      3  N   UNL d   1     -47.932  13.137  23.133  0.00  0.00    -0.287 N 
ATOM      4  C   UNL d   1     -48.530  14.416  22.603  0.00  0.00     0.054 A 
ATOM      5  C   UNL d   1     -49.936  13.543  22.583  0.00  0.00     0.266 A 
ATOM      6  C   UNL d   1     -49.068  12.430  23.117  0.00  0.00     0.084 A 
ATOM      7  C   UNL d   1     -48.253  12.397  23.299  0.00  0.00     0.082 A 
ATOM      8  C   UNL d   1     -49.229  14.769  22.344  0.00  0.00     0.009 A 
ATOM      9  C   UNL d   1     -49.938  14.336  22.331  0.00  0.00     0.061 A 
ATOM     10  O   UNL d   1     -50.641  13.107  22.572  0.00  0.00    -0.267 OA
ATOM     11  C   UNL d   1     -49.535  11.763  23.230  0.00  0.00     0.019 A 
ATOM     12  C   UNL d   1     -49.232  15.558  22.094  0.00  0.00     0.000 C 
ATOM     13  C   UNL d   1     -47.938  11.699  23.586  0.00  0.00     0.019 A 
ATOM     14  C   UNL d   1     -49.204  11.073  23.518  0.00  0.00     0.002 A 
ATOM     15  C   UNL d   1     -48.397  11.041  23.698  0.00  0.00     0.002 A 
ENDROOT
BRANCH   3  16
ATOM     16  C   UNL d   1     -47.131  13.096  23.315  0.00  0.00     0.125 C 
BRANCH  16  17
ATOM     17  C   UNL d   1     -46.592  12.848  22.741  0.00  0.00     0.231 C 
ATOM     18  O   UNL d   1     -46.778  12.908  21.942  0.00  0.00    -0.283 OA
BRANCH  17  19
ATOM     19  C   UNL d   1     -45.865  12.537  22.969  0.00  0.00     0.124 C 
BRANCH  19  20
ATOM     20  N   UNL d   1     -45.198  12.663  22.504  0.00  0.00    -0.297 N 
ATOM     21  C   UNL d   1     -44.625  12.065  22.558  0.00  0.00     0.100 A 
ATOM     22  C   UNL d   1     -43.925  12.122  22.118  0.00  0.00     0.100 A 
ATOM     23  N   UNL d   1     -43.794  12.772  21.625  0.00  0.00    -0.297 N 
ATOM     24  C   UNL d   1     -44.365  13.368  21.571  0.00  0.00     0.100 A 
ATOM     25  C   UNL d   1     -45.065  13.311  22.011  0.00  0.00     0.100 A 
BRANCH  23  26
ATOM     26  C   UNL d   1     -43.092  12.827  21.185  0.00  0.00     0.126 C 
BRANCH  26  27
ATOM     27  C   UNL d   1     -42.470  13.302  21.448  0.00  0.00     0.253 C 
ATOM     28  O   UNL d   1     -41.798  13.380  20.995  0.00  0.00    -0.281 OA
ENDBRANCH  26  27
ENDBRANCH  23  26
ENDBRANCH  19  20
ENDBRANCH  17  19
ENDBRANCH  16  17
ENDBRANCH   3  16
BRANCH   4  29
ATOM     29  C   UNL d   1     -47.837  14.852  22.611  0.00  0.00     0.125 C 
ATOM     30  N   UNL d   1     -47.849  15.674  22.636  0.00  0.00    -0.146 N 
ENDBRANCH   4  29
TORSDOF 7
ENDMDL
MODEL 2
REMARK VINA RESULT:      -3.6      1.010      1.578
REMARK  7 active torsions:
REMARK  status: ('A' for Active; 'I' for Inactive)
REMARK    1  A    between atoms: C_11  and  N_3 
REMARK    2  A    between atoms: C_10  and  C_4 
REMARK    3  A    between atoms: C_16  and  C_11 
REMARK    4  A    between atoms: N_13  and  C_17 
REMARK    5  A    between atoms: C_26  and  N_14 
REMARK    6  A    between atoms: C_17  and  C_16 
REMARK    7  A    between atoms: C_28  and  C_26 
ROOT
ATOM      1  C   UNL d   1     -47.205  13.277  22.961  0.00  0.00     0.137 A 
ATOM      2  N   UNL d   1     -47.759  12.695  23.185  0.00  0.00    -0.259 N 
ATOM      3  N   UNL d   1     -46.460  12.925  22.986  0.00  0.00    -0.287 N 
ATOM      4  C   UNL d   1     -47.458  14.033  22.771  0.00  0.00     0.054 A 
ATOM      5  C   UNL d   1     -48.564  12.884  23.213  0.00  0.00     0.266 A 
ATOM      6  C   UNL d   1     -47.353  11.994  23.343  0.00  0.00     0.084 A 
ATOM      7  C   UNL d   1     -46.539  12.139  23.219  0.00  0.00     0.082 A 
ATOM      8  C   UNL d   1     -48.260  14.225  22.798  0.00  0.00     0.009 A 
ATOM      9  C   UNL d   1     -48.820  13.653  23.019  0.00  0.00     0.061 A 
ATOM     10  O   UNL d   1     -49.120  12.310  23.434  0.00  0.00    -0.267 OA
ATOM     11  C   UNL d   1     -47.600  11.248  23.582  0.00  0.00     0.019 A 
ATOM     12  C   UNL d   1     -48.515  14.988  22.606  0.00  0.00     0.000 C 
ATOM     13  C   UNL d   1     -46.005  11.530  23.338  0.00  0.00     0.019 A 
ATOM     14  C   UNL d   1     -47.053  10.651  23.697  0.00  0.00     0.002 A 
ATOM     15  C   UNL d   1     -46.246  10.794  23.574  0.00  0.00     0.002 A 
ENDROOT
BRANCH   3  16
ATOM     16  C   UNL d   1     -45.657  13.058  22.866  0.00  0.00     0.125 C 
BRANCH  16  17
ATOM     17  C   UNL d   1     -45.316  12.878  22.137  0.00  0.00     0.231 C 
ATOM     18  O   UNL d   1     -45.700  13.078  21.437  0.00  0.00    -0.283 OA
BRANCH  17  19
ATOM     19  C   UNL d   1     -44.587  12.497  22.108  0.00  0.00     0.124 C 
BRANCH  19  20
ATOM     20  N   UNL d   1     -43.931  12.882  21.795  0.00  0.00    -0.297 N 
ATOM     21  C   UNL d   1     -43.372  12.379  21.444  0.00  0.00     0.100 A 
ATOM     22  C   UNL d   1     -42.684  12.694  21.107  0.00  0.00     0.100 A 
ATOM     23  N   UNL d   1     -42.551  13.510  21.117  0.00  0.00    -0.297 N 
ATOM     24  C   UNL d   1     -43.108  14.012  21.466  0.00  0.00     0.100 A 
ATOM     25  C   UNL d   1     -43.795  13.696  21.803  0.00  0.00     0.100 A 
BRANCH  23  26
ATOM     26  C   UNL d   1     -41.861  13.823  20.778  0.00  0.00     0.126 C 
BRANCH  26  27
ATOM     27  C   UNL d   1     -41.494  14.483  21.113  0.00  0.00     0.253 C 
ATOM     28  O   UNL d   1     -40.738  14.685  20.888  0.00  0.00    -0.281 OA
ENDBRANCH  26  27
ENDBRANCH  23  26
ENDBRANCH  19  20
ENDBRANCH  17  19
ENDBRANCH  16  17
ENDBRANCH   3  16
BRANCH   4  29
ATOM     29  C   UNL d   1     -46.914  14.606  22.552  0.00  0.00     0.125 C 
ATOM     30  N   UNL d   1     -47.053  15.404  22.694  0.00  0.00    -0.146 N 
ENDBRANCH   4  29
TORSDOF 7
ENDMDL
