MODEL 1
REMARK VINA RESULT:      -8.7      0.000      0.000
REMARK  4 active torsions:
REMARK  status: ('A' for Active; 'I' for Inactive)
REMARK    1  A    between atoms: S_3  and  N_1 
REMARK    2  A    between atoms: C_7  and  C_4 
REMARK    3  A    between atoms: C_11  and  C_5 
REMARK    4  A    between atoms: O_21  and  C_18 
ROOT
ATOM      1  N   UNL d   1      53.263  32.533  53.525  0.00  0.00    -0.155 N 
ATOM      2  N   UNL d   1      52.578  32.630  53.085  0.00  0.00    -0.156 NA
ATOM      3  C   UNL d   1      53.375  33.206  53.986  0.00  0.00     0.102 A 
ATOM      4  C   UNL d   1      52.243  33.364  53.256  0.00  0.00     0.104 A 
ATOM      5  C   UNL d   1      52.758  33.719  53.828  0.00  0.00     0.041 A 
ENDROOT
BRANCH   4   6
ATOM      6  C   UNL d   1      51.577  33.677  52.951  0.00  0.00     0.020 A 
ATOM      7  C   UNL d   1      51.601  34.059  52.184  0.00  0.00     0.004 A 
ATOM      8  C   UNL d   1      50.935  34.381  51.862  0.00  0.00     0.024 A 
ATOM      9  C   UNL d   1      50.194  34.357  52.257  0.00  0.00     0.094 A 
ATOM     10  C   UNL d   1      50.171  33.987  53.001  0.00  0.00     0.024 A 
ATOM     11  C   UNL d   1      50.835  33.649  53.355  0.00  0.00     0.004 A 
BRANCH   9  12
ATOM     12  O   UNL d   1      49.502  34.696  51.913  0.00  0.00    -0.328 OA
ATOM     13  C   UNL d   1      49.218  34.381  51.204  0.00  0.00     0.181 C 
ENDBRANCH   9  12
ENDBRANCH   4   6
BRANCH   1  14
ATOM     14  S   UNL d   1      53.759  31.846  53.497  0.00  0.00     0.266 S 
ATOM     15  O   UNL d   1      54.282  32.225  52.993  0.00  0.00    -0.203 OA
ATOM     16  O   UNL d   1      54.231  31.173  53.478  0.00  0.00    -0.203 OA
ATOM     17  C   UNL d   1      53.204  31.460  54.025  0.00  0.00     0.165 C 
ENDBRANCH   1  14
BRANCH   3  18
ATOM     18  C   UNL d   1      54.007  33.334  54.515  0.00  0.00     0.048 A 
ATOM     19  S   UNL d   1      54.035  33.133  55.293  0.00  0.00    -0.085 SA
ATOM     20  C   UNL d   1      54.759  33.358  55.613  0.00  0.00     0.035 A 
ATOM     21  C   UNL d   1      55.183  33.702  55.027  0.00  0.00     0.007 A 
ATOM     22  C   UNL d   1      54.729  33.692  54.350  0.00  0.00     0.009 A 
ENDBRANCH   3  18
TORSDOF 4
ENDMDL
MODEL 2
REMARK VINA RESULT:      -8.2      0.872      1.977
REMARK  4 active torsions:
REMARK  status: ('A' for Active; 'I' for Inactive)
REMARK    1  A    between atoms: S_3  and  N_1 
REMARK    2  A    between atoms: C_7  and  C_4 
REMARK    3  A    between atoms: C_11  and  C_5 
REMARK    4  A    between atoms: O_21  and  C_18 
ROOT
ATOM      1  N   UNL d   1      53.362  32.677  53.571  0.00  0.00    -0.155 N 
ATOM      2  N   UNL d   1      52.891  33.326  53.401  0.00  0.00    -0.156 NA
ATOM      3  C   UNL d   1      52.940  31.993  53.388  0.00  0.00     0.102 A 
ATOM      4  C   UNL d   1      52.164  33.069  53.108  0.00  0.00     0.104 A 
ATOM      5  C   UNL d   1      52.209  32.223  53.105  0.00  0.00     0.041 A 
ENDROOT
BRANCH   4   6
ATOM      6  C   UNL d   1      51.548  33.518  52.876  0.00  0.00     0.020 A 
ATOM      7  C   UNL d   1      50.847  33.562  53.367  0.00  0.00     0.004 A 
ATOM      8  C   UNL d   1      50.215  34.013  53.146  0.00  0.00     0.024 A 
ATOM      9  C   UNL d   1      50.214  34.456  52.432  0.00  0.00     0.094 A 
ATOM     10  C   UNL d   1      50.894  34.413  51.956  0.00  0.00     0.024 A 
ATOM     11  C   UNL d   1      51.554  33.961  52.156  0.00  0.00     0.004 A 
BRANCH   9  12
ATOM     12  O   UNL d   1      49.549  34.924  52.208  0.00  0.00    -0.328 OA
ATOM     13  C   UNL d   1      49.045  34.641  51.618  0.00  0.00     0.181 C 
ENDBRANCH   9  12
ENDBRANCH   4   6
BRANCH   1  14
ATOM     14  S   UNL d   1      54.149  32.722  53.883  0.00  0.00     0.266 S 
ATOM     15  O   UNL d   1      54.468  32.648  53.132  0.00  0.00    -0.203 OA
ATOM     16  O   UNL d   1      54.906  32.766  54.199  0.00  0.00    -0.203 OA
ATOM     17  C   UNL d   1      53.803  32.798  54.664  0.00  0.00     0.165 C 
ENDBRANCH   1  14
BRANCH   3  18
ATOM     18  C   UNL d   1      53.217  31.212  53.477  0.00  0.00     0.048 A 
ATOM     19  S   UNL d   1      53.516  30.736  52.902  0.00  0.00    -0.085 SA
ATOM     20  C   UNL d   1      53.724  30.008  53.225  0.00  0.00     0.035 A 
ATOM     21  C   UNL d   1      53.553  30.033  54.007  0.00  0.00     0.007 A 
ATOM     22  C   UNL d   1      53.241  30.769  54.170  0.00  0.00     0.009 A 
ENDBRANCH   3  18
TORSDOF 4
ENDMDL
MODEL 3
REMARK VINA RESULT:      -8.0      1.760      3.781
REMARK  4 active torsions:
REMARK  status: ('A' for Active; 'I' for Inactive)
REMARK    1  A    between atoms: S_3  and  N_1 
REMARK    2  A    between atoms: C_7  and  C_4 
REMARK    3  A    between atoms: C_11  and  C_5 
REMARK    4  A    between atoms: O_21  and  C_18 
ROOT
ATOM      1  N   UNL d   1      52.063  33.438  53.005  0.00  0.00    -0.155 N 
ATOM      2  N   UNL d   1      52.079  32.623  52.912  0.00  0.00    -0.156 NA
ATOM      3  C   UNL d   1      52.660  33.653  53.530  0.00  0.00     0.102 A 
ATOM      4  C   UNL d   1      52.684  32.306  53.374  0.00  0.00     0.104 A 
ATOM      5  C   UNL d   1      53.044  32.969  53.760  0.00  0.00     0.041 A 
ENDROOT
BRANCH   4   6
ATOM      6  C   UNL d   1      52.890  31.540  53.445  0.00  0.00     0.020 A 
ATOM      7  C   UNL d   1      53.467  31.309  54.034  0.00  0.00     0.004 A 
ATOM      8  C   UNL d   1      53.686  30.536  54.118  0.00  0.00     0.024 A 
ATOM      9  C   UNL d   1      53.362  29.928  53.638  0.00  0.00     0.094 A 
ATOM     10  C   UNL d   1      52.801  30.152  53.066  0.00  0.00     0.024 A 
ATOM     11  C   UNL d   1      52.559  30.933  52.958  0.00  0.00     0.004 A 
BRANCH   9  12
ATOM     12  O   UNL d   1      53.596  29.123  53.732  0.00  0.00    -0.328 OA
ATOM     13  C   UNL d   1      53.445  28.748  54.453  0.00  0.00     0.181 C 
ENDBRANCH   9  12
ENDBRANCH   4   6
BRANCH   1  14
ATOM     14  S   UNL d   1      51.515  33.955  52.617  0.00  0.00     0.266 S 
ATOM     15  O   UNL d   1      52.061  34.118  52.028  0.00  0.00    -0.203 OA
ATOM     16  O   UNL d   1      50.974  34.455  52.251  0.00  0.00    -0.203 OA
ATOM     17  C   UNL d   1      50.952  33.778  53.239  0.00  0.00     0.165 C 
ENDBRANCH   1  14
BRANCH   3  18
ATOM     18  C   UNL d   1      52.835  34.430  53.777  0.00  0.00     0.048 A 
ATOM     19  S   UNL d   1      52.586  34.790  54.452  0.00  0.00    -0.085 SA
ATOM     20  C   UNL d   1      52.883  35.557  54.483  0.00  0.00     0.035 A 
ATOM     21  C   UNL d   1      53.320  35.672  53.822  0.00  0.00     0.007 A 
ATOM     22  C   UNL d   1      53.296  34.985  53.383  0.00  0.00     0.009 A 
ENDBRANCH   3  18
TORSDOF 4
ENDMDL
MODEL 4
REMARK VINA RESULT:      -7.7      2.614      3.544
REMARK  4 active torsions:
REMARK  status: ('A' for Active; 'I' for Inactive)
REMARK    1  A    between atoms: S_3  and  N_1 
REMARK    2  A    between atoms: C_7  and  C_4 
REMARK    3  A    between atoms: C_11  and  C_5 
REMARK    4  A    between atoms: O_21  and  C_18 
ROOT
ATOM      1  N   UNL d   1      54.248  33.256  54.561  0.00  0.00    -0.155 N 
ATOM      2  N   UNL d   1      54.250  32.453  54.393  0.00  0.00    -0.156 NA
ATOM      3  C   UNL d   1      53.557  33.584  54.256  0.00  0.00     0.102 A 
ATOM      4  C   UNL d   1      53.564  32.257  53.980  0.00  0.00     0.104 A 
ATOM      5  C   UNL d   1      53.134  32.982  53.901  0.00  0.00     0.041 A 
ENDROOT
BRANCH   4   6
ATOM      6  C   UNL d   1      53.348  31.539  53.712  0.00  0.00     0.020 A 
ATOM      7  C   UNL d   1      53.616  30.835  54.121  0.00  0.00     0.004 A 
ATOM      8  C   UNL d   1      53.406  30.100  53.862  0.00  0.00     0.024 A 
ATOM      9  C   UNL d   1      52.918  29.991  53.186  0.00  0.00     0.094 A 
ATOM     10  C   UNL d   1      52.658  30.673  52.790  0.00  0.00     0.024 A 
ATOM     11  C   UNL d   1      52.857  31.436  53.032  0.00  0.00     0.004 A 
BRANCH   9  12
ATOM     12  O   UNL d   1      52.703  29.219  52.921  0.00  0.00    -0.328 OA
ATOM     13  C   UNL d   1      52.492  28.652  53.484  0.00  0.00     0.181 C 
ENDBRANCH   9  12
ENDBRANCH   4   6
BRANCH   1  14
ATOM     14  S   UNL d   1      54.864  33.661  54.979  0.00  0.00     0.266 S 
ATOM     15  O   UNL d   1      54.448  33.603  55.682  0.00  0.00    -0.203 OA
ATOM     16  O   UNL d   1      55.469  34.056  55.372  0.00  0.00    -0.203 OA
ATOM     17  C   UNL d   1      55.291  33.717  54.237  0.00  0.00     0.165 C 
ENDBRANCH   1  14
BRANCH   3  18
ATOM     18  C   UNL d   1      53.336  34.387  54.306  0.00  0.00     0.048 A 
ATOM     19  S   UNL d   1      52.964  34.749  54.920  0.00  0.00    -0.085 SA
ATOM     20  C   UNL d   1      52.848  35.545  54.745  0.00  0.00     0.035 A 
ATOM     21  C   UNL d   1      53.153  35.677  54.016  0.00  0.00     0.007 A 
ATOM     22  C   UNL d   1      53.455  34.971  53.740  0.00  0.00     0.009 A 
ENDBRANCH   3  18
TORSDOF 4
ENDMDL
MODEL 5
REMARK VINA RESULT:      -5.7      2.344      3.433
REMARK  4 active torsions:
REMARK  status: ('A' for Active; 'I' for Inactive)
REMARK    1  A    between atoms: S_3  and  N_1 
REMARK    2  A    between atoms: C_7  and  C_4 
REMARK    3  A    between atoms: C_11  and  C_5 
REMARK    4  A    between atoms: O_21  and  C_18 
ROOT
ATOM      1  N   UNL d   1      53.165  30.968  53.302  0.00  0.00    -0.155 N 
ATOM      2  N   UNL d   1      53.184  31.787  53.275  0.00  0.00    -0.156 NA
ATOM      3  C   UNL d   1      53.375  30.726  54.061  0.00  0.00     0.102 A 
ATOM      4  C   UNL d   1      53.406  32.081  54.014  0.00  0.00     0.104 A 
ATOM      5  C   UNL d   1      53.523  31.398  54.501  0.00  0.00     0.041 A 
ENDROOT
BRANCH   4   6
ATOM      6  C   UNL d   1      53.492  32.843  54.226  0.00  0.00     0.020 A 
ATOM      7  C   UNL d   1      52.912  33.422  53.975  0.00  0.00     0.004 A 
ATOM      8  C   UNL d   1      52.985  34.198  54.182  0.00  0.00     0.024 A 
ATOM      9  C   UNL d   1      53.626  34.474  54.650  0.00  0.00     0.094 A 
ATOM     10  C   UNL d   1      54.189  33.913  54.894  0.00  0.00     0.024 A 
ATOM     11  C   UNL d   1      54.140  33.114  54.697  0.00  0.00     0.004 A 
BRANCH   9  12
ATOM     12  O   UNL d   1      53.695  35.288  54.862  0.00  0.00    -0.328 OA
ATOM     13  C   UNL d   1      53.069  35.798  54.688  0.00  0.00     0.181 C 
ENDBRANCH   9  12
ENDBRANCH   4   6
BRANCH   1  14
ATOM     14  S   UNL d   1      52.961  30.470  52.647  0.00  0.00     0.266 S 
ATOM     15  O   UNL d   1      53.746  30.418  52.420  0.00  0.00    -0.203 OA
ATOM     16  O   UNL d   1      52.748  29.988  52.016  0.00  0.00    -0.203 OA
ATOM     17  C   UNL d   1      52.141  30.531  52.894  0.00  0.00     0.165 C 
ENDBRANCH   1  14
BRANCH   3  18
ATOM     18  C   UNL d   1      53.425  29.936  54.324  0.00  0.00     0.048 A 
ATOM     19  S   UNL d   1      52.901  29.550  54.796  0.00  0.00    -0.085 SA
ATOM     20  C   UNL d   1      53.157  28.778  54.923  0.00  0.00     0.035 A 
ATOM     21  C   UNL d   1      53.846  28.686  54.525  0.00  0.00     0.007 A 
ATOM     22  C   UNL d   1      54.018  29.392  54.155  0.00  0.00     0.009 A 
ENDBRANCH   3  18
TORSDOF 4
ENDMDL
