MODEL 1
REMARK VINA RESULT:      14.6      0.000      0.000
REMARK  2 active torsions:
REMARK  status: ('A' for Active; 'I' for Inactive)
REMARK    1  A    between atoms: C_9  and  N_1 
REMARK    2  A    between atoms: C_11  and  C_9 
ROOT
ATOM      1  N   UNL d   1      59.119  49.707  50.565  0.00  0.00    -0.287 N 
ATOM      2  N   UNL d   1      58.974  49.707  49.218  0.00  0.00    -0.224 NA
ATOM      3  C   UNL d   1      58.295  49.707  50.391  0.00  0.00     0.083 A 
ATOM      4  C   UNL d   1      59.534  49.708  49.839  0.00  0.00     0.183 A 
ATOM      5  C   UNL d   1      58.208  49.707  49.563  0.00  0.00     0.099 A 
ATOM      6  C   UNL d   1      57.627  49.706  50.876  0.00  0.00     0.019 A 
ATOM      7  C   UNL d   1      57.454  49.706  49.229  0.00  0.00     0.021 A 
ATOM      8  C   UNL d   1      56.875  49.706  50.540  0.00  0.00     0.002 A 
ATOM      9  C   UNL d   1      56.788  49.706  49.713  0.00  0.00     0.002 A 
ATOM     10  C   UNL d   1      56.204  49.705  51.026  0.00  0.00     0.000 C 
ATOM     11  C   UNL d   1      56.034  49.705  49.382  0.00  0.00     0.000 C 
ENDROOT
BRANCH   1  12
ATOM     12  C   UNL d   1      59.603  49.708  51.230  0.00  0.00     0.082 C 
BRANCH  12  13
ATOM     13  C   UNL d   1      60.420  49.641  51.144  0.00  0.00     0.018 C 
ATOM     14  C   UNL d   1      60.753  49.582  50.390  0.00  0.00     0.002 C 
ATOM     15  C   UNL d   1      60.907  49.635  51.811  0.00  0.00     0.002 C 
ENDBRANCH  12  13
ENDBRANCH   1  12
TORSDOF 2
ENDMDL
MODEL 2
REMARK VINA RESULT:      16.6      0.732      3.466
REMARK  2 active torsions:
REMARK  status: ('A' for Active; 'I' for Inactive)
REMARK    1  A    between atoms: C_9  and  N_1 
REMARK    2  A    between atoms: C_11  and  C_9 
ROOT
ATOM      1  N   UNL d   1      57.976  49.708  50.551  0.00  0.00    -0.287 N 
ATOM      2  N   UNL d   1      58.191  49.708  51.888  0.00  0.00    -0.224 NA
ATOM      3  C   UNL d   1      58.807  49.708  50.682  0.00  0.00     0.083 A 
ATOM      4  C   UNL d   1      57.599  49.708  51.298  0.00  0.00     0.183 A 
ATOM      5  C   UNL d   1      58.937  49.708  51.504  0.00  0.00     0.099 A 
ATOM      6  C   UNL d   1      59.449  49.708  50.163  0.00  0.00     0.019 A 
ATOM      7  C   UNL d   1      59.708  49.708  51.798  0.00  0.00     0.021 A 
ATOM      8  C   UNL d   1      60.218  49.708  50.459  0.00  0.00     0.002 A 
ATOM      9  C   UNL d   1      60.348  49.708  51.281  0.00  0.00     0.002 A 
ATOM     10  C   UNL d   1      60.863  49.708  49.939  0.00  0.00     0.000 C 
ATOM     11  C   UNL d   1      61.118  49.708  51.572  0.00  0.00     0.000 C 
ENDROOT
BRANCH   1  12
ATOM     12  C   UNL d   1      57.458  49.708  49.913  0.00  0.00     0.082 C 
BRANCH  12  13
ATOM     13  C   UNL d   1      56.687  49.430  50.007  0.00  0.00     0.018 C 
ATOM     14  C   UNL d   1      56.366  48.908  49.454  0.00  0.00     0.002 C 
ATOM     15  C   UNL d   1      56.237  49.673  50.655  0.00  0.00     0.002 C 
ENDBRANCH  12  13
ENDBRANCH   1  12
TORSDOF 2
ENDMDL
