MODEL 1
REMARK VINA RESULT:      -0.9      0.000      0.000
REMARK  4 active torsions:
REMARK  status: ('A' for Active; 'I' for Inactive)
REMARK    1  A    between atoms: N_3  and  C_1 
REMARK    2  A    between atoms: C_2  and  S_10 
REMARK    3  A    between atoms: N_5  and  C_9 
REMARK    4  A    between atoms: S_10  and  C_8 
ROOT
ATOM      1  C   UNL d   1     -41.570-122.483 -51.771  0.00  0.00     0.134 A 
ATOM      2  C   UNL d   1     -41.493-121.707 -52.056  0.00  0.00     0.048 A 
ATOM      3  C   UNL d   1     -41.423-122.657 -50.969  0.00  0.00     0.055 A 
ATOM      4  C   UNL d   1     -41.266-121.085 -51.547  0.00  0.00     0.128 A 
ATOM      5  C   UNL d   1     -41.201-122.055 -50.467  0.00  0.00     0.010 A 
ATOM      6  C   UNL d   1     -41.123-121.281 -50.743  0.00  0.00     0.024 A 
ENDROOT
BRANCH   3   7
ATOM      7  S   UNL d   1     -41.494-123.407 -50.678  0.00  0.00    -0.041 SA
BRANCH   7   8
ATOM      8  C   UNL d   1     -41.696-123.510 -49.767  0.00  0.00     0.215 A 
ATOM      9  N   UNL d   1     -41.154-123.582 -49.187  0.00  0.00    -0.214 NA
ATOM     10  C   UNL d   1     -41.572-123.661 -48.470  0.00  0.00     0.107 A 
ATOM     11  C   UNL d   1     -41.329-123.754 -47.675  0.00  0.00     0.021 A 
ATOM     12  C   UNL d   1     -42.374-123.635 -48.635  0.00  0.00     0.120 A 
ATOM     13  C   UNL d   1     -41.894-123.817 -47.087  0.00  0.00     0.002 A 
ATOM     14  C   UNL d   1     -42.687-123.791 -47.256  0.00  0.00     0.002 A 
ATOM     15  C   UNL d   1     -42.936-123.699 -48.038  0.00  0.00     0.026 A 
ATOM     16  O   UNL d   1     -42.451-123.538 -49.476  0.00  0.00    -0.283 OA
ENDBRANCH   7   8
ENDBRANCH   3   7
BRANCH   1  17
ATOM     17  N   UNL d   1     -41.795-123.071 -52.300  0.00  0.00    -0.113 N 
ATOM     18  O   UNL d   1     -42.509-123.100 -52.662  0.00  0.00    -0.532 OA
ATOM     19  O   UNL d   1     -41.295-123.700 -52.511  0.00  0.00    -0.532 OA
ENDBRANCH   1  17
BRANCH   4  20
ATOM     20  N   UNL d   1     -41.183-120.310 -51.805  0.00  0.00    -0.114 N 
ATOM     21  O   UNL d   1     -41.123-120.084 -52.620  0.00  0.00    -0.532 OA
ATOM     22  O   UNL d   1     -41.148-119.659 -51.333  0.00  0.00    -0.532 OA
ENDBRANCH   4  20
TORSDOF 4
ENDMDL
MODEL 2
REMARK VINA RESULT:       1.2      1.307      1.770
REMARK  4 active torsions:
REMARK  status: ('A' for Active; 'I' for Inactive)
REMARK    1  A    between atoms: N_3  and  C_1 
REMARK    2  A    between atoms: C_2  and  S_10 
REMARK    3  A    between atoms: N_5  and  C_9 
REMARK    4  A    between atoms: S_10  and  C_8 
ROOT
ATOM      1  C   UNL d   1     -41.773-122.670 -53.239  0.00  0.00     0.134 A 
ATOM      2  C   UNL d   1     -41.925-121.972 -53.663  0.00  0.00     0.048 A 
ATOM      3  C   UNL d   1     -41.588-122.641 -52.426  0.00  0.00     0.055 A 
ATOM      4  C   UNL d   1     -41.894-121.228 -53.286  0.00  0.00     0.128 A 
ATOM      5  C   UNL d   1     -41.557-121.918 -52.053  0.00  0.00     0.010 A 
ATOM      6  C   UNL d   1     -41.706-121.220 -52.468  0.00  0.00     0.024 A 
ENDROOT
BRANCH   3   7
ATOM      7  S   UNL d   1     -41.439-123.311 -52.001  0.00  0.00    -0.041 SA
BRANCH   7   8
ATOM      8  C   UNL d   1     -41.666-123.316 -51.090  0.00  0.00     0.215 A 
ATOM      9  N   UNL d   1     -42.402-123.428 -50.806  0.00  0.00    -0.214 NA
ATOM     10  C   UNL d   1     -42.352-123.390 -49.975  0.00  0.00     0.107 A 
ATOM     11  C   UNL d   1     -42.920-123.462 -49.365  0.00  0.00     0.021 A 
ATOM     12  C   UNL d   1     -41.571-123.253 -49.770  0.00  0.00     0.120 A 
ATOM     13  C   UNL d   1     -42.683-123.395 -48.585  0.00  0.00     0.002 A 
ATOM     14  C   UNL d   1     -41.908-123.260 -48.387  0.00  0.00     0.002 A 
ATOM     15  C   UNL d   1     -41.341-123.187 -48.983  0.00  0.00     0.026 A 
ATOM     16  O   UNL d   1     -41.129-123.206 -50.494  0.00  0.00    -0.283 OA
ENDBRANCH   7   8
ENDBRANCH   3   7
BRANCH   1  17
ATOM     17  N   UNL d   1     -41.812-123.386 -53.641  0.00  0.00    -0.113 N 
ATOM     18  O   UNL d   1     -42.496-123.757 -53.834  0.00  0.00    -0.532 OA
ATOM     19  O   UNL d   1     -41.135-123.800 -53.887  0.00  0.00    -0.532 OA
ENDBRANCH   1  17
BRANCH   4  20
ATOM     20  N   UNL d   1     -42.040-120.525 -53.684  0.00  0.00    -0.114 N 
ATOM     21  O   UNL d   1     -41.592-119.813 -53.572  0.00  0.00    -0.532 OA
ATOM     22  O   UNL d   1     -42.618-120.406 -54.231  0.00  0.00    -0.532 OA
ENDBRANCH   4  20
TORSDOF 4
ENDMDL
