MODEL 1
REMARK VINA RESULT:       3.6      0.000      0.000
REMARK  4 active torsions:
REMARK  status: ('A' for Active; 'I' for Inactive)
REMARK    1  A    between atoms: C_11  and  C_4 
REMARK    2  A    between atoms: N_10  and  C_5 
REMARK    3  A    between atoms: C_15  and  N_10 
REMARK    4  A    between atoms: C_16  and  C_15 
ROOT
ATOM      1  N   UNL d   1      57.746   0.527  31.892  0.00  0.00    -0.195 N 
ATOM      2  C   UNL d   1      56.950   0.573  32.083  0.00  0.00     0.167 A 
ATOM      3  N   UNL d   1      58.165   0.483  32.592  0.00  0.00    -0.163 NA
ATOM      4  C   UNL d   1      56.883   0.558  32.899  0.00  0.00     0.055 A 
ATOM      5  C   UNL d   1      57.977   0.531  31.104  0.00  0.00     0.167 A 
ATOM      6  C   UNL d   1      57.622   0.503  33.210  0.00  0.00     0.104 A 
ATOM      7  N   UNL d   1      56.382   0.624  31.486  0.00  0.00    -0.227 NA
ATOM      8  C   UNL d   1      57.407   0.582  30.500  0.00  0.00     0.058 A 
ATOM      9  C   UNL d   1      56.619   0.628  30.688  0.00  0.00     0.086 A 
ATOM     10  C   UNL d   1      57.801   0.472  34.018  0.00  0.00     0.023 C 
ATOM     11  C   UNL d   1      56.047   0.679  30.076  0.00  0.00     0.021 C 
ENDROOT
BRANCH   5  12
ATOM     12  N   UNL d   1      58.782   0.484  30.911  0.00  0.00    -0.224 NA
BRANCH  12  13
ATOM     13  C   UNL d   1      59.030   0.664  30.150  0.00  0.00     0.120 C 
BRANCH  13  14
ATOM     14  C   UNL d   1      59.704   0.297  29.838  0.00  0.00     0.101 A 
ATOM     15  N   UNL d   1      60.462   0.564  30.055  0.00  0.00    -0.242 NA
ATOM     16  C   UNL d   1      61.132   0.198  29.746  0.00  0.00     0.099 A 
ATOM     17  C   UNL d   1      61.048  -0.437  29.217  0.00  0.00     0.021 A 
ATOM     18  C   UNL d   1      60.299  -0.700  29.003  0.00  0.00     0.003 A 
ATOM     19  C   UNL d   1      59.629  -0.335  29.313  0.00  0.00     0.021 A 
ENDBRANCH  13  14
ENDBRANCH  12  13
ENDBRANCH   5  12
BRANCH   4  20
ATOM     20  C   UNL d   1      56.221   0.589  33.403  0.00  0.00     0.004 A 
ATOM     21  C   UNL d   1      56.321   0.598  34.222  0.00  0.00     0.001 A 
ATOM     22  C   UNL d   1      55.668   0.628  34.723  0.00  0.00     0.011 A 
ATOM     23  C   UNL d   1      54.909   0.649  34.399  0.00  0.00     0.058 A 
ATOM     24  C   UNL d   1      54.808   0.639  33.575  0.00  0.00     0.011 A 
ATOM     25 CL   UNL d   1      54.244   0.680  34.912  0.00  0.00    -0.082 Cl
ATOM     26  C   UNL d   1      55.462   0.609  33.078  0.00  0.00     0.001 A 
ENDBRANCH   4  20
TORSDOF 4
ENDMDL
MODEL 2
REMARK VINA RESULT:       4.7      2.477      5.266
REMARK  4 active torsions:
REMARK  status: ('A' for Active; 'I' for Inactive)
REMARK    1  A    between atoms: C_11  and  C_4 
REMARK    2  A    between atoms: N_10  and  C_5 
REMARK    3  A    between atoms: C_15  and  N_10 
REMARK    4  A    between atoms: C_16  and  C_15 
ROOT
ATOM      1  N   UNL d   1      58.164  -0.422  30.784  0.00  0.00    -0.195 N 
ATOM      2  C   UNL d   1      58.846  -0.762  30.482  0.00  0.00     0.167 A 
ATOM      3  N   UNL d   1      57.537  -0.902  30.575  0.00  0.00    -0.163 NA
ATOM      4  C   UNL d   1      58.636  -1.450  30.088  0.00  0.00     0.055 A 
ATOM      5  C   UNL d   1      58.212   0.279  31.208  0.00  0.00     0.167 A 
ATOM      6  C   UNL d   1      57.838  -1.535  30.145  0.00  0.00     0.104 A 
ATOM      7  N   UNL d   1      59.579  -0.402  30.603  0.00  0.00    -0.227 NA
ATOM      8  C   UNL d   1      58.950   0.645  31.332  0.00  0.00     0.058 A 
ATOM      9  C   UNL d   1      59.624   0.309  31.033  0.00  0.00     0.086 A 
ATOM     10  C   UNL d   1      57.400  -2.159  29.822  0.00  0.00     0.023 C 
ATOM     11  C   UNL d   1      60.367   0.681  31.161  0.00  0.00     0.021 C 
ENDROOT
BRANCH   5  12
ATOM     12  N   UNL d   1      57.523   0.623  31.513  0.00  0.00    -0.224 NA
BRANCH  12  13
ATOM     13  C   UNL d   1      57.421   0.682  32.325  0.00  0.00     0.120 C 
BRANCH  13  14
ATOM     14  C   UNL d   1      56.676   0.543  32.658  0.00  0.00     0.101 A 
ATOM     15  N   UNL d   1      55.987   0.669  32.207  0.00  0.00    -0.242 NA
ATOM     16  C   UNL d   1      55.245   0.531  32.538  0.00  0.00     0.099 A 
ATOM     17  C   UNL d   1      55.188   0.265  33.322  0.00  0.00     0.021 A 
ATOM     18  C   UNL d   1      55.868   0.140  33.768  0.00  0.00     0.003 A 
ATOM     19  C   UNL d   1      56.609   0.279  33.437  0.00  0.00     0.021 A 
ENDBRANCH  13  14
ENDBRANCH  12  13
ENDBRANCH   5  12
BRANCH   4  20
ATOM     20  C   UNL d   1      59.087  -2.017  29.679  0.00  0.00     0.004 A 
ATOM     21  C   UNL d   1      59.392  -2.672  30.075  0.00  0.00     0.001 A 
ATOM     22  C   UNL d   1      59.839  -3.235  29.672  0.00  0.00     0.011 A 
ATOM     23  C   UNL d   1      59.980  -3.138  28.865  0.00  0.00     0.058 A 
ATOM     24  C   UNL d   1      59.673  -2.478  28.465  0.00  0.00     0.011 A 
ATOM     25 CL   UNL d   1      60.436  -3.713  28.456  0.00  0.00    -0.082 Cl
ATOM     26  C   UNL d   1      59.227  -1.919  28.871  0.00  0.00     0.001 A 
ENDBRANCH   4  20
TORSDOF 4
ENDMDL
MODEL 3
REMARK VINA RESULT:       6.2      1.496      2.065
REMARK  4 active torsions:
REMARK  status: ('A' for Active; 'I' for Inactive)
REMARK    1  A    between atoms: C_11  and  C_4 
REMARK    2  A    between atoms: N_10  and  C_5 
REMARK    3  A    between atoms: C_15  and  N_10 
REMARK    4  A    between atoms: C_16  and  C_15 
ROOT
ATOM      1  N   UNL d   1      56.990  -0.495  31.948  0.00  0.00    -0.195 N 
ATOM      2  C   UNL d   1      57.014  -0.187  32.708  0.00  0.00     0.167 A 
ATOM      3  N   UNL d   1      56.246  -0.815  31.836  0.00  0.00    -0.163 NA
ATOM      4  C   UNL d   1      56.285  -0.319  33.059  0.00  0.00     0.055 A 
ATOM      5  C   UNL d   1      57.651  -0.439  31.465  0.00  0.00     0.167 A 
ATOM      6  C   UNL d   1      55.817  -0.701  32.529  0.00  0.00     0.104 A 
ATOM      7  N   UNL d   1      57.700   0.178  32.987  0.00  0.00    -0.227 NA
ATOM      8  C   UNL d   1      58.345  -0.072  31.743  0.00  0.00     0.058 A 
ATOM      9  C   UNL d   1      58.369   0.232  32.495  0.00  0.00     0.086 A 
ATOM     10  C   UNL d   1      55.035  -0.938  32.664  0.00  0.00     0.023 C 
ATOM     11  C   UNL d   1      59.071   0.602  32.772  0.00  0.00     0.021 C 
ENDROOT
BRANCH   5  12
ATOM     12  N   UNL d   1      57.627  -0.751  30.697  0.00  0.00    -0.224 NA
BRANCH  12  13
ATOM     13  C   UNL d   1      58.264  -0.642  30.192  0.00  0.00     0.120 C 
BRANCH  13  14
ATOM     14  C   UNL d   1      58.485  -1.246  29.671  0.00  0.00     0.101 A 
ATOM     15  N   UNL d   1      59.244  -1.246  29.329  0.00  0.00    -0.242 NA
ATOM     16  C   UNL d   1      59.463  -1.847  28.810  0.00  0.00     0.099 A 
ATOM     17  C   UNL d   1      58.924  -2.452  28.630  0.00  0.00     0.021 A 
ATOM     18  C   UNL d   1      58.174  -2.453  28.968  0.00  0.00     0.003 A 
ATOM     19  C   UNL d   1      57.955  -1.851  29.486  0.00  0.00     0.021 A 
ENDBRANCH  13  14
ENDBRANCH  12  13
ENDBRANCH   5  12
BRANCH   4  20
ATOM     20  C   UNL d   1      55.990  -0.131  33.814  0.00  0.00     0.004 A 
ATOM     21  C   UNL d   1      56.328   0.479  34.254  0.00  0.00     0.001 A 
ATOM     22  C   UNL d   1      56.038   0.667  35.003  0.00  0.00     0.011 A 
ATOM     23  C   UNL d   1      55.403   0.239  35.310  0.00  0.00     0.058 A 
ATOM     24  C   UNL d   1      55.062  -0.376  34.868  0.00  0.00     0.011 A 
ATOM     25 CL   UNL d   1      55.109   0.432  36.073  0.00  0.00    -0.082 Cl
ATOM     26  C   UNL d   1      55.355  -0.560  34.122  0.00  0.00     0.001 A 
ENDBRANCH   4  20
TORSDOF 4
ENDMDL
MODEL 4
REMARK VINA RESULT:       6.4      5.625      7.431
REMARK  4 active torsions:
REMARK  status: ('A' for Active; 'I' for Inactive)
REMARK    1  A    between atoms: C_11  and  C_4 
REMARK    2  A    between atoms: N_10  and  C_5 
REMARK    3  A    between atoms: C_15  and  N_10 
REMARK    4  A    between atoms: C_16  and  C_15 
ROOT
ATOM      1  N   UNL d   1      58.686  -4.727  28.456  0.00  0.00    -0.195 N 
ATOM      2  C   UNL d   1      58.949  -5.504  28.457  0.00  0.00     0.167 A 
ATOM      3  N   UNL d   1      57.869  -4.743  28.456  0.00  0.00    -0.163 NA
ATOM      4  C   UNL d   1      58.292  -5.995  28.457  0.00  0.00     0.055 A 
ATOM      5  C   UNL d   1      59.231  -4.113  28.456  0.00  0.00     0.167 A 
ATOM      6  C   UNL d   1      57.635  -5.532  28.456  0.00  0.00     0.104 A 
ATOM      7  N   UNL d   1      59.757  -5.670  28.458  0.00  0.00    -0.227 NA
ATOM      8  C   UNL d   1      60.048  -4.277  28.457  0.00  0.00     0.058 A 
ATOM      9  C   UNL d   1      60.307  -5.045  28.458  0.00  0.00     0.086 A 
ATOM     10  C   UNL d   1      56.854  -5.810  28.456  0.00  0.00     0.023 C 
ATOM     11  C   UNL d   1      61.132  -5.205  28.459  0.00  0.00     0.021 C 
ENDROOT
BRANCH   5  12
ATOM     12  N   UNL d   1      58.966  -3.328  28.456  0.00  0.00    -0.224 NA
BRANCH  12  13
ATOM     13  C   UNL d   1      59.478  -2.724  28.672  0.00  0.00     0.120 C 
BRANCH  13  14
ATOM     14  C   UNL d   1      59.174  -2.017  28.978  0.00  0.00     0.101 A 
ATOM     15  N   UNL d   1      58.783  -2.014  29.713  0.00  0.00    -0.242 NA
ATOM     16  C   UNL d   1      58.480  -1.310  30.017  0.00  0.00     0.099 A 
ATOM     17  C   UNL d   1      58.568  -0.605  29.587  0.00  0.00     0.021 A 
ATOM     18  C   UNL d   1      58.954  -0.608  28.861  0.00  0.00     0.003 A 
ATOM     19  C   UNL d   1      59.256  -1.312  28.557  0.00  0.00     0.021 A 
ENDBRANCH  13  14
ENDBRANCH  12  13
ENDBRANCH   5  12
BRANCH   4  20
ATOM     20  C   UNL d   1      58.218  -6.823  28.458  0.00  0.00     0.004 A 
ATOM     21  C   UNL d   1      57.472  -7.175  28.461  0.00  0.00     0.001 A 
ATOM     22  C   UNL d   1      57.395  -7.996  28.461  0.00  0.00     0.011 A 
ATOM     23  C   UNL d   1      58.073  -8.466  28.459  0.00  0.00     0.058 A 
ATOM     24  C   UNL d   1      58.824  -8.113  28.456  0.00  0.00     0.011 A 
ATOM     25 CL   UNL d   1      57.992  -9.302  28.459  0.00  0.00    -0.082 Cl
ATOM     26  C   UNL d   1      58.897  -7.294  28.455  0.00  0.00     0.001 A 
ENDBRANCH   4  20
TORSDOF 4
ENDMDL
