MODEL 1
REMARK VINA RESULT:      26.3      0.000      0.000
REMARK  6 active torsions:
REMARK  status: ('A' for Active; 'I' for Inactive)
REMARK    1  A    between atoms: C_6  and  C_1 
REMARK    2  A    between atoms: N_7  and  C_2 
REMARK    3  A    between atoms: C_8  and  N_5 
REMARK    4  A    between atoms: O_13  and  C_6 
REMARK    5  A    between atoms: C_18  and  O_13 
REMARK    6  A    between atoms: O_17  and  C_14 
ROOT
ATOM      1  C   UNL d   1      14.545  13.142  -1.038  0.00  0.00     0.112 A 
ATOM      2  C   UNL d   1      13.565  12.326  -1.463  0.00  0.00     0.172 A 
ATOM      3  C   UNL d   1      14.498  13.197  -1.860  0.00  0.00     0.077 A 
ATOM      4  S   UNL d   1      13.968  12.604  -0.790  0.00  0.00    -0.044 SA
ATOM      5  N   UNL d   1      13.893  12.692  -2.122  0.00  0.00    -0.287 N 
ATOM      6  C   UNL d   1      14.981  13.678  -2.336  0.00  0.00     0.020 C 
ENDROOT
BRANCH   5   7
ATOM      7  C   UNL d   1      13.637  12.556  -2.895  0.00  0.00     0.066 A 
ATOM      8  C   UNL d   1      13.075  13.056  -3.233  0.00  0.00     0.020 A 
ATOM      9  C   UNL d   1      12.822  12.918  -4.004  0.00  0.00     0.026 A 
ATOM     10  C   UNL d   1      13.126  12.288  -4.434  0.00  0.00     0.094 A 
ATOM     11  C   UNL d   1      13.688  11.790  -4.092  0.00  0.00     0.026 A 
ATOM     12  C   UNL d   1      13.941  11.929  -3.320  0.00  0.00     0.020 A 
BRANCH  10  13
ATOM     13  O   UNL d   1      12.870  12.149  -5.213  0.00  0.00    -0.328 OA
ATOM     14  C   UNL d   1      12.976  12.730  -5.790  0.00  0.00     0.181 C 
ENDBRANCH  10  13
ENDBRANCH   5   7
BRANCH   2  15
ATOM     15  N   UNL d   1      12.946  11.780  -1.464  0.00  0.00    -0.277 NA
ATOM     16  H   UNL d   1      12.772  11.356  -2.149  0.00  0.00     0.189 HD
ENDBRANCH   2  15
BRANCH   1  17
ATOM     17  C   UNL d   1      15.072  13.552  -0.551  0.00  0.00     0.308 C 
ATOM     18  O   UNL d   1      15.713  13.163  -0.221  0.00  0.00    -0.258 OA
BRANCH  17  19
ATOM     19  O   UNL d   1      14.950  14.358  -0.396  0.00  0.00    -0.271 OA
BRANCH  19  20
ATOM     20  C   UNL d   1      15.581  14.886  -0.403  0.00  0.00     0.126 C 
ATOM     21  C   UNL d   1      15.443  15.700  -0.384  0.00  0.00     0.029 C 
ENDBRANCH  19  20
ENDBRANCH  17  19
ENDBRANCH   1  17
TORSDOF 6
ENDMDL
MODEL 2
REMARK VINA RESULT:      26.4      0.956      1.219
REMARK  6 active torsions:
REMARK  status: ('A' for Active; 'I' for Inactive)
REMARK    1  A    between atoms: C_6  and  C_1 
REMARK    2  A    between atoms: N_7  and  C_2 
REMARK    3  A    between atoms: C_8  and  N_5 
REMARK    4  A    between atoms: O_13  and  C_6 
REMARK    5  A    between atoms: C_18  and  O_13 
REMARK    6  A    between atoms: O_17  and  C_14 
ROOT
ATOM      1  C   UNL d   1      15.233  13.811  -0.644  0.00  0.00     0.112 A 
ATOM      2  C   UNL d   1      14.741  12.570  -0.801  0.00  0.00     0.172 A 
ATOM      3  C   UNL d   1      14.850  13.772  -1.374  0.00  0.00     0.077 A 
ATOM      4  S   UNL d   1      15.167  13.068  -0.288  0.00  0.00    -0.044 SA
ATOM      5  N   UNL d   1      14.546  13.006  -1.470  0.00  0.00    -0.287 N 
ATOM      6  C   UNL d   1      14.784  14.401  -1.914  0.00  0.00     0.020 C 
ENDROOT
BRANCH   5   7
ATOM      7  C   UNL d   1      14.119  12.699  -2.107  0.00  0.00     0.066 A 
ATOM      8  C   UNL d   1      14.343  12.891  -2.877  0.00  0.00     0.020 A 
ATOM      9  C   UNL d   1      13.916  12.583  -3.511  0.00  0.00     0.026 A 
ATOM     10  C   UNL d   1      13.275  12.090  -3.378  0.00  0.00     0.094 A 
ATOM     11  C   UNL d   1      13.054  11.900  -2.606  0.00  0.00     0.026 A 
ATOM     12  C   UNL d   1      13.481  12.208  -1.972  0.00  0.00     0.020 A 
BRANCH  10  13
ATOM     13  O   UNL d   1      12.844  11.779  -4.019  0.00  0.00    -0.328 OA
ATOM     14  C   UNL d   1      12.912  12.125  -4.765  0.00  0.00     0.181 C 
ENDBRANCH  10  13
ENDBRANCH   5   7
BRANCH   2  15
ATOM     15  N   UNL d   1      14.550  11.779  -0.659  0.00  0.00    -0.277 NA
ATOM     16  H   UNL d   1      13.762  11.539  -0.662  0.00  0.00     0.189 HD
ENDBRANCH   2  15
BRANCH   1  17
ATOM     17  C   UNL d   1      15.614  14.472  -0.327  0.00  0.00     0.308 C 
ATOM     18  O   UNL d   1      16.423  14.460  -0.202  0.00  0.00    -0.258 OA
BRANCH  17  19
ATOM     19  O   UNL d   1      15.174  15.150  -0.137  0.00  0.00    -0.271 OA
BRANCH  19  20
ATOM     20  C   UNL d   1      15.413  15.892  -0.399  0.00  0.00     0.126 C 
ATOM     21  C   UNL d   1      15.010  16.570  -0.156  0.00  0.00     0.029 C 
ENDBRANCH  19  20
ENDBRANCH  17  19
ENDBRANCH   1  17
TORSDOF 6
ENDMDL
