MODEL 1
REMARK VINA RESULT:      54.0      0.000      0.000
REMARK  9 active torsions:
REMARK  status: ('A' for Active; 'I' for Inactive)
REMARK    1  A    between atoms: C_5  and  C_1 
REMARK    2  A    between atoms: N_11  and  C_2 
REMARK    3  A    between atoms: C_6  and  C_5 
REMARK    4  A    between atoms: C_7  and  C_5 
REMARK       I    between atoms: N_13  and  C_6 
REMARK    5  A    between atoms: C_16  and  N_11 
REMARK    6  A    between atoms: C_17  and  N_11 
REMARK    7  A    between atoms: C_14  and  N_13 
REMARK    8  A    between atoms: C_20  and  C_14 
REMARK    9  A    between atoms: C_15  and  C_20 
ROOT
ATOM      1  C   UNL d   1      14.029  13.566  -2.782  0.00  0.00     0.117 A 
ATOM      2  C   UNL d   1      13.760  12.806  -2.956  0.00  0.00     0.145 A 
ATOM      3  N   UNL d   1      14.348  13.731  -2.041  0.00  0.00    -0.241 NA
ATOM      4  N   UNL d   1      13.809  12.210  -2.389  0.00  0.00    -0.230 NA
ATOM      5  C   UNL d   1      14.128  12.376  -1.648  0.00  0.00     0.100 A 
ATOM      6  C   UNL d   1      14.397  13.137  -1.474  0.00  0.00     0.099 A 
ATOM      7  C   UNL d   1      14.178  11.781  -1.081  0.00  0.00     0.021 A 
ATOM      8  C   UNL d   1      14.716  13.301  -0.733  0.00  0.00     0.021 A 
ATOM      9  C   UNL d   1      14.497  11.946  -0.337  0.00  0.00     0.002 A 
ATOM     10  C   UNL d   1      14.767  12.706  -0.163  0.00  0.00     0.002 A 
ENDROOT
BRANCH   1  11
ATOM     11  C   UNL d   1      13.910  14.041  -3.450  0.00  0.00     0.099 C 
BRANCH  11  12
ATOM     12  C   UNL d   1      14.401  14.572  -3.850  0.00  0.00     0.282 C 
ATOM     13  O   UNL d   1      15.011  14.289  -4.352  0.00  0.00    -0.265 OA
ATOM     14  N   UNL d   1      14.291  15.388  -3.755  0.00  0.00    -0.206 NA
BRANCH  14  15
ATOM     15  C   UNL d   1      14.787  15.930  -4.158  0.00  0.00     0.102 C 
BRANCH  15  16
ATOM     16  C   UNL d   1      15.068  16.659  -3.914  0.00  0.00     0.021 C 
BRANCH  16  17
ATOM     17  C   UNL d   1      15.017  17.315  -4.407  0.00  0.00     0.002 A 
ATOM     18  C   UNL d   1      15.453  17.325  -5.107  0.00  0.00     0.000 A 
ATOM     19  C   UNL d   1      15.409  17.974  -5.605  0.00  0.00     0.000 A 
ATOM     20  C   UNL d   1      14.927  18.617  -5.405  0.00  0.00     0.000 A 
ATOM     21  C   UNL d   1      14.493  18.599  -4.702  0.00  0.00     0.000 A 
ATOM     22  C   UNL d   1      14.542  17.947  -4.208  0.00  0.00     0.000 A 
ENDBRANCH  16  17
ENDBRANCH  15  16
ENDBRANCH  14  15
ENDBRANCH  11  12
BRANCH  11  23
ATOM     23  C   UNL d   1      13.164  13.997  -3.809  0.00  0.00     0.129 C 
ATOM     24  N   UNL d   1      12.773  14.431  -4.391  0.00  0.00    -0.146 N 
ENDBRANCH  11  23
ENDBRANCH   1  11
BRANCH   2  25
ATOM     25  N   UNL d   1      13.473  12.808  -3.732  0.00  0.00    -0.192 NA
BRANCH  25  26
ATOM     26  C   UNL d   1      12.879  12.300  -3.992  0.00  0.00     0.057 C 
ATOM     27  C   UNL d   1      13.509  11.870  -4.782  0.00  0.00     0.014 C 
ENDBRANCH  25  26
BRANCH  25  28
ATOM     28  C   UNL d   1      13.134  12.671  -4.284  0.00  0.00     0.057 C 
ATOM     29  C   UNL d   1      12.816  11.790  -4.702  0.00  0.00     0.014 C 
ENDBRANCH  25  28
ENDBRANCH   2  25
TORSDOF 9
ENDMDL
