MODEL 1
REMARK VINA RESULT:      -3.9      0.000      0.000
REMARK  5 active torsions:
REMARK  status: ('A' for Active; 'I' for Inactive)
REMARK    1  A    between atoms: N_4  and  C_2 
REMARK    2  A    between atoms: S_8  and  C_3 
REMARK    3  A    between atoms: C_11  and  S_8 
REMARK    4  A    between atoms: C_9  and  C_11 
REMARK    5  A    between atoms: C_10  and  C_9 
ROOT
ATOM      1  N   UNL d   1      32.597  18.155 -22.934  0.00  0.00    -0.203 NA
ATOM      2  C   UNL d   1      32.443  17.757 -23.638  0.00  0.00     0.152 A 
ATOM      3  C   UNL d   1      32.964  18.903 -22.948  0.00  0.00     0.196 A 
ATOM      4  C   UNL d   1      32.656  18.107 -24.357  0.00  0.00     0.057 A 
ATOM      5  N   UNL d   1      33.173  19.246 -23.668  0.00  0.00    -0.221 NA
ATOM      6  C   UNL d   1      33.019  18.847 -24.371  0.00  0.00     0.087 A 
ATOM      7  C   UNL d   1      33.229  19.190 -25.094  0.00  0.00     0.021 C 
ENDROOT
BRANCH   3   8
ATOM      8  S   UNL d   1      33.117  19.301 -22.236  0.00  0.00    -0.045 SA
BRANCH   8   9
ATOM      9  C   UNL d   1      32.940  20.107 -22.172  0.00  0.00     0.080 C 
BRANCH   9  10
ATOM     10  C   UNL d   1      32.947  20.470 -21.431  0.00  0.00     0.202 C 
ATOM     11  O   UNL d   1      33.221  20.053 -20.774  0.00  0.00    -0.286 OA
BRANCH  10  12
ATOM     12  C   UNL d   1      32.679  21.245 -21.355  0.00  0.00     0.040 A 
ATOM     13  C   UNL d   1      32.888  21.804 -21.929  0.00  0.00     0.004 A 
ATOM     14  C   UNL d   1      32.622  22.582 -21.858  0.00  0.00     0.011 A 
ATOM     15  C   UNL d   1      32.152  22.794 -21.215  0.00  0.00     0.058 A 
ATOM     16  C   UNL d   1      31.946  22.234 -20.645  0.00  0.00     0.011 A 
ATOM     17 CL   UNL d   1      31.884  23.573 -21.140  0.00  0.00    -0.082 Cl
ATOM     18  C   UNL d   1      32.213  21.459 -20.720  0.00  0.00     0.004 A 
ENDBRANCH  10  12
ENDBRANCH   9  10
ENDBRANCH   8   9
ENDBRANCH   3   8
BRANCH   2  19
ATOM     19  N   UNL d   1      32.080  17.016 -23.628  0.00  0.00    -0.285 N 
ATOM     20  C   UNL d   1      31.263  16.963 -23.592  0.00  0.00     0.108 A 
ATOM     21  C   UNL d   1      30.903  16.220 -23.582  0.00  0.00     0.142 A 
ATOM     22  O   UNL d   1      31.368  15.537 -23.607  0.00  0.00    -0.300 OA
ATOM     23  C   UNL d   1      32.189  15.597 -23.642  0.00  0.00     0.142 A 
ATOM     24  C   UNL d   1      32.545  16.332 -23.653  0.00  0.00     0.108 A 
ENDBRANCH   2  19
TORSDOF 5
ENDMDL
MODEL 2
REMARK VINA RESULT:      -2.9      2.339      5.344
REMARK  5 active torsions:
REMARK  status: ('A' for Active; 'I' for Inactive)
REMARK    1  A    between atoms: N_4  and  C_2 
REMARK    2  A    between atoms: S_8  and  C_3 
REMARK    3  A    between atoms: C_11  and  S_8 
REMARK    4  A    between atoms: C_9  and  C_11 
REMARK    5  A    between atoms: C_10  and  C_9 
ROOT
ATOM      1  N   UNL d   1      33.008  20.796 -22.469  0.00  0.00    -0.203 NA
ATOM      2  C   UNL d   1      32.940  21.292 -21.814  0.00  0.00     0.152 A 
ATOM      3  C   UNL d   1      33.153  19.983 -22.363  0.00  0.00     0.196 A 
ATOM      4  C   UNL d   1      33.018  20.974 -21.055  0.00  0.00     0.057 A 
ATOM      5  N   UNL d   1      33.229  19.672 -21.603  0.00  0.00    -0.221 NA
ATOM      6  C   UNL d   1      33.162  20.168 -20.950  0.00  0.00     0.087 A 
ATOM      7  C   UNL d   1      33.238  19.859 -20.186  0.00  0.00     0.021 C 
ENDROOT
BRANCH   3   8
ATOM      8  S   UNL d   1      33.221  19.486 -23.025  0.00  0.00    -0.045 SA
BRANCH   8   9
ATOM      9  C   UNL d   1      32.673  18.876 -23.136  0.00  0.00     0.080 C 
BRANCH   9  10
ATOM     10  C   UNL d   1      32.666  18.455 -23.845  0.00  0.00     0.202 C 
ATOM     11  O   UNL d   1      33.110  18.727 -24.485  0.00  0.00    -0.286 OA
BRANCH  10  12
ATOM     12  C   UNL d   1      32.216  17.768 -23.907  0.00  0.00     0.040 A 
ATOM     13  C   UNL d   1      31.539  17.769 -24.383  0.00  0.00     0.004 A 
ATOM     14  C   UNL d   1      31.084  17.084 -24.448  0.00  0.00     0.011 A 
ATOM     15  C   UNL d   1      31.311  16.405 -24.038  0.00  0.00     0.058 A 
ATOM     16  C   UNL d   1      31.987  16.408 -23.565  0.00  0.00     0.011 A 
ATOM     17 CL   UNL d   1      30.858  15.716 -24.101  0.00  0.00    -0.082 Cl
ATOM     18  C   UNL d   1      32.437  17.095 -23.503  0.00  0.00     0.004 A 
ENDBRANCH  10  12
ENDBRANCH   9  10
ENDBRANCH   8   9
ENDBRANCH   3   8
BRANCH   2  19
ATOM     19  N   UNL d   1      32.796  22.098 -21.915  0.00  0.00    -0.285 N 
ATOM     20  C   UNL d   1      33.168  22.506 -22.522  0.00  0.00     0.108 A 
ATOM     21  C   UNL d   1      33.021  23.312 -22.620  0.00  0.00     0.142 A 
ATOM     22  O   UNL d   1      32.503  23.702 -22.107  0.00  0.00    -0.300 OA
ATOM     23  C   UNL d   1      32.133  23.287 -21.499  0.00  0.00     0.142 A 
ATOM     24  C   UNL d   1      32.278  22.488 -21.402  0.00  0.00     0.108 A 
ENDBRANCH   2  19
TORSDOF 5
ENDMDL
MODEL 3
REMARK VINA RESULT:      -2.6      2.193      5.050
REMARK  5 active torsions:
REMARK  status: ('A' for Active; 'I' for Inactive)
REMARK    1  A    between atoms: N_4  and  C_2 
REMARK    2  A    between atoms: S_8  and  C_3 
REMARK    3  A    between atoms: C_11  and  S_8 
REMARK    4  A    between atoms: C_9  and  C_11 
REMARK    5  A    between atoms: C_10  and  C_9 
ROOT
ATOM      1  N   UNL d   1      32.905  19.722 -22.131  0.00  0.00    -0.203 NA
ATOM      2  C   UNL d   1      32.900  20.546 -22.112  0.00  0.00     0.152 A 
ATOM      3  C   UNL d   1      33.022  19.322 -22.852  0.00  0.00     0.196 A 
ATOM      4  C   UNL d   1      33.013  20.968 -22.814  0.00  0.00     0.057 A 
ATOM      5  N   UNL d   1      33.134  19.749 -23.548  0.00  0.00    -0.221 NA
ATOM      6  C   UNL d   1      33.129  20.572 -23.528  0.00  0.00     0.087 A 
ATOM      7  C   UNL d   1      33.240  21.002 -24.226  0.00  0.00     0.021 C 
ENDROOT
BRANCH   3   8
ATOM      8  S   UNL d   1      33.027  18.491 -22.867  0.00  0.00    -0.045 SA
BRANCH   8   9
ATOM      9  C   UNL d   1      32.420  18.087 -23.257  0.00  0.00     0.080 C 
BRANCH   9  10
ATOM     10  C   UNL d   1      32.437  17.263 -23.298  0.00  0.00     0.202 C 
ATOM     11  O   UNL d   1      33.106  16.856 -23.038  0.00  0.00    -0.286 OA
BRANCH  10  12
ATOM     12  C   UNL d   1      31.787  16.856 -23.599  0.00  0.00     0.040 A 
ATOM     13  C   UNL d   1      31.640  16.083 -23.344  0.00  0.00     0.004 A 
ATOM     14  C   UNL d   1      30.990  15.671 -23.643  0.00  0.00     0.011 A 
ATOM     15  C   UNL d   1      30.494  16.037 -24.192  0.00  0.00     0.058 A 
ATOM     16  C   UNL d   1      30.645  16.808 -24.443  0.00  0.00     0.011 A 
ATOM     17 CL   UNL d   1      29.842  15.627 -24.493  0.00  0.00    -0.082 Cl
ATOM     18  C   UNL d   1      31.295  17.215 -24.142  0.00  0.00     0.004 A 
ENDBRANCH  10  12
ENDBRANCH   9  10
ENDBRANCH   8   9
ENDBRANCH   3   8
BRANCH   2  19
ATOM     19  N   UNL d   1      32.784  20.946 -21.400  0.00  0.00    -0.285 N 
ATOM     20  C   UNL d   1      32.219  21.537 -21.352  0.00  0.00     0.108 A 
ATOM     21  C   UNL d   1      32.106  21.935 -20.638  0.00  0.00     0.142 A 
ATOM     22  O   UNL d   1      32.562  21.735 -19.978  0.00  0.00    -0.300 OA
ATOM     23  C   UNL d   1      33.129  21.140 -20.033  0.00  0.00     0.142 A 
ATOM     24  C   UNL d   1      33.241  20.746 -20.740  0.00  0.00     0.108 A 
ENDBRANCH   2  19
TORSDOF 5
ENDMDL
MODEL 4
REMARK VINA RESULT:      -2.4      2.290      5.205
REMARK  5 active torsions:
REMARK  status: ('A' for Active; 'I' for Inactive)
REMARK    1  A    between atoms: N_4  and  C_2 
REMARK    2  A    between atoms: S_8  and  C_3 
REMARK    3  A    between atoms: C_11  and  S_8 
REMARK    4  A    between atoms: C_9  and  C_11 
REMARK    5  A    between atoms: C_10  and  C_9 
ROOT
ATOM      1  N   UNL d   1      32.950  21.184 -21.528  0.00  0.00    -0.203 NA
ATOM      2  C   UNL d   1      32.852  22.002 -21.507  0.00  0.00     0.152 A 
ATOM      3  C   UNL d   1      33.143  20.805 -22.245  0.00  0.00     0.196 A 
ATOM      4  C   UNL d   1      32.947  22.440 -22.203  0.00  0.00     0.057 A 
ATOM      5  N   UNL d   1      33.235  21.248 -22.934  0.00  0.00    -0.221 NA
ATOM      6  C   UNL d   1      33.137  22.065 -22.912  0.00  0.00     0.087 A 
ATOM      7  C   UNL d   1      33.230  22.510 -23.603  0.00  0.00     0.021 C 
ENDROOT
BRANCH   3   8
ATOM      8  S   UNL d   1      33.241  19.981 -22.263  0.00  0.00    -0.045 SA
BRANCH   8   9
ATOM      9  C   UNL d   1      32.887  19.540 -22.867  0.00  0.00     0.080 C 
BRANCH   9  10
ATOM     10  C   UNL d   1      32.828  18.720 -22.795  0.00  0.00     0.202 C 
ATOM     11  O   UNL d   1      33.178  18.341 -22.152  0.00  0.00    -0.286 OA
BRANCH  10  12
ATOM     12  C   UNL d   1      32.421  18.290 -23.367  0.00  0.00     0.040 A 
ATOM     13  C   UNL d   1      32.498  18.501 -24.164  0.00  0.00     0.004 A 
ATOM     14  C   UNL d   1      32.092  18.073 -24.741  0.00  0.00     0.011 A 
ATOM     15  C   UNL d   1      31.614  17.439 -24.516  0.00  0.00     0.058 A 
ATOM     16  C   UNL d   1      31.540  17.232 -23.721  0.00  0.00     0.011 A 
ATOM     17 CL   UNL d   1      31.206  17.008 -25.092  0.00  0.00    -0.082 Cl
ATOM     18  C   UNL d   1      31.947  17.662 -23.149  0.00  0.00     0.004 A 
ENDBRANCH  10  12
ENDBRANCH   9  10
ENDBRANCH   8   9
ENDBRANCH   3   8
BRANCH   2  19
ATOM     19  N   UNL d   1      32.662  22.381 -20.799  0.00  0.00    -0.285 N 
ATOM     20  C   UNL d   1      31.935  22.751 -20.718  0.00  0.00     0.108 A 
ATOM     21  C   UNL d   1      31.748  23.129 -20.009  0.00  0.00     0.142 A 
ATOM     22  O   UNL d   1      32.294  23.131 -19.387  0.00  0.00    -0.300 OA
ATOM     23  C   UNL d   1      33.022  22.758 -19.475  0.00  0.00     0.142 A 
ATOM     24  C   UNL d   1      33.207  22.384 -20.178  0.00  0.00     0.108 A 
ENDBRANCH   2  19
TORSDOF 5
ENDMDL
MODEL 5
REMARK VINA RESULT:      -2.1      2.334      5.248
REMARK  5 active torsions:
REMARK  status: ('A' for Active; 'I' for Inactive)
REMARK    1  A    between atoms: N_4  and  C_2 
REMARK    2  A    between atoms: S_8  and  C_3 
REMARK    3  A    between atoms: C_11  and  S_8 
REMARK    4  A    between atoms: C_9  and  C_11 
REMARK    5  A    between atoms: C_10  and  C_9 
ROOT
ATOM      1  N   UNL d   1      33.008  20.531 -22.892  0.00  0.00    -0.203 NA
ATOM      2  C   UNL d   1      33.015  21.057 -22.257  0.00  0.00     0.152 A 
ATOM      3  C   UNL d   1      33.074  19.712 -22.755  0.00  0.00     0.196 A 
ATOM      4  C   UNL d   1      33.087  20.762 -21.488  0.00  0.00     0.057 A 
ATOM      5  N   UNL d   1      33.146  19.425 -21.986  0.00  0.00    -0.221 NA
ATOM      6  C   UNL d   1      33.152  19.951 -21.353  0.00  0.00     0.087 A 
ATOM      7  C   UNL d   1      33.224  19.665 -20.580  0.00  0.00     0.021 C 
ENDROOT
BRANCH   3   8
ATOM      8  S   UNL d   1      33.067  19.184 -23.398  0.00  0.00    -0.045 SA
BRANCH   8   9
ATOM      9  C   UNL d   1      32.348  18.873 -23.663  0.00  0.00     0.080 C 
BRANCH   9  10
ATOM     10  C   UNL d   1      32.336  18.367 -24.314  0.00  0.00     0.202 C 
ATOM     11  O   UNL d   1      32.985  18.342 -24.824  0.00  0.00    -0.286 OA
BRANCH  10  12
ATOM     12  C   UNL d   1      31.678  17.890 -24.447  0.00  0.00     0.040 A 
ATOM     13  C   UNL d   1      31.716  17.084 -24.264  0.00  0.00     0.004 A 
ATOM     14  C   UNL d   1      31.059  16.603 -24.396  0.00  0.00     0.011 A 
ATOM     15  C   UNL d   1      30.370  16.932 -24.710  0.00  0.00     0.058 A 
ATOM     16  C   UNL d   1      30.336  17.737 -24.891  0.00  0.00     0.011 A 
ATOM     17 CL   UNL d   1      29.710  16.453 -24.843  0.00  0.00    -0.082 Cl
ATOM     18  C   UNL d   1      30.995  18.213 -24.757  0.00  0.00     0.004 A 
ENDBRANCH  10  12
ENDBRANCH   9  10
ENDBRANCH   8   9
ENDBRANCH   3   8
BRANCH   2  19
ATOM     19  N   UNL d   1      32.950  21.869 -22.388  0.00  0.00    -0.285 N 
ATOM     20  C   UNL d   1      32.626  22.350 -21.810  0.00  0.00     0.108 A 
ATOM     21  C   UNL d   1      32.563  23.162 -21.944  0.00  0.00     0.142 A 
ATOM     22  O   UNL d   1      32.826  23.482 -22.659  0.00  0.00    -0.300 OA
ATOM     23  C   UNL d   1      33.151  22.993 -23.237  0.00  0.00     0.142 A 
ATOM     24  C   UNL d   1      33.213  22.189 -23.103  0.00  0.00     0.108 A 
ENDBRANCH   2  19
TORSDOF 5
ENDMDL
