MODEL 1
REMARK VINA RESULT:      -5.6      0.000      0.000
REMARK  1 active torsions:
REMARK  status: ('A' for Active; 'I' for Inactive)
REMARK    1  A    between atoms: C_2  and  CA_3 
ROOT
ATOM      1  N   UNL d   1     -47.671  12.933  22.901  0.00  0.00    -0.237 NA
ATOM      2  CA  UNL d   1     -47.172  12.466  23.345  0.00  0.00     0.145 A 
ATOM      3  C   UNL d   1     -47.458  11.767  23.697  0.00  0.00     0.026 A 
ATOM      4  C   UNL d   1     -48.455  12.717  22.799  0.00  0.00     0.106 A 
ATOM      5  C   UNL d   1     -48.741  12.018  23.151  0.00  0.00     0.054 A 
ATOM      6  C   UNL d   1     -48.236  11.555  23.595  0.00  0.00     0.010 A 
ATOM      7 BR   UNL d   1     -49.529  11.808  23.045  0.00  0.00    -0.048 Br
ENDROOT
BRANCH   2   8
ATOM      8  C   UNL d   1     -46.382  12.681  23.449  0.00  0.00     0.229 C 
ATOM      9  O   UNL d   1     -45.776  12.137  23.318  0.00  0.00    -0.643 OA
ATOM     10  OXT UNL d   1     -46.186  13.444  23.686  0.00  0.00    -0.643 OA
ENDBRANCH   2   8
TORSDOF 1
ENDMDL
MODEL 2
REMARK VINA RESULT:      -5.6      1.639      2.051
REMARK  1 active torsions:
REMARK  status: ('A' for Active; 'I' for Inactive)
REMARK    1  A    between atoms: C_2  and  CA_3 
ROOT
ATOM      1  N   UNL d   1     -47.620  13.241  23.090  0.00  0.00    -0.237 NA
ATOM      2  CA  UNL d   1     -46.900  13.610  22.983  0.00  0.00     0.145 A 
ATOM      3  C   UNL d   1     -46.872  14.412  22.762  0.00  0.00     0.026 A 
ATOM      4  C   UNL d   1     -48.317  13.659  22.979  0.00  0.00     0.106 A 
ATOM      5  C   UNL d   1     -48.288  14.462  22.758  0.00  0.00     0.054 A 
ATOM      6  C   UNL d   1     -47.563  14.824  22.653  0.00  0.00     0.010 A 
ATOM      7 BR   UNL d   1     -48.990  14.874  22.649  0.00  0.00    -0.048 Br
ENDROOT
BRANCH   2   8
ATOM      8  C   UNL d   1     -46.198  13.191  23.094  0.00  0.00     0.229 C 
ATOM      9  O   UNL d   1     -45.549  13.321  22.602  0.00  0.00    -0.643 OA
ATOM     10  OXT UNL d   1     -46.134  12.637  23.698  0.00  0.00    -0.643 OA
ENDBRANCH   2   8
TORSDOF 1
ENDMDL
MODEL 3
REMARK VINA RESULT:      -5.4      1.965      2.341
REMARK  1 active torsions:
REMARK  status: ('A' for Active; 'I' for Inactive)
REMARK    1  A    between atoms: C_2  and  CA_3 
ROOT
ATOM      1  N   UNL d   1     -48.072  12.774  22.531  0.00  0.00    -0.237 NA
ATOM      2  CA  UNL d   1     -47.869  12.117  22.969  0.00  0.00     0.145 A 
ATOM      3  C   UNL d   1     -47.156  12.105  23.399  0.00  0.00     0.026 A 
ATOM      4  C   UNL d   1     -47.574  13.425  22.513  0.00  0.00     0.106 A 
ATOM      5  C   UNL d   1     -46.860  13.414  22.942  0.00  0.00     0.054 A 
ATOM      6  C   UNL d   1     -46.664  12.752  23.379  0.00  0.00     0.010 A 
ATOM      7 BR   UNL d   1     -46.366  14.070  22.918  0.00  0.00    -0.048 Br
ENDROOT
BRANCH   2   8
ATOM      8  C   UNL d   1     -48.368  11.460  22.990  0.00  0.00     0.229 C 
ATOM      9  O   UNL d   1     -48.756  11.203  22.309  0.00  0.00    -0.643 OA
ATOM     10  OXT UNL d   1     -48.488  11.050  23.693  0.00  0.00    -0.643 OA
ENDBRANCH   2   8
TORSDOF 1
ENDMDL
MODEL 4
REMARK VINA RESULT:      -5.0      2.877      3.548
REMARK  1 active torsions:
REMARK  status: ('A' for Active; 'I' for Inactive)
REMARK    1  A    between atoms: C_2  and  CA_3 
ROOT
ATOM      1  N   UNL d   1     -49.092  14.163  23.190  0.00  0.00    -0.237 NA
ATOM      2  CA  UNL d   1     -49.062  14.929  22.913  0.00  0.00     0.145 A 
ATOM      3  C   UNL d   1     -48.365  15.219  22.561  0.00  0.00     0.026 A 
ATOM      4  C   UNL d   1     -48.436  13.676  23.123  0.00  0.00     0.106 A 
ATOM      5  C   UNL d   1     -47.738  13.965  22.772  0.00  0.00     0.054 A 
ATOM      6  C   UNL d   1     -47.716  14.734  22.497  0.00  0.00     0.010 A 
ATOM      7 BR   UNL d   1     -47.085  13.471  22.709  0.00  0.00    -0.048 Br
ENDROOT
BRANCH   2   8
ATOM      8  C   UNL d   1     -49.721  15.422  22.978  0.00  0.00     0.229 C 
ATOM      9  O   UNL d   1     -49.838  15.881  23.654  0.00  0.00    -0.643 OA
ATOM     10  OXT UNL d   1     -50.272  15.462  22.370  0.00  0.00    -0.643 OA
ENDBRANCH   2   8
TORSDOF 1
ENDMDL
MODEL 5
REMARK VINA RESULT:      -4.8      2.073      2.499
REMARK  1 active torsions:
REMARK  status: ('A' for Active; 'I' for Inactive)
REMARK    1  A    between atoms: C_2  and  CA_3 
ROOT
ATOM      1  N   UNL d   1     -48.084  12.874  22.907  0.00  0.00    -0.237 NA
ATOM      2  CA  UNL d   1     -48.782  12.451  22.899  0.00  0.00     0.145 A 
ATOM      3  C   UNL d   1     -49.510  12.850  22.832  0.00  0.00     0.026 A 
ATOM      4  C   UNL d   1     -48.098  13.691  22.850  0.00  0.00     0.106 A 
ATOM      5  C   UNL d   1     -48.826  14.090  22.783  0.00  0.00     0.054 A 
ATOM      6  C   UNL d   1     -49.520  13.661  22.776  0.00  0.00     0.010 A 
ATOM      7 BR   UNL d   1     -48.831  14.910  22.726  0.00  0.00    -0.048 Br
ENDROOT
BRANCH   2   8
ATOM      8  C   UNL d   1     -48.771  11.629  22.956  0.00  0.00     0.229 C 
ATOM      9  O   UNL d   1     -48.925  11.254  23.675  0.00  0.00    -0.643 OA
ATOM     10  OXT UNL d   1     -48.607  11.167  22.295  0.00  0.00    -0.643 OA
ENDBRANCH   2   8
TORSDOF 1
ENDMDL
MODEL 6
REMARK VINA RESULT:      -4.7      1.869      2.358
REMARK  1 active torsions:
REMARK  status: ('A' for Active; 'I' for Inactive)
REMARK    1  A    between atoms: C_2  and  CA_3 
ROOT
ATOM      1  N   UNL d   1     -49.397  12.819  23.324  0.00  0.00    -0.237 NA
ATOM      2  CA  UNL d   1     -49.088  12.192  22.904  0.00  0.00     0.145 A 
ATOM      3  C   UNL d   1     -49.335  12.053  22.121  0.00  0.00     0.026 A 
ATOM      4  C   UNL d   1     -49.952  13.314  22.977  0.00  0.00     0.106 A 
ATOM      5  C   UNL d   1     -50.198  13.174  22.193  0.00  0.00     0.054 A 
ATOM      6  C   UNL d   1     -49.884  12.544  21.779  0.00  0.00     0.010 A 
ATOM      7 BR   UNL d   1     -50.754  13.674  21.852  0.00  0.00    -0.048 Br
ENDROOT
BRANCH   2   8
ATOM      8  C   UNL d   1     -48.530  11.693  23.251  0.00  0.00     0.229 C 
ATOM      9  O   UNL d   1     -47.723  11.833  23.156  0.00  0.00    -0.643 OA
ATOM     10  OXT UNL d   1     -48.771  11.047  23.698  0.00  0.00    -0.643 OA
ENDBRANCH   2   8
TORSDOF 1
ENDMDL
MODEL 7
REMARK VINA RESULT:      -4.4      9.589     10.041
REMARK  1 active torsions:
REMARK  status: ('A' for Active; 'I' for Inactive)
REMARK    1  A    between atoms: C_2  and  CA_3 
ROOT
ATOM      1  N   UNL d   1     -40.424  14.176  17.941  0.00  0.00    -0.237 NA
ATOM      2  CA  UNL d   1     -40.376  14.747  17.360  0.00  0.00     0.145 A 
ATOM      3  C   UNL d   1     -39.710  14.778  16.860  0.00  0.00     0.026 A 
ATOM      4  C   UNL d   1     -39.817  13.633  18.035  0.00  0.00     0.106 A 
ATOM      5  C   UNL d   1     -39.151  13.665  17.535  0.00  0.00     0.054 A 
ATOM      6  C   UNL d   1     -39.110  14.239  16.955  0.00  0.00     0.010 A 
ATOM      7 BR   UNL d   1     -38.547  13.116  17.635  0.00  0.00    -0.048 Br
ENDROOT
BRANCH   2   8
ATOM      8  C   UNL d   1     -40.985  15.295  17.263  0.00  0.00     0.229 C 
ATOM      9  O   UNL d   1     -41.075  15.922  17.791  0.00  0.00    -0.643 OA
ATOM     10  OXT UNL d   1     -41.513  15.224  16.637  0.00  0.00    -0.643 OA
ENDBRANCH   2   8
TORSDOF 1
ENDMDL
MODEL 8
REMARK VINA RESULT:      -4.4      1.802      2.143
REMARK  1 active torsions:
REMARK  status: ('A' for Active; 'I' for Inactive)
REMARK    1  A    between atoms: C_2  and  CA_3 
ROOT
ATOM      1  N   UNL d   1     -48.448  13.229  22.303  0.00  0.00    -0.237 NA
ATOM      2  CA  UNL d   1     -48.558  13.924  22.715  0.00  0.00     0.145 A 
ATOM      3  C   UNL d   1     -49.216  14.011  23.218  0.00  0.00     0.026 A 
ATOM      4  C   UNL d   1     -48.984  12.614  22.384  0.00  0.00     0.106 A 
ATOM      5  C   UNL d   1     -49.642  12.701  22.888  0.00  0.00     0.054 A 
ATOM      6  C   UNL d   1     -49.746  13.400  23.297  0.00  0.00     0.010 A 
ATOM      7 BR   UNL d   1     -50.175  12.080  22.963  0.00  0.00    -0.048 Br
ENDROOT
BRANCH   2   8
ATOM      8  C   UNL d   1     -48.021  14.545  22.636  0.00  0.00     0.229 C 
ATOM      9  O   UNL d   1     -47.232  14.450  22.859  0.00  0.00    -0.643 OA
ATOM     10  OXT UNL d   1     -48.263  15.269  22.332  0.00  0.00    -0.643 OA
ENDBRANCH   2   8
TORSDOF 1
ENDMDL
MODEL 9
REMARK VINA RESULT:      -4.3      8.836      9.223
REMARK  1 active torsions:
REMARK  status: ('A' for Active; 'I' for Inactive)
REMARK    1  A    between atoms: C_2  and  CA_3 
ROOT
ATOM      1  N   UNL d   1     -40.637  15.780  18.353  0.00  0.00    -0.237 NA
ATOM      2  CA  UNL d   1     -40.634  15.135  17.854  0.00  0.00     0.145 A 
ATOM      3  C   UNL d   1     -40.554  14.367  18.167  0.00  0.00     0.026 A 
ATOM      4  C   UNL d   1     -40.561  15.675  19.162  0.00  0.00     0.106 A 
ATOM      5  C   UNL d   1     -40.481  14.907  19.475  0.00  0.00     0.054 A 
ATOM      6  C   UNL d   1     -40.479  14.265  18.969  0.00  0.00     0.010 A 
ATOM      7 BR   UNL d   1     -40.406  14.810  20.287  0.00  0.00    -0.048 Br
ENDROOT
BRANCH   2   8
ATOM      8  C   UNL d   1     -40.710  15.238  17.039  0.00  0.00     0.229 C 
ATOM      9  O   UNL d   1     -41.454  15.252  16.683  0.00  0.00    -0.643 OA
ATOM     10  OXT UNL d   1     -40.043  15.328  16.567  0.00  0.00    -0.643 OA
ENDBRANCH   2   8
TORSDOF 1
ENDMDL
