MODEL 1
REMARK VINA RESULT:       4.3      0.000      0.000
REMARK  4 active torsions:
REMARK  status: ('A' for Active; 'I' for Inactive)
REMARK    1  A    between atoms: C_4  and  N_1 
REMARK    2  A    between atoms: C_8  and  C_2 
REMARK    3  A    between atoms: C_17  and  C_6 
REMARK    4  A    between atoms: C_7  and  C_8 
ROOT
ATOM      1  N   UNL d   1      30.963  17.949 -24.365  0.00  0.00    -0.255 N 
ATOM      2  C   UNL d   1      30.195  16.861 -24.384  0.00  0.00     0.101 A 
ATOM      3  C   UNL d   1      30.252  18.144 -24.754  0.00  0.00     0.305 A 
ATOM      4  C   UNL d   1      29.779  17.474 -24.766  0.00  0.00     0.256 A 
ATOM      5  C   UNL d   1      30.918  17.165 -24.144  0.00  0.00     0.075 A 
ATOM      6  O   UNL d   1      30.057  18.880 -25.072  0.00  0.00    -0.263 OA
ATOM      7  O   UNL d   1      29.025  17.419 -25.097  0.00  0.00    -0.281 OA
ENDROOT
BRANCH   2   8
ATOM      8  C   UNL d   1      29.925  16.089 -24.270  0.00  0.00     0.223 C 
ATOM      9  O   UNL d   1      30.341  15.456 -24.574  0.00  0.00    -0.284 OA
BRANCH   8  10
ATOM     10  C   UNL d   1      29.229  15.954 -23.846  0.00  0.00     0.139 A 
ATOM     11  O   UNL d   1      29.173  15.852 -23.028  0.00  0.00    -0.304 OA
ATOM     12  C   UNL d   1      28.381  15.734 -22.847  0.00  0.00     0.100 A 
ATOM     13  C   UNL d   1      27.995  15.603 -22.129  0.00  0.00     0.025 A 
ATOM     14  C   UNL d   1      27.944  15.760 -23.541  0.00  0.00     0.025 A 
ATOM     15  C   UNL d   1      27.189  15.501 -22.109  0.00  0.00     0.002 A 
ATOM     16  C   UNL d   1      26.751  15.528 -22.813  0.00  0.00     0.000 A 
ATOM     17  C   UNL d   1      27.130  15.658 -23.523  0.00  0.00     0.002 A 
ATOM     18  C   UNL d   1      28.468  15.897 -24.160  0.00  0.00     0.030 A 
ENDBRANCH   8  10
ENDBRANCH   2   8
BRANCH   5  19
ATOM     19  C   UNL d   1      31.502  16.734 -23.740  0.00  0.00     0.017 A 
ATOM     20  C   UNL d   1      32.106  16.366 -24.161  0.00  0.00     0.001 A 
ATOM     21  C   UNL d   1      32.687  15.939 -23.760  0.00  0.00     0.000 A 
ATOM     22  C   UNL d   1      32.659  15.882 -22.937  0.00  0.00     0.000 A 
ATOM     23  C   UNL d   1      32.050  16.254 -22.514  0.00  0.00     0.000 A 
ATOM     24  C   UNL d   1      33.241  15.454 -22.531  0.00  0.00     0.000 C 
ATOM     25  C   UNL d   1      31.469  16.682 -22.925  0.00  0.00     0.001 A 
ENDBRANCH   5  19
BRANCH   1  26
ATOM     26  C   UNL d   1      31.600  18.463 -24.230  0.00  0.00     0.179 A 
ATOM     27  N   UNL d   1      31.857  18.719 -23.497  0.00  0.00    -0.108 NA
ATOM     28  O   UNL d   1      32.504  19.223 -23.620  0.00  0.00    -0.210 OA
ATOM     29  C   UNL d   1      32.639  19.273 -24.428  0.00  0.00     0.128 A 
ATOM     30  C   UNL d   1      32.073  18.797 -24.816  0.00  0.00     0.067 A 
ATOM     31  C   UNL d   1      33.226  19.711 -24.806  0.00  0.00     0.029 C 
ENDBRANCH   1  26
TORSDOF 4
ENDMDL
MODEL 2
REMARK VINA RESULT:       5.9      2.944      5.451
REMARK  4 active torsions:
REMARK  status: ('A' for Active; 'I' for Inactive)
REMARK    1  A    between atoms: C_4  and  N_1 
REMARK    2  A    between atoms: C_8  and  C_2 
REMARK    3  A    between atoms: C_17  and  C_6 
REMARK    4  A    between atoms: C_7  and  C_8 
ROOT
ATOM      1  N   UNL d   1      32.553  21.119 -21.841  0.00  0.00    -0.255 N 
ATOM      2  C   UNL d   1      32.787  20.334 -22.891  0.00  0.00     0.101 A 
ATOM      3  C   UNL d   1      32.653  20.340 -21.560  0.00  0.00     0.305 A 
ATOM      4  C   UNL d   1      32.797  19.856 -22.207  0.00  0.00     0.256 A 
ATOM      5  C   UNL d   1      32.636  21.103 -22.653  0.00  0.00     0.075 A 
ATOM      6  O   UNL d   1      32.615  20.097 -20.773  0.00  0.00    -0.263 OA
ATOM      7  O   UNL d   1      32.929  19.042 -22.183  0.00  0.00    -0.281 OA
ENDROOT
BRANCH   2   8
ATOM      8  C   UNL d   1      32.907  20.073 -23.665  0.00  0.00     0.223 C 
ATOM      9  O   UNL d   1      33.218  20.577 -24.228  0.00  0.00    -0.284 OA
BRANCH   8  10
ATOM     10  C   UNL d   1      32.711  19.299 -23.875  0.00  0.00     0.139 A 
ATOM     11  O   UNL d   1      31.946  18.993 -23.938  0.00  0.00    -0.304 OA
ATOM     12  C   UNL d   1      32.012  18.204 -24.159  0.00  0.00     0.100 A 
ATOM     13  C   UNL d   1      31.442  17.625 -24.304  0.00  0.00     0.025 A 
ATOM     14  C   UNL d   1      32.807  18.016 -24.234  0.00  0.00     0.025 A 
ATOM     15  C   UNL d   1      31.666  16.874 -24.519  0.00  0.00     0.002 A 
ATOM     16  C   UNL d   1      32.471  16.688 -24.593  0.00  0.00     0.000 A 
ATOM     17  C   UNL d   1      33.035  17.258 -24.451  0.00  0.00     0.002 A 
ATOM     18  C   UNL d   1      33.241  18.693 -24.058  0.00  0.00     0.030 A 
ENDBRANCH   8  10
ENDBRANCH   2   8
BRANCH   5  19
ATOM     19  C   UNL d   1      32.580  21.755 -23.165  0.00  0.00     0.017 A 
ATOM     20  C   UNL d   1      31.865  21.929 -23.533  0.00  0.00     0.001 A 
ATOM     21  C   UNL d   1      31.809  22.576 -24.041  0.00  0.00     0.000 A 
ATOM     22  C   UNL d   1      32.473  23.047 -24.178  0.00  0.00     0.000 A 
ATOM     23  C   UNL d   1      33.193  22.871 -23.807  0.00  0.00     0.000 A 
ATOM     24  C   UNL d   1      32.421  23.699 -24.688  0.00  0.00     0.000 C 
ATOM     25  C   UNL d   1      33.241  22.218 -23.297  0.00  0.00     0.001 A 
ENDBRANCH   5  19
BRANCH   1  26
ATOM     26  C   UNL d   1      32.397  21.787 -21.375  0.00  0.00     0.179 A 
ATOM     27  N   UNL d   1      31.672  22.161 -21.307  0.00  0.00    -0.108 NA
ATOM     28  O   UNL d   1      31.768  22.800 -20.787  0.00  0.00    -0.210 OA
ATOM     29  C   UNL d   1      32.550  22.813 -20.539  0.00  0.00     0.128 A 
ATOM     30  C   UNL d   1      32.949  22.179 -20.906  0.00  0.00     0.067 A 
ATOM     31  C   UNL d   1      32.896  23.352 -20.020  0.00  0.00     0.029 C 
ENDBRANCH   1  26
TORSDOF 4
ENDMDL
MODEL 3
REMARK VINA RESULT:       6.2      1.269      4.546
REMARK  4 active torsions:
REMARK  status: ('A' for Active; 'I' for Inactive)
REMARK    1  A    between atoms: C_4  and  N_1 
REMARK    2  A    between atoms: C_8  and  C_2 
REMARK    3  A    between atoms: C_17  and  C_6 
REMARK    4  A    between atoms: C_7  and  C_8 
ROOT
ATOM      1  N   UNL d   1      30.605  17.849 -24.379  0.00  0.00    -0.255 N 
ATOM      2  C   UNL d   1      31.705  18.594 -24.488  0.00  0.00     0.101 A 
ATOM      3  C   UNL d   1      30.388  18.579 -24.720  0.00  0.00     0.305 A 
ATOM      4  C   UNL d   1      31.065  19.038 -24.787  0.00  0.00     0.256 A 
ATOM      5  C   UNL d   1      31.410  17.870 -24.242  0.00  0.00     0.075 A 
ATOM      6  O   UNL d   1      29.628  18.802 -24.951  0.00  0.00    -0.263 OA
ATOM      7  O   UNL d   1      31.104  19.802 -25.096  0.00  0.00    -0.281 OA
ENDROOT
BRANCH   2   8
ATOM      8  C   UNL d   1      32.491  18.844 -24.448  0.00  0.00     0.223 C 
ATOM      9  O   UNL d   1      33.098  18.326 -24.624  0.00  0.00    -0.284 OA
BRANCH   8  10
ATOM     10  C   UNL d   1      32.666  19.620 -24.230  0.00  0.00     0.139 A 
ATOM     11  O   UNL d   1      32.771  19.894 -23.457  0.00  0.00    -0.304 OA
ATOM     12  C   UNL d   1      32.936  20.698 -23.499  0.00  0.00     0.100 A 
ATOM     13  C   UNL d   1      33.089  21.258 -22.913  0.00  0.00     0.025 A 
ATOM     14  C   UNL d   1      32.936  20.926 -24.287  0.00  0.00     0.025 A 
ATOM     15  C   UNL d   1      33.239  22.031 -23.114  0.00  0.00     0.002 A 
ATOM     16  C   UNL d   1      33.238  22.258 -23.912  0.00  0.00     0.000 A 
ATOM     17  C   UNL d   1      33.087  21.707 -24.492  0.00  0.00     0.002 A 
ATOM     18  C   UNL d   1      32.769  20.260 -24.740  0.00  0.00     0.030 A 
ENDBRANCH   8  10
ENDBRANCH   2   8
BRANCH   5  19
ATOM     19  C   UNL d   1      31.865  17.262 -23.907  0.00  0.00     0.017 A 
ATOM     20  C   UNL d   1      31.979  16.558 -24.319  0.00  0.00     0.001 A 
ATOM     21  C   UNL d   1      32.432  15.954 -23.987  0.00  0.00     0.000 A 
ATOM     22  C   UNL d   1      32.770  16.059 -23.241  0.00  0.00     0.000 A 
ATOM     23  C   UNL d   1      32.655  16.768 -22.826  0.00  0.00     0.000 A 
ATOM     24  C   UNL d   1      33.226  15.454 -22.904  0.00  0.00     0.000 C 
ATOM     25  C   UNL d   1      32.198  17.371 -23.168  0.00  0.00     0.001 A 
ENDBRANCH   5  19
BRANCH   1  26
ATOM     26  C   UNL d   1      30.092  17.219 -24.212  0.00  0.00     0.179 A 
ATOM     27  N   UNL d   1      29.869  16.973 -23.464  0.00  0.00    -0.108 NA
ATOM     28  O   UNL d   1      29.355  16.330 -23.555  0.00  0.00    -0.210 OA
ATOM     29  C   UNL d   1      29.265  16.186 -24.358  0.00  0.00     0.128 A 
ATOM     30  C   UNL d   1      29.727  16.742 -24.775  0.00  0.00     0.067 A 
ATOM     31  C   UNL d   1      28.805  15.599 -24.707  0.00  0.00     0.029 C 
ENDBRANCH   1  26
TORSDOF 4
ENDMDL
