MODEL 1
REMARK VINA RESULT:      -7.9      0.000      0.000
REMARK  3 active torsions:
REMARK  status: ('A' for Active; 'I' for Inactive)
REMARK    1  A    between atoms: S_2  and  C_1 
REMARK    2  A    between atoms: N_8  and  S_2 
REMARK    3  A    between atoms: C_12  and  N_9 
ROOT
ATOM      1  N   UNL d   1     -47.482  13.582  22.852  0.00  0.00    -0.226 N 
ATOM      2  N   UNL d   1     -48.908  14.396  22.949  0.00  0.00    -0.299 N 
ATOM      3  C   UNL d   1     -48.174  13.182  23.015  0.00  0.00     0.111 A 
ATOM      4  C   UNL d   1     -47.509  14.402  22.737  0.00  0.00     0.111 A 
ATOM      5  C   UNL d   1     -48.881  13.576  23.065  0.00  0.00     0.100 A 
ATOM      6  C   UNL d   1     -48.224  14.810  22.785  0.00  0.00     0.100 A 
ENDROOT
BRANCH   1   7
ATOM      7  S   UNL d   1     -46.765  13.170  22.803  0.00  0.00     0.278 S 
ATOM      8  O   UNL d   1     -47.081  12.731  22.181  0.00  0.00    -0.199 OA
ATOM      9  O   UNL d   1     -46.458  13.619  23.431  0.00  0.00    -0.199 OA
BRANCH   7  10
ATOM     10  C   UNL d   1     -46.055  12.752  22.746  0.00  0.00     0.178 A 
ATOM     11  C   UNL d   1     -45.950  12.065  23.198  0.00  0.00     0.282 A 
ATOM     12  N   UNL d   1     -45.243  11.651  23.139  0.00  0.00    -0.224 N 
ATOM     13  O   UNL d   1     -46.540  11.806  23.691  0.00  0.00    -0.266 OA
ATOM     14  C   UNL d   1     -45.144  10.966  23.592  0.00  0.00     0.107 C 
ATOM     15  C   UNL d   1     -44.644  11.914  22.638  0.00  0.00     0.342 A 
ATOM     16  N   UNL d   1     -44.749  12.592  22.193  0.00  0.00    -0.255 N 
ATOM     17  O   UNL d   1     -43.931  11.498  22.577  0.00  0.00    -0.245 OA
ATOM     18  C   UNL d   1     -45.456  13.015  22.245  0.00  0.00     0.102 A 
ATOM     19  C   UNL d   1     -44.153  12.853  21.695  0.00  0.00     0.104 C 
ENDBRANCH   7  10
ENDBRANCH   1   7
BRANCH   2  20
ATOM     20  C   UNL d   1     -49.632  14.804  23.000  0.00  0.00     0.092 A 
ATOM     21  C   UNL d   1     -50.197  14.711  22.400  0.00  0.00     0.156 A 
ATOM     22  F   UNL d   1     -50.047  14.225  21.761  0.00  0.00    -0.203 F 
ATOM     23  C   UNL d   1     -50.914  15.117  22.453  0.00  0.00     0.031 A 
ATOM     24  C   UNL d   1     -51.064  15.607  23.098  0.00  0.00     0.002 A 
ATOM     25  C   UNL d   1     -50.500  15.700  23.698  0.00  0.00     0.002 A 
ATOM     26  C   UNL d   1     -49.783  15.294  23.644  0.00  0.00     0.020 A 
ENDBRANCH   2  20
TORSDOF 3
ENDMDL
MODEL 2
REMARK VINA RESULT:      -6.7      1.789      5.112
REMARK  3 active torsions:
REMARK  status: ('A' for Active; 'I' for Inactive)
REMARK    1  A    between atoms: S_2  and  C_1 
REMARK    2  A    between atoms: N_8  and  S_2 
REMARK    3  A    between atoms: C_12  and  N_9 
ROOT
ATOM      1  N   UNL d   1     -47.474  12.939  22.851  0.00  0.00    -0.226 N 
ATOM      2  N   UNL d   1     -46.140  12.001  23.060  0.00  0.00    -0.299 N 
ATOM      3  C   UNL d   1     -46.930  12.858  22.249  0.00  0.00     0.111 A 
ATOM      4  C   UNL d   1     -47.344  12.544  23.566  0.00  0.00     0.111 A 
ATOM      5  C   UNL d   1     -46.269  12.398  22.343  0.00  0.00     0.100 A 
ATOM      6  C   UNL d   1     -46.675  12.073  23.672  0.00  0.00     0.100 A 
ENDROOT
BRANCH   1   7
ATOM      7  S   UNL d   1     -48.146  13.413  22.743  0.00  0.00     0.278 S 
ATOM      8  O   UNL d   1     -48.545  12.938  23.287  0.00  0.00    -0.199 OA
ATOM      9  O   UNL d   1     -47.733  13.882  22.196  0.00  0.00    -0.199 OA
BRANCH   7  10
ATOM     10  C   UNL d   1     -48.821  13.877  22.643  0.00  0.00     0.178 A 
ATOM     11  C   UNL d   1     -49.406  13.634  22.108  0.00  0.00     0.282 A 
ATOM     12  N   UNL d   1     -50.077  14.098  22.010  0.00  0.00    -0.224 N 
ATOM     13  O   UNL d   1     -49.314  12.947  21.687  0.00  0.00    -0.266 OA
ATOM     14  C   UNL d   1     -50.657  13.850  21.475  0.00  0.00     0.107 C 
ATOM     15  C   UNL d   1     -50.170  14.796  22.438  0.00  0.00     0.342 A 
ATOM     16  N   UNL d   1     -49.592  15.033  22.966  0.00  0.00    -0.255 N 
ATOM     17  O   UNL d   1     -50.846  15.263  22.341  0.00  0.00    -0.245 OA
ATOM     18  C   UNL d   1     -48.915  14.575  23.071  0.00  0.00     0.102 A 
ATOM     19  C   UNL d   1     -49.685  15.728  23.391  0.00  0.00     0.104 C 
ENDBRANCH   7  10
ENDBRANCH   1   7
BRANCH   2  20
ATOM     20  C   UNL d   1     -45.462  11.528  23.161  0.00  0.00     0.092 A 
ATOM     21  C   UNL d   1     -45.539  10.767  23.481  0.00  0.00     0.156 A 
ATOM     22  F   UNL d   1     -46.271  10.480  23.698  0.00  0.00    -0.203 F 
ATOM     23  C   UNL d   1     -44.865  10.300  23.580  0.00  0.00     0.031 A 
ATOM     24  C   UNL d   1     -44.125  10.590  23.361  0.00  0.00     0.002 A 
ATOM     25  C   UNL d   1     -44.049  11.351  23.041  0.00  0.00     0.002 A 
ATOM     26  C   UNL d   1     -44.723  11.818  22.943  0.00  0.00     0.020 A 
ENDBRANCH   2  20
TORSDOF 3
ENDMDL
MODEL 3
REMARK VINA RESULT:      -5.3      8.677     10.224
REMARK  3 active torsions:
REMARK  status: ('A' for Active; 'I' for Inactive)
REMARK    1  A    between atoms: S_2  and  C_1 
REMARK    2  A    between atoms: N_8  and  S_2 
REMARK    3  A    between atoms: C_12  and  N_9 
ROOT
ATOM      1  N   UNL d   1     -38.710  14.415  19.277  0.00  0.00    -0.226 N 
ATOM      2  N   UNL d   1     -38.544  14.308  17.644  0.00  0.00    -0.299 N 
ATOM      3  C   UNL d   1     -38.030  14.682  18.914  0.00  0.00     0.111 A 
ATOM      4  C   UNL d   1     -39.313  14.091  18.812  0.00  0.00     0.111 A 
ATOM      5  C   UNL d   1     -37.939  14.633  18.110  0.00  0.00     0.100 A 
ATOM      6  C   UNL d   1     -39.230  14.037  17.993  0.00  0.00     0.100 A 
ENDROOT
BRANCH   1   7
ATOM      7  S   UNL d   1     -38.792  14.470  20.100  0.00  0.00     0.278 S 
ATOM      8  O   UNL d   1     -38.100  14.919  20.120  0.00  0.00    -0.199 OA
ATOM      9  O   UNL d   1     -39.487  14.017  20.066  0.00  0.00    -0.199 OA
BRANCH   7  10
ATOM     10  C   UNL d   1     -38.863  14.532  20.920  0.00  0.00     0.178 A 
ATOM     11  C   UNL d   1     -39.235  15.197  21.247  0.00  0.00     0.282 A 
ATOM     12  N   UNL d   1     -39.304  15.256  22.063  0.00  0.00    -0.224 N 
ATOM     13  O   UNL d   1     -39.525  15.781  20.765  0.00  0.00    -0.266 OA
ATOM     14  C   UNL d   1     -39.676  15.922  22.384  0.00  0.00     0.107 C 
ATOM     15  C   UNL d   1     -39.009  14.663  22.553  0.00  0.00     0.342 A 
ATOM     16  N   UNL d   1     -38.642  14.008  22.229  0.00  0.00    -0.255 N 
ATOM     17  O   UNL d   1     -39.078  14.722  23.376  0.00  0.00    -0.245 OA
ATOM     18  C   UNL d   1     -38.567  13.939  21.410  0.00  0.00     0.102 A 
ATOM     19  C   UNL d   1     -38.348  13.418  22.717  0.00  0.00     0.104 C 
ENDBRANCH   7  10
ENDBRANCH   1   7
BRANCH   2  20
ATOM     20  C   UNL d   1     -38.454  14.256  16.818  0.00  0.00     0.092 A 
ATOM     21  C   UNL d   1     -38.748  14.863  16.336  0.00  0.00     0.156 A 
ATOM     22  F   UNL d   1     -39.123  15.509  16.664  0.00  0.00    -0.203 F 
ATOM     23  C   UNL d   1     -38.657  14.808  15.517  0.00  0.00     0.031 A 
ATOM     24  C   UNL d   1     -38.279  14.156  15.185  0.00  0.00     0.002 A 
ATOM     25  C   UNL d   1     -37.985  13.549  15.668  0.00  0.00     0.002 A 
ATOM     26  C   UNL d   1     -38.076  13.604  16.487  0.00  0.00     0.020 A 
ENDBRANCH   2  20
TORSDOF 3
ENDMDL
MODEL 4
REMARK VINA RESULT:      -5.1      8.260      8.854
REMARK  3 active torsions:
REMARK  status: ('A' for Active; 'I' for Inactive)
REMARK    1  A    between atoms: S_2  and  C_1 
REMARK    2  A    between atoms: N_8  and  S_2 
REMARK    3  A    between atoms: C_12  and  N_9 
ROOT
ATOM      1  N   UNL d   1     -39.840  15.059  19.877  0.00  0.00    -0.226 N 
ATOM      2  N   UNL d   1     -40.384  15.367  18.356  0.00  0.00    -0.299 N 
ATOM      3  C   UNL d   1     -40.219  15.762  19.709  0.00  0.00     0.111 A 
ATOM      4  C   UNL d   1     -39.735  14.505  19.270  0.00  0.00     0.111 A 
ATOM      5  C   UNL d   1     -40.491  15.922  18.963  0.00  0.00     0.100 A 
ATOM      6  C   UNL d   1     -40.007  14.659  18.508  0.00  0.00     0.100 A 
ENDROOT
BRANCH   1   7
ATOM      7  S   UNL d   1     -39.567  14.906  20.644  0.00  0.00     0.278 S 
ATOM      8  O   UNL d   1     -38.947  14.471  20.317  0.00  0.00    -0.199 OA
ATOM      9  O   UNL d   1     -40.196  15.347  20.961  0.00  0.00    -0.199 OA
BRANCH   7  10
ATOM     10  C   UNL d   1     -39.286  14.748  21.404  0.00  0.00     0.178 A 
ATOM     11  C   UNL d   1     -39.546  14.067  21.799  0.00  0.00     0.282 A 
ATOM     12  N   UNL d   1     -39.265  13.911  22.555  0.00  0.00    -0.224 N 
ATOM     13  O   UNL d   1     -40.072  13.563  21.443  0.00  0.00    -0.266 OA
ATOM     14  C   UNL d   1     -39.528  13.230  22.946  0.00  0.00     0.107 C 
ATOM     15  C   UNL d   1     -38.730  14.423  22.918  0.00  0.00     0.342 A 
ATOM     16  N   UNL d   1     -38.475  15.093  22.526  0.00  0.00    -0.255 N 
ATOM     17  O   UNL d   1     -38.446  14.267  23.679  0.00  0.00    -0.245 OA
ATOM     18  C   UNL d   1     -38.751  15.260  21.766  0.00  0.00     0.102 A 
ATOM     19  C   UNL d   1     -37.943  15.603  22.887  0.00  0.00     0.104 C 
ENDBRANCH   7  10
ENDBRANCH   1   7
BRANCH   2  20
ATOM     20  C   UNL d   1     -40.662  15.528  17.587  0.00  0.00     0.092 A 
ATOM     21  C   UNL d   1     -40.126  15.763  17.000  0.00  0.00     0.156 A 
ATOM     22  F   UNL d   1     -39.332  15.838  17.169  0.00  0.00    -0.203 F 
ATOM     23  C   UNL d   1     -40.405  15.922  16.239  0.00  0.00     0.031 A 
ATOM     24  C   UNL d   1     -41.208  15.846  16.068  0.00  0.00     0.002 A 
ATOM     25  C   UNL d   1     -41.743  15.611  16.656  0.00  0.00     0.002 A 
ATOM     26  C   UNL d   1     -41.464  15.452  17.417  0.00  0.00     0.020 A 
ENDBRANCH   2  20
TORSDOF 3
ENDMDL
