MODEL 1
REMARK VINA RESULT:      -3.9      0.000      0.000
REMARK  3 active torsions:
REMARK  status: ('A' for Active; 'I' for Inactive)
REMARK    1  A    between atoms: C_6  and  C_1 
REMARK    2  A    between atoms: C_4  and  C_8 
REMARK       I    between atoms: N_11  and  C_6 
REMARK       I    between atoms: C_8  and  N_12 
REMARK    3  A    between atoms: N_12  and  N_11 
ROOT
ATOM      1  C   UNL d   1     -42.479-122.437 -50.898  0.00  0.00     0.302 C 
ATOM      2  N   UNL d   1     -42.014-122.790 -51.480  0.00  0.00    -0.102 NA
ATOM      3  O   UNL d   1     -42.880-121.730 -51.052  0.00  0.00    -0.263 OA
ENDROOT
BRANCH   1   4
ATOM      4  C   UNL d   1     -42.553-122.786 -50.150  0.00  0.00     0.123 A 
ATOM      5  C   UNL d   1     -43.132-123.342 -50.012  0.00  0.00     0.305 A 
ATOM      6  O   UNL d   1     -43.197-123.686 -49.257  0.00  0.00    -0.273 OA
ATOM      7  O   UNL d   1     -43.648-123.561 -50.613  0.00  0.00    -0.259 OA
ATOM      8  C   UNL d   1     -42.681-123.467 -48.656  0.00  0.00     0.103 A 
ATOM      9  C   UNL d   1     -42.093-122.902 -48.799  0.00  0.00     0.024 A 
ATOM     10  C   UNL d   1     -42.750-123.810 -47.913  0.00  0.00     0.025 A 
ATOM     11  C   UNL d   1     -42.031-122.561 -49.550  0.00  0.00     0.012 A 
ATOM     12  C   UNL d   1     -41.578-122.683 -48.198  0.00  0.00     0.009 A 
ATOM     13  C   UNL d   1     -41.639-123.020 -47.452  0.00  0.00     0.035 A 
ATOM     14  C   UNL d   1     -42.230-123.589 -47.308  0.00  0.00     0.009 A 
ATOM     15 BR   UNL d   1     -41.123-122.801 -46.851  0.00  0.00    -0.049 Br
ENDBRANCH   1   4
BRANCH   2  16
ATOM     16  N   UNL d   1     -41.951-122.430 -52.219  0.00  0.00    -0.102 NA
ATOM     17  C   UNL d   1     -41.632-122.855 -52.848  0.00  0.00     0.300 C 
ATOM     18  O   UNL d   1     -41.376-123.633 -52.742  0.00  0.00    -0.264 OA
BRANCH  17  19
ATOM     19  C   UNL d   1     -41.565-122.504 -53.592  0.00  0.00     0.098 A 
ATOM     20  C   UNL d   1     -41.878-122.884 -54.254  0.00  0.00     0.203 A 
ATOM     21  C   UNL d   1     -41.814-122.540 -54.993  0.00  0.00     0.084 A 
ATOM     22  O   UNL d   1     -42.255-123.612 -54.171  0.00  0.00    -0.286 OA
ATOM     23  C   UNL d   1     -41.438-121.812 -55.079  0.00  0.00     0.199 A 
ATOM     24  C   UNL d   1     -41.123-121.429 -54.419  0.00  0.00     0.042 A 
ATOM     25  O   UNL d   1     -41.373-121.464 -55.823  0.00  0.00    -0.286 OA
ATOM     26  C   UNL d   1     -41.189-121.780 -53.670  0.00  0.00     0.011 A 
ENDBRANCH  17  19
ENDBRANCH   2  16
TORSDOF 3
ENDMDL
MODEL 2
REMARK VINA RESULT:      -2.6      2.061      5.584
REMARK  3 active torsions:
REMARK  status: ('A' for Active; 'I' for Inactive)
REMARK    1  A    between atoms: C_6  and  C_1 
REMARK    2  A    between atoms: C_4  and  C_8 
REMARK       I    between atoms: N_11  and  C_6 
REMARK       I    between atoms: C_8  and  N_12 
REMARK    3  A    between atoms: N_12  and  N_11 
ROOT
ATOM      1  C   UNL d   1     -41.595-122.360 -51.939  0.00  0.00     0.302 C 
ATOM      2  N   UNL d   1     -41.922-122.897 -51.407  0.00  0.00    -0.102 NA
ATOM      3  O   UNL d   1     -41.231-121.669 -51.668  0.00  0.00    -0.263 OA
ENDROOT
BRANCH   1   4
ATOM      4  C   UNL d   1     -41.625-122.506 -52.755  0.00  0.00     0.123 A 
ATOM      5  C   UNL d   1     -41.391-123.228 -53.051  0.00  0.00     0.305 A 
ATOM      6  O   UNL d   1     -41.426-123.364 -53.872  0.00  0.00    -0.273 OA
ATOM      7  O   UNL d   1     -41.123-123.817 -52.544  0.00  0.00    -0.259 OA
ATOM      8  C   UNL d   1     -41.694-122.775 -54.378  0.00  0.00     0.103 A 
ATOM      9  C   UNL d   1     -41.931-122.043 -54.074  0.00  0.00     0.024 A 
ATOM     10  C   UNL d   1     -41.726-122.915 -55.187  0.00  0.00     0.025 A 
ATOM     11  C   UNL d   1     -41.896-121.910 -53.258  0.00  0.00     0.012 A 
ATOM     12  C   UNL d   1     -42.199-121.454 -54.580  0.00  0.00     0.009 A 
ATOM     13  C   UNL d   1     -42.235-121.585 -55.391  0.00  0.00     0.035 A 
ATOM     14  C   UNL d   1     -41.996-122.321 -55.697  0.00  0.00     0.009 A 
ATOM     15 BR   UNL d   1     -42.503-120.996 -55.897  0.00  0.00    -0.049 Br
ENDBRANCH   1   4
BRANCH   2  16
ATOM     16  N   UNL d   1     -41.883-122.737 -50.598  0.00  0.00    -0.102 NA
ATOM     17  C   UNL d   1     -42.335-123.188 -50.077  0.00  0.00     0.300 C 
ATOM     18  O   UNL d   1     -42.821-123.794 -50.357  0.00  0.00    -0.264 OA
BRANCH  17  19
ATOM     19  C   UNL d   1     -42.303-123.036 -49.266  0.00  0.00     0.098 A 
ATOM     20  C   UNL d   1     -42.999-122.891 -48.849  0.00  0.00     0.203 A 
ATOM     21  C   UNL d   1     -42.973-122.740 -48.047  0.00  0.00     0.084 A 
ATOM     22  O   UNL d   1     -43.724-122.898 -49.242  0.00  0.00    -0.286 OA
ATOM     23  C   UNL d   1     -42.250-122.732 -47.651  0.00  0.00     0.199 A 
ATOM     24  C   UNL d   1     -41.551-122.877 -48.065  0.00  0.00     0.042 A 
ATOM     25  O   UNL d   1     -42.222-122.579 -46.841  0.00  0.00    -0.286 OA
ATOM     26  C   UNL d   1     -41.581-123.030 -48.879  0.00  0.00     0.011 A 
ENDBRANCH  17  19
ENDBRANCH   2  16
TORSDOF 3
ENDMDL
