MODEL 1
REMARK VINA RESULT:      13.3      0.000      0.000
REMARK  2 active torsions:
REMARK  status: ('A' for Active; 'I' for Inactive)
REMARK    1  A    between atoms: C_7  and  C_1 
REMARK    2  A    between atoms: C_8  and  C_7 
ROOT
ATOM      1  C   UNL d   1      14.735  12.456  -0.894  0.00  0.00     0.116 A 
ATOM      2  N   UNL d   1      14.747  13.613  -0.037  0.00  0.00    -0.152 NA
ATOM      3  N   UNL d   1      15.868  13.320  -0.904  0.00  0.00    -0.152 NA
ATOM      4  C   UNL d   1      14.364  12.948  -0.312  0.00  0.00     0.288 A 
ATOM      5  C   UNL d   1      15.478  12.643  -1.184  0.00  0.00     0.288 A 
ATOM      6  C   UNL d   1      15.497  13.813  -0.322  0.00  0.00     0.374 A 
ATOM      7  O   UNL d   1      13.619  12.752  -0.028  0.00  0.00    -0.265 OA
ATOM      8  O   UNL d   1      15.833  12.171  -1.741  0.00  0.00    -0.265 OA
ATOM      9  O   UNL d   1      15.891  14.502  -0.035  0.00  0.00    -0.242 OA
ENDROOT
BRANCH   1  10
ATOM     10  C   UNL d   1      14.350  11.782  -1.174  0.00  0.00     0.016 C 
BRANCH  10  11
ATOM     11  C   UNL d   1      13.766  11.817  -2.183  0.00  0.00     0.030 A 
ATOM     12  S   UNL d   1      14.095  11.868  -2.942  0.00  0.00    -0.080 SA
ATOM     13  C   UNL d   1      13.470  11.877  -3.489  0.00  0.00     0.064 A 
ATOM     14 BR   UNL d   1      13.562  11.924  -4.317  0.00  0.00    -0.042 Br
ATOM     15  C   UNL d   1      12.769  11.832  -3.085  0.00  0.00     0.014 A 
ATOM     16  C   UNL d   1      12.949  11.793  -2.263  0.00  0.00     0.007 A 
ENDBRANCH  10  11
ENDBRANCH   1  10
TORSDOF 2
ENDMDL
