MODEL 1
REMARK VINA RESULT:      15.7      0.000      0.000
REMARK  5 active torsions:
REMARK  status: ('A' for Active; 'I' for Inactive)
REMARK    1  A    between atoms: N_2  and  S_1 
REMARK    2  A    between atoms: C_3  and  S_1 
REMARK    3  A    between atoms: C_8  and  N_2 
REMARK    4  A    between atoms: C_7  and  C_6 
REMARK    5  A    between atoms: C_16  and  C_8 
ROOT
ATOM      1  C   UNL d   1      46.245 -18.384  44.066  0.00  0.00     0.105 A 
ATOM      2  C   UNL d   1      45.863 -16.790  44.315  0.00  0.00     0.000 A 
ATOM      3  C   UNL d   1      46.188 -17.868  43.426  0.00  0.00     0.013 A 
ATOM      4  C   UNL d   1      46.112 -18.105  44.829  0.00  0.00     0.013 A 
ATOM      5  C   UNL d   1      45.995 -17.067  43.551  0.00  0.00     0.001 A 
ATOM      6  C   UNL d   1      45.920 -17.304  44.954  0.00  0.00     0.001 A 
ENDROOT
BRANCH   1   7
ATOM      7  S   UNL d   1      46.436 -19.176  43.937  0.00  0.00     0.285 S 
ATOM      8  O   UNL d   1      46.436 -19.313  44.745  0.00  0.00    -0.198 OA
ATOM      9  O   UNL d   1      46.625 -19.961  43.812  0.00  0.00    -0.198 OA
BRANCH   7  10
ATOM     10  N   UNL d   1      46.437 -19.042  43.123  0.00  0.00    -0.155 NA
BRANCH  10  11
ATOM     11  C   UNL d   1      46.621 -19.662  42.607  0.00  0.00     0.137 C 
BRANCH  11  12
ATOM     12  C   UNL d   1      46.631 -19.524  41.782  0.00  0.00     0.120 A 
ATOM     13  O   UNL d   1      46.637 -20.098  41.186  0.00  0.00    -0.304 OA
ATOM     14  C   UNL d   1      46.646 -19.706  40.460  0.00  0.00     0.123 A 
ATOM     15  C   UNL d   1      46.646 -18.902  40.603  0.00  0.00     0.029 A 
ATOM     16  C   UNL d   1      46.637 -18.785  41.420  0.00  0.00     0.028 A 
ENDBRANCH  11  12
ENDBRANCH  10  11
ENDBRANCH   7  10
ENDBRANCH   1   7
BRANCH   2  17
ATOM     17  C   UNL d   1      45.674 -16.003  44.433  0.00  0.00     0.000 A 
ATOM     18  C   UNL d   1      44.978 -15.804  44.825  0.00  0.00     0.000 A 
ATOM     19  C   UNL d   1      44.780 -15.013  44.949  0.00  0.00     0.000 A 
ATOM     20  C   UNL d   1      45.292 -14.416  44.672  0.00  0.00     0.000 A 
ATOM     21  C   UNL d   1      45.988 -14.614  44.280  0.00  0.00     0.000 A 
ATOM     22  C   UNL d   1      45.098 -13.624  44.793  0.00  0.00     0.000 C 
ATOM     23  C   UNL d   1      46.182 -15.407  44.158  0.00  0.00     0.000 A 
ENDBRANCH   2  17
TORSDOF 5
ENDMDL
