MODEL 1
REMARK VINA RESULT:      -7.1      0.000      0.000
REMARK  3 active torsions:
REMARK  status: ('A' for Active; 'I' for Inactive)
REMARK    1  A    between atoms: C_10  and  N_2 
REMARK       I    between atoms: N_3  and  C_6 
REMARK    2  A    between atoms: C_6  and  C_11 
REMARK    3  A    between atoms: C_11  and  C_10 
ROOT
ATOM      1  N   UNL d   1     -48.884  13.756  22.301  0.00  0.00    -0.275 N 
ATOM      2  C   UNL d   1     -49.020  13.181  21.727  0.00  0.00     0.067 A 
ATOM      3  C   UNL d   1     -48.193  13.857  22.732  0.00  0.00     0.266 C 
ATOM      4  C   UNL d   1     -49.574  14.211  22.359  0.00  0.00     0.067 A 
ATOM      5  C   UNL d   1     -50.121  13.919  21.831  0.00  0.00     0.018 A 
ATOM      6  C   UNL d   1     -49.779  13.276  21.434  0.00  0.00     0.019 A 
ATOM      7  O   UNL d   1     -48.142  14.462  23.291  0.00  0.00    -0.267 OA
ATOM      8  C   UNL d   1     -48.473  12.598  21.484  0.00  0.00     0.019 C 
ATOM      9  C   UNL d   1     -49.764  14.859  22.837  0.00  0.00     0.018 A 
ATOM     10  C   UNL d   1     -50.862  14.254  21.759  0.00  0.00     0.002 A 
ATOM     11  C   UNL d   1     -50.502  15.207  22.778  0.00  0.00     0.002 A 
ATOM     12  C   UNL d   1     -51.063  14.911  22.238  0.00  0.00     0.000 A 
ENDROOT
BRANCH   3  13
ATOM     13  C   UNL d   1     -47.548  13.357  22.612  0.00  0.00     0.080 C 
BRANCH  13  14
ATOM     14  C   UNL d   1     -46.918  13.353  23.139  0.00  0.00     0.088 C 
BRANCH  14  15
ATOM     15  N   UNL d   1     -46.219  12.963  22.949  0.00  0.00    -0.268 N 
ATOM     16  C   UNL d   1     -45.590  13.276  22.521  0.00  0.00     0.296 A 
ATOM     17  S   UNL d   1     -44.998  12.658  22.471  0.00  0.00    -0.025 SA
ATOM     18  O   UNL d   1     -45.550  14.038  22.208  0.00  0.00    -0.259 OA
ATOM     19  C   UNL d   1     -45.279  12.022  22.853  0.00  0.00     0.050 A 
ATOM     20  C   UNL d   1     -44.937  11.276  22.974  0.00  0.00     0.008 A 
ATOM     21  C   UNL d   1     -46.029  12.186  23.156  0.00  0.00     0.073 A 
ATOM     22  C   UNL d   1     -45.349  10.695  23.400  0.00  0.00     0.001 A 
ATOM     23  C   UNL d   1     -46.099  10.870  23.697  0.00  0.00     0.002 A 
ATOM     24  C   UNL d   1     -46.436  11.616  23.574  0.00  0.00     0.018 A 
ENDBRANCH  14  15
ENDBRANCH  13  14
ENDBRANCH   3  13
TORSDOF 3
ENDMDL
MODEL 2
REMARK VINA RESULT:      -6.2      8.544     10.429
REMARK  3 active torsions:
REMARK  status: ('A' for Active; 'I' for Inactive)
REMARK    1  A    between atoms: C_10  and  N_2 
REMARK       I    between atoms: N_3  and  C_6 
REMARK    2  A    between atoms: C_6  and  C_11 
REMARK    3  A    between atoms: C_11  and  C_10 
ROOT
ATOM      1  N   UNL d   1     -38.761  14.505  17.394  0.00  0.00    -0.275 N 
ATOM      2  C   UNL d   1     -38.790  13.753  17.728  0.00  0.00     0.067 A 
ATOM      3  C   UNL d   1     -38.963  15.208  17.766  0.00  0.00     0.266 C 
ATOM      4  C   UNL d   1     -38.491  14.417  16.617  0.00  0.00     0.067 A 
ATOM      5  C   UNL d   1     -38.357  13.625  16.478  0.00  0.00     0.018 A 
ATOM      6  C   UNL d   1     -38.543  13.207  17.170  0.00  0.00     0.019 A 
ATOM      7  O   UNL d   1     -38.904  15.922  17.354  0.00  0.00    -0.267 OA
ATOM      8  C   UNL d   1     -39.032  13.576  18.509  0.00  0.00     0.019 C 
ATOM      9  C   UNL d   1     -38.352  14.972  16.018  0.00  0.00     0.018 A 
ATOM     10  C   UNL d   1     -38.085  13.362  15.754  0.00  0.00     0.002 A 
ATOM     11  C   UNL d   1     -38.079  14.724  15.287  0.00  0.00     0.002 A 
ATOM     12  C   UNL d   1     -37.942  13.915  15.143  0.00  0.00     0.000 A 
ENDROOT
BRANCH   3  13
ATOM     13  C   UNL d   1     -39.225  15.209  18.547  0.00  0.00     0.080 C 
BRANCH  13  14
ATOM     14  C   UNL d   1     -39.359  15.916  18.943  0.00  0.00     0.088 C 
BRANCH  14  15
ATOM     15  N   UNL d   1     -39.734  15.918  19.677  0.00  0.00    -0.268 N 
ATOM     16  C   UNL d   1     -40.546  15.919  19.807  0.00  0.00     0.296 A 
ATOM     17  S   UNL d   1     -40.655  15.920  20.658  0.00  0.00    -0.025 SA
ATOM     18  O   UNL d   1     -41.129  15.918  19.224  0.00  0.00    -0.259 OA
ATOM     19  C   UNL d   1     -39.937  15.920  20.994  0.00  0.00     0.050 A 
ATOM     20  C   UNL d   1     -39.722  15.921  21.795  0.00  0.00     0.008 A 
ATOM     21  C   UNL d   1     -39.355  15.918  20.411  0.00  0.00     0.073 A 
ATOM     22  C   UNL d   1     -38.920  15.920  22.010  0.00  0.00     0.001 A 
ATOM     23  C   UNL d   1     -38.346  15.919  21.418  0.00  0.00     0.002 A 
ATOM     24  C   UNL d   1     -38.565  15.918  20.619  0.00  0.00     0.018 A 
ENDBRANCH  14  15
ENDBRANCH  13  14
ENDBRANCH   3  13
TORSDOF 3
ENDMDL
MODEL 3
REMARK VINA RESULT:      -5.7      8.375      9.405
REMARK  3 active torsions:
REMARK  status: ('A' for Active; 'I' for Inactive)
REMARK    1  A    between atoms: C_10  and  N_2 
REMARK       I    between atoms: N_3  and  C_6 
REMARK    2  A    between atoms: C_6  and  C_11 
REMARK    3  A    between atoms: C_11  and  C_10 
ROOT
ATOM      1  N   UNL d   1     -39.669  14.839  18.924  0.00  0.00    -0.275 N 
ATOM      2  C   UNL d   1     -40.418  14.589  19.162  0.00  0.00     0.067 A 
ATOM      3  C   UNL d   1     -38.993  14.851  19.389  0.00  0.00     0.266 C 
ATOM      4  C   UNL d   1     -39.729  15.073  18.133  0.00  0.00     0.067 A 
ATOM      5  C   UNL d   1     -40.501  14.969  17.890  0.00  0.00     0.018 A 
ATOM      6  C   UNL d   1     -40.933  14.667  18.530  0.00  0.00     0.019 A 
ATOM      7  O   UNL d   1     -38.280  15.118  19.069  0.00  0.00    -0.267 OA
ATOM      8  C   UNL d   1     -40.617  14.304  19.922  0.00  0.00     0.019 C 
ATOM      9  C   UNL d   1     -39.166  15.370  17.604  0.00  0.00     0.018 A 
ATOM     10  C   UNL d   1     -40.734  15.153  17.130  0.00  0.00     0.002 A 
ATOM     11  C   UNL d   1     -39.384  15.560  16.839  0.00  0.00     0.002 A 
ATOM     12  C   UNL d   1     -40.171  15.454  16.588  0.00  0.00     0.000 A 
ENDROOT
BRANCH   3  13
ATOM     13  C   UNL d   1     -39.019  14.598  20.173  0.00  0.00     0.080 C 
BRANCH  13  14
ATOM     14  C   UNL d   1     -38.357  14.665  20.656  0.00  0.00     0.088 C 
BRANCH  14  15
ATOM     15  N   UNL d   1     -38.375  14.378  21.427  0.00  0.00    -0.268 N 
ATOM     16  C   UNL d   1     -38.251  13.599  21.659  0.00  0.00     0.296 A 
ATOM     17  S   UNL d   1     -38.328  13.583  22.513  0.00  0.00    -0.025 SA
ATOM     18  O   UNL d   1     -38.087  12.966  21.155  0.00  0.00    -0.259 OA
ATOM     19  C   UNL d   1     -38.487  14.321  22.755  0.00  0.00     0.050 A 
ATOM     20  C   UNL d   1     -38.613  14.617  23.519  0.00  0.00     0.008 A 
ATOM     21  C   UNL d   1     -38.522  14.828  22.105  0.00  0.00     0.073 A 
ATOM     22  C   UNL d   1     -38.774  15.424  23.630  0.00  0.00     0.001 A 
ATOM     23  C   UNL d   1     -38.806  15.922  22.973  0.00  0.00     0.002 A 
ATOM     24  C   UNL d   1     -38.679  15.622  22.212  0.00  0.00     0.018 A 
ENDBRANCH  14  15
ENDBRANCH  13  14
ENDBRANCH   3  13
TORSDOF 3
ENDMDL
MODEL 4
REMARK VINA RESULT:      -5.4      8.440      9.070
REMARK  3 active torsions:
REMARK  status: ('A' for Active; 'I' for Inactive)
REMARK    1  A    between atoms: C_10  and  N_2 
REMARK       I    between atoms: N_3  and  C_6 
REMARK    2  A    between atoms: C_6  and  C_11 
REMARK    3  A    between atoms: C_11  and  C_10 
ROOT
ATOM      1  N   UNL d   1     -39.893  14.877  18.604  0.00  0.00    -0.275 N 
ATOM      2  C   UNL d   1     -39.362  14.305  18.341  0.00  0.00     0.067 A 
ATOM      3  C   UNL d   1     -39.963  15.155  19.373  0.00  0.00     0.266 C 
ATOM      4  C   UNL d   1     -40.340  15.116  17.950  0.00  0.00     0.067 A 
ATOM      5  C   UNL d   1     -40.087  14.698  17.297  0.00  0.00     0.018 A 
ATOM      6  C   UNL d   1     -39.476  14.190  17.538  0.00  0.00     0.019 A 
ATOM      7  O   UNL d   1     -40.525  15.733  19.551  0.00  0.00    -0.267 OA
ATOM      8  C   UNL d   1     -38.800  13.907  18.815  0.00  0.00     0.019 C 
ATOM      9  C   UNL d   1     -40.950  15.669  17.875  0.00  0.00     0.018 A 
ATOM     10  C   UNL d   1     -40.425  14.813  16.563  0.00  0.00     0.002 A 
ATOM     11  C   UNL d   1     -41.300  15.797  17.146  0.00  0.00     0.002 A 
ATOM     12  C   UNL d   1     -41.043  15.371  16.478  0.00  0.00     0.000 A 
ENDROOT
BRANCH   3  13
ATOM     13  C   UNL d   1     -39.476  14.862  19.970  0.00  0.00     0.080 C 
BRANCH  13  14
ATOM     14  C   UNL d   1     -39.622  15.047  20.758  0.00  0.00     0.088 C 
BRANCH  14  15
ATOM     15  N   UNL d   1     -39.050  14.901  21.332  0.00  0.00    -0.268 N 
ATOM     16  C   UNL d   1     -38.337  15.302  21.419  0.00  0.00     0.296 A 
ATOM     17  S   UNL d   1     -37.940  14.947  22.091  0.00  0.00    -0.025 SA
ATOM     18  O   UNL d   1     -38.070  15.922  20.945  0.00  0.00    -0.259 OA
ATOM     19  C   UNL d   1     -38.407  14.371  22.373  0.00  0.00     0.050 A 
ATOM     20  C   UNL d   1     -38.294  13.855  23.012  0.00  0.00     0.008 A 
ATOM     21  C   UNL d   1     -39.096  14.324  21.921  0.00  0.00     0.073 A 
ATOM     22  C   UNL d   1     -38.874  13.291  23.197  0.00  0.00     0.001 A 
ATOM     23  C   UNL d   1     -39.559  13.253  22.739  0.00  0.00     0.002 A 
ATOM     24  C   UNL d   1     -39.668  13.770  22.102  0.00  0.00     0.018 A 
ENDBRANCH  14  15
ENDBRANCH  13  14
ENDBRANCH   3  13
TORSDOF 3
ENDMDL
