MODEL 1
REMARK VINA RESULT:      -3.0      0.000      0.000
REMARK  3 active torsions:
REMARK  status: ('A' for Active; 'I' for Inactive)
REMARK    1  A    between atoms: C_6  and  N_1 
REMARK    2  A    between atoms: C_2  and  C_8 
REMARK    3  A    between atoms: N_3  and  C_2 
REMARK       I    between atoms: C_5  and  N_4 
ROOT
ATOM      1  C   UNL d   1      58.025   0.153  30.046  0.00  0.00     0.120 C 
ATOM      2  S   UNL d   1      57.696   0.682  29.503  0.00  0.00    -0.059 SA
ENDROOT
BRANCH   1   3
ATOM      3  C   UNL d   1      58.606  -0.377  29.805  0.00  0.00     0.027 A 
ATOM      4  C   UNL d   1      58.398  -1.141  29.572  0.00  0.00     0.004 A 
ATOM      5  C   UNL d   1      58.983  -1.672  29.329  0.00  0.00     0.024 A 
ATOM      6  C   UNL d   1      59.774  -1.439  29.321  0.00  0.00     0.127 A 
ATOM      7  C   UNL d   1      59.982  -0.676  29.555  0.00  0.00     0.024 A 
ATOM      8  C   UNL d   1      59.400  -0.146  29.796  0.00  0.00     0.004 A 
BRANCH   6   9
ATOM      9  N   UNL d   1      60.356  -1.970  29.079  0.00  0.00    -0.114 N 
ATOM     10  O   UNL d   1      60.219  -2.767  29.253  0.00  0.00    -0.532 OA
ATOM     11  O   UNL d   1      61.049  -1.748  28.683  0.00  0.00    -0.532 OA
ENDBRANCH   6   9
ENDBRANCH   1   3
BRANCH   1  12
ATOM     12  N   UNL d   1      57.771   0.155  30.830  0.00  0.00    -0.293 N 
ATOM     13  C   UNL d   1      58.114   0.676  31.378  0.00  0.00     0.100 A 
ATOM     14  C   UNL d   1      57.860   0.678  32.161  0.00  0.00     0.102 A 
ATOM     15  N   UNL d   1      57.263   0.163  32.403  0.00  0.00    -0.269 N 
ATOM     16  C   UNL d   1      56.920  -0.358  31.855  0.00  0.00     0.102 A 
ATOM     17  C   UNL d   1      57.008   0.165  33.187  0.00  0.00     0.265 C 
ATOM     18  C   UNL d   1      57.174  -0.360  31.072  0.00  0.00     0.100 A 
ATOM     19  O   UNL d   1      56.412  -0.351  33.429  0.00  0.00    -0.267 OA
ATOM     20  C   UNL d   1      57.348   0.682  33.733  0.00  0.00     0.066 C 
ENDBRANCH   1  12
TORSDOF 3
ENDMDL
MODEL 2
REMARK VINA RESULT:      -2.5      1.081      4.215
REMARK  3 active torsions:
REMARK  status: ('A' for Active; 'I' for Inactive)
REMARK    1  A    between atoms: C_6  and  N_1 
REMARK    2  A    between atoms: C_2  and  C_8 
REMARK    3  A    between atoms: N_3  and  C_2 
REMARK       I    between atoms: C_5  and  N_4 
ROOT
ATOM      1  C   UNL d   1      57.496   0.180  30.355  0.00  0.00     0.120 C 
ATOM      2  S   UNL d   1      57.060   0.681  29.864  0.00  0.00    -0.059 SA
ENDROOT
BRANCH   1   3
ATOM      3  C   UNL d   1      57.189  -0.053  31.082  0.00  0.00     0.027 A 
ATOM      4  C   UNL d   1      57.141   0.488  31.703  0.00  0.00     0.004 A 
ATOM      5  C   UNL d   1      56.832   0.252  32.433  0.00  0.00     0.024 A 
ATOM      6  C   UNL d   1      56.573  -0.523  32.540  0.00  0.00     0.127 A 
ATOM      7  C   UNL d   1      56.621  -1.064  31.919  0.00  0.00     0.024 A 
ATOM      8  C   UNL d   1      56.928  -0.830  31.192  0.00  0.00     0.004 A 
BRANCH   6   9
ATOM      9  N   UNL d   1      56.266  -0.756  33.268  0.00  0.00    -0.114 N 
ATOM     10  O   UNL d   1      55.840  -0.183  33.686  0.00  0.00    -0.532 OA
ATOM     11  O   UNL d   1      56.363  -1.513  33.590  0.00  0.00    -0.532 OA
ENDBRANCH   6   9
ENDBRANCH   1   3
BRANCH   1  12
ATOM     12  N   UNL d   1      58.238  -0.087  30.118  0.00  0.00    -0.293 N 
ATOM     13  C   UNL d   1      58.322  -0.839  29.777  0.00  0.00     0.100 A 
ATOM     14  C   UNL d   1      59.064  -1.105  29.540  0.00  0.00     0.102 A 
ATOM     15  N   UNL d   1      59.727  -0.624  29.640  0.00  0.00    -0.269 N 
ATOM     16  C   UNL d   1      59.643   0.128  29.981  0.00  0.00     0.102 A 
ATOM     17  C   UNL d   1      60.470  -0.891  29.403  0.00  0.00     0.265 C 
ATOM     18  C   UNL d   1      58.901   0.394  30.218  0.00  0.00     0.100 A 
ATOM     19  O   UNL d   1      61.132  -0.410  29.503  0.00  0.00    -0.267 OA
ATOM     20  C   UNL d   1      60.554  -1.639  29.064  0.00  0.00     0.066 C 
ENDBRANCH   1  12
TORSDOF 3
ENDMDL
