MODEL 1
REMARK VINA RESULT:      50.8      0.000      0.000
REMARK  4 active torsions:
REMARK  status: ('A' for Active; 'I' for Inactive)
REMARK    1  A    between atoms: C_15  and  O_20 
REMARK    2  A    between atoms: C_16  and  O_21 
REMARK    3  A    between atoms: O_20  and  C_18 
REMARK    4  A    between atoms: O_21  and  C_19 
ROOT
ATOM      1  C   UNL d   1     -51.535  25.627  33.317  0.00  0.00     0.161 A 
ATOM      2  O   UNL d   1     -52.155  26.067  33.316  0.00  0.00    -0.291 OA
ATOM      3  C   UNL d   1     -52.103  25.024  33.319  0.00  0.00     0.033 A 
ATOM      4  C   UNL d   1     -50.733  25.434  33.318  0.00  0.00     0.033 A 
ATOM      5  C   UNL d   1     -50.864  26.154  33.316  0.00  0.00     0.016 A 
ATOM      6  C   UNL d   1     -51.968  26.675  33.314  0.00  0.00     0.296 A 
ATOM      7  C   UNL d   1     -51.865  24.228  33.321  0.00  0.00     0.101 A 
ATOM      8  C   UNL d   1     -50.495  24.638  33.320  0.00  0.00     0.101 A 
ATOM      9  O   UNL d   1     -51.059  24.036  33.322  0.00  0.00    -0.307 OA
ATOM     10  C   UNL d   1     -51.291  26.759  33.314  0.00  0.00     0.062 A 
ATOM     11  C   UNL d   1     -49.690  24.445  33.321  0.00  0.00     0.049 A 
ATOM     12  C   UNL d   1     -52.425  23.627  33.323  0.00  0.00     0.049 A 
ATOM     13  C   UNL d   1     -52.902  25.218  33.318  0.00  0.00     0.003 A 
ATOM     14  C   UNL d   1     -50.166  26.037  33.316  0.00  0.00     0.003 A 
ATOM     15  O   UNL d   1     -52.461  27.144  33.313  0.00  0.00    -0.259 OA
ATOM     16  C   UNL d   1     -49.122  25.049  33.319  0.00  0.00     0.105 A 
ATOM     17  C   UNL d   1     -53.231  23.819  33.322  0.00  0.00     0.105 A 
ATOM     18  C   UNL d   1     -53.470  24.615  33.320  0.00  0.00     0.025 A 
ATOM     19  C   UNL d   1     -49.361  25.845  33.317  0.00  0.00     0.025 A 
ATOM     20  C   UNL d   1     -50.062  26.206  33.316  0.00  0.00    -0.001 A 
ATOM     21  C   UNL d   1     -50.994  27.507  33.312  0.00  0.00     0.005 A 
ATOM     22  C   UNL d   1     -49.717  26.934  33.314  0.00  0.00    -0.000 A 
ATOM     23  C   UNL d   1     -50.188  27.584  33.312  0.00  0.00     0.000 A 
ENDROOT
BRANCH  17  24
ATOM     24  O   UNL d   1     -53.601  23.402  33.323  0.00  0.00    -0.273 OA
BRANCH  24  25
ATOM     25  C   UNL d   1     -54.116  23.338  33.689  0.00  0.00     0.300 C 
ATOM     26  O   UNL d   1     -54.544  23.206  33.334  0.00  0.00    -0.259 OA
ATOM     27  C   UNL d   1     -54.155  23.412  34.383  0.00  0.00     0.074 C 
ENDBRANCH  24  25
ENDBRANCH  17  24
BRANCH  16  28
ATOM     28  O   UNL d   1     -48.573  24.906  33.320  0.00  0.00    -0.273 OA
BRANCH  28  29
ATOM     29  C   UNL d   1     -48.168  24.664  33.590  0.00  0.00     0.300 C 
ATOM     30  O   UNL d   1     -47.849  25.146  33.838  0.00  0.00    -0.259 OA
ATOM     31  C   UNL d   1     -48.045  24.040  33.643  0.00  0.00     0.074 C 
ENDBRANCH  28  29
ENDBRANCH  16  28
TORSDOF 4
ENDMDL
