MODEL 1
REMARK VINA RESULT:      -6.3      0.000      0.000
REMARK  8 active torsions:
REMARK  status: ('A' for Active; 'I' for Inactive)
REMARK       I    between atoms: N_3  and  C_1 
REMARK    1  A    between atoms: C_11  and  C_1 
REMARK    2  A    between atoms: C_7  and  N_3 
REMARK    3  A    between atoms: C_5  and  O_8 
REMARK    4  A    between atoms: C_12  and  C_7 
REMARK    5  A    between atoms: O_8  and  C_15 
REMARK    6  A    between atoms: C_9  and  C_12 
REMARK    7  A    between atoms: C_19  and  C_11 
REMARK    8  A    between atoms: C_15  and  C_19 
ROOT
ATOM      1  C   UNL d   1     -43.320  12.682  21.491  0.00  0.00     0.328 C 
ATOM      2  O   UNL d   1     -43.114  11.999  21.905  0.00  0.00    -0.251 OA
ATOM      3  N   UNL d   1     -42.734  13.119  21.097  0.00  0.00    -0.362 NA
ENDROOT
BRANCH   1   4
ATOM      4  C   UNL d   1     -44.105  12.931  21.469  0.00  0.00     0.078 C 
BRANCH   4   5
ATOM      5  C   UNL d   1     -44.600  12.794  22.107  0.00  0.00     0.033 C 
BRANCH   5   6
ATOM      6  C   UNL d   1     -45.345  13.145  22.138  0.00  0.00     0.123 C 
BRANCH   6   7
ATOM      7  O   UNL d   1     -45.753  13.191  22.852  0.00  0.00    -0.305 OA
BRANCH   7   8
ATOM      8  C   UNL d   1     -46.543  13.425  22.866  0.00  0.00     0.100 A 
ATOM      9  C   UNL d   1     -47.144  12.863  22.977  0.00  0.00     0.025 A 
ATOM     10  C   UNL d   1     -47.934  13.105  22.989  0.00  0.00     0.002 A 
ATOM     11  C   UNL d   1     -48.527  12.545  23.100  0.00  0.00     0.000 C 
ATOM     12  C   UNL d   1     -48.130  13.900  22.892  0.00  0.00     0.000 A 
ATOM     13  C   UNL d   1     -47.538  14.461  22.781  0.00  0.00     0.002 A 
ATOM     14  C   UNL d   1     -46.741  14.228  22.767  0.00  0.00     0.025 A 
ENDBRANCH   7   8
ENDBRANCH   6   7
ENDBRANCH   5   6
ENDBRANCH   4   5
ENDBRANCH   1   4
BRANCH   3  15
ATOM     15  C   UNL d   1     -42.154  13.550  20.707  0.00  0.00     0.165 C 
BRANCH  15  16
ATOM     16  C   UNL d   1     -41.567  13.937  21.138  0.00  0.00     0.035 C 
BRANCH  16  17
ATOM     17  C   UNL d   1     -41.110  14.514  20.778  0.00  0.00     0.003 A 
ATOM     18  C   UNL d   1     -40.524  14.309  20.226  0.00  0.00     0.000 A 
ATOM     19  C   UNL d   1     -40.069  14.893  19.868  0.00  0.00     0.000 A 
ATOM     20  C   UNL d   1     -40.193  15.686  20.057  0.00  0.00     0.000 A 
ATOM     21  C   UNL d   1     -40.778  15.893  20.610  0.00  0.00     0.000 A 
ATOM     22  C   UNL d   1     -41.233  15.308  20.967  0.00  0.00     0.000 A 
ENDBRANCH  16  17
ENDBRANCH  15  16
ENDBRANCH   3  15
TORSDOF 8
ENDMDL
MODEL 2
REMARK VINA RESULT:      -3.9      3.653      6.548
REMARK  8 active torsions:
REMARK  status: ('A' for Active; 'I' for Inactive)
REMARK       I    between atoms: N_3  and  C_1 
REMARK    1  A    between atoms: C_11  and  C_1 
REMARK    2  A    between atoms: C_7  and  N_3 
REMARK    3  A    between atoms: C_5  and  O_8 
REMARK    4  A    between atoms: C_12  and  C_7 
REMARK    5  A    between atoms: O_8  and  C_15 
REMARK    6  A    between atoms: C_9  and  C_12 
REMARK    7  A    between atoms: C_19  and  C_11 
REMARK    8  A    between atoms: C_15  and  C_19 
ROOT
ATOM      1  C   UNL d   1     -46.841  14.180  22.926  0.00  0.00     0.328 C 
ATOM      2  O   UNL d   1     -46.308  14.730  22.619  0.00  0.00    -0.251 OA
ATOM      3  N   UNL d   1     -47.657  14.312  22.857  0.00  0.00    -0.362 NA
ENDROOT
BRANCH   1   4
ATOM      4  C   UNL d   1     -46.563  13.501  23.302  0.00  0.00     0.078 C 
BRANCH   4   5
ATOM      5  C   UNL d   1     -45.824  13.200  23.118  0.00  0.00     0.033 C 
BRANCH   5   6
ATOM      6  C   UNL d   1     -45.635  12.420  23.302  0.00  0.00     0.123 C 
BRANCH   6   7
ATOM      7  O   UNL d   1     -45.089  12.006  22.845  0.00  0.00    -0.305 OA
BRANCH   7   8
ATOM      8  C   UNL d   1     -44.765  11.301  23.121  0.00  0.00     0.100 A 
ATOM      9  C   UNL d   1     -43.943  11.183  23.104  0.00  0.00     0.025 A 
ATOM     10  C   UNL d   1     -43.625  10.473  23.383  0.00  0.00     0.002 A 
ATOM     11  C   UNL d   1     -42.810  10.359  23.364  0.00  0.00     0.000 C 
ATOM     12  C   UNL d   1     -44.118   9.880  23.678  0.00  0.00     0.000 A 
ATOM     13  C   UNL d   1     -44.933   9.992  23.698  0.00  0.00     0.002 A 
ATOM     14  C   UNL d   1     -45.262  10.703  23.420  0.00  0.00     0.025 A 
ENDBRANCH   7   8
ENDBRANCH   6   7
ENDBRANCH   5   6
ENDBRANCH   4   5
ENDBRANCH   1   4
BRANCH   3  15
ATOM     15  C   UNL d   1     -48.465  14.444  22.787  0.00  0.00     0.165 C 
BRANCH  15  16
ATOM     16  C   UNL d   1     -48.856  14.255  22.086  0.00  0.00     0.035 C 
BRANCH  16  17
ATOM     17  C   UNL d   1     -49.588  13.887  22.114  0.00  0.00     0.003 A 
ATOM     18  C   UNL d   1     -50.035  13.779  21.423  0.00  0.00     0.000 A 
ATOM     19  C   UNL d   1     -50.769  13.410  21.458  0.00  0.00     0.000 A 
ATOM     20  C   UNL d   1     -51.064  13.145  22.182  0.00  0.00     0.000 A 
ATOM     21  C   UNL d   1     -50.618  13.253  22.874  0.00  0.00     0.000 A 
ATOM     22  C   UNL d   1     -49.883  13.623  22.838  0.00  0.00     0.000 A 
ENDBRANCH  16  17
ENDBRANCH  15  16
ENDBRANCH   3  15
TORSDOF 8
ENDMDL
MODEL 3
REMARK VINA RESULT:      -3.7      1.620      2.453
REMARK  8 active torsions:
REMARK  status: ('A' for Active; 'I' for Inactive)
REMARK       I    between atoms: N_3  and  C_1 
REMARK    1  A    between atoms: C_11  and  C_1 
REMARK    2  A    between atoms: C_7  and  N_3 
REMARK    3  A    between atoms: C_5  and  O_8 
REMARK    4  A    between atoms: C_12  and  C_7 
REMARK    5  A    between atoms: O_8  and  C_15 
REMARK    6  A    between atoms: C_9  and  C_12 
REMARK    7  A    between atoms: C_19  and  C_11 
REMARK    8  A    between atoms: C_15  and  C_19 
ROOT
ATOM      1  C   UNL d   1     -41.655  13.584  20.804  0.00  0.00     0.328 C 
ATOM      2  O   UNL d   1     -41.185  13.455  21.469  0.00  0.00    -0.251 OA
ATOM      3  N   UNL d   1     -41.337  13.971  20.142  0.00  0.00    -0.362 NA
ENDROOT
BRANCH   1   4
ATOM      4  C   UNL d   1     -42.438  13.329  20.796  0.00  0.00     0.078 C 
BRANCH   4   5
ATOM      5  C   UNL d   1     -42.867  13.291  21.493  0.00  0.00     0.033 C 
BRANCH   5   6
ATOM      6  C   UNL d   1     -43.657  13.055  21.483  0.00  0.00     0.123 C 
BRANCH   6   7
ATOM      7  O   UNL d   1     -44.234  13.522  21.840  0.00  0.00    -0.305 OA
BRANCH   7   8
ATOM      8  C   UNL d   1     -44.896  13.174  22.184  0.00  0.00     0.100 A 
ATOM      9  C   UNL d   1     -45.610  13.595  22.238  0.00  0.00     0.025 A 
ATOM     10  C   UNL d   1     -46.270  13.239  22.585  0.00  0.00     0.002 A 
ATOM     11  C   UNL d   1     -46.976  13.660  22.637  0.00  0.00     0.000 C 
ATOM     12  C   UNL d   1     -46.226  12.469  22.878  0.00  0.00     0.000 A 
ATOM     13  C   UNL d   1     -45.521  12.048  22.828  0.00  0.00     0.002 A 
ATOM     14  C   UNL d   1     -44.851  12.396  22.481  0.00  0.00     0.025 A 
ENDBRANCH   7   8
ENDBRANCH   6   7
ENDBRANCH   5   6
ENDBRANCH   4   5
ENDBRANCH   1   4
BRANCH   3  15
ATOM     15  C   UNL d   1     -41.022  14.355  19.488  0.00  0.00     0.165 C 
BRANCH  15  16
ATOM     16  C   UNL d   1     -40.721  13.916  18.857  0.00  0.00     0.035 C 
BRANCH  16  17
ATOM     17  C   UNL d   1     -40.404  14.301  18.207  0.00  0.00     0.003 A 
ATOM     18  C   UNL d   1     -40.863  14.834  17.765  0.00  0.00     0.000 A 
ATOM     19  C   UNL d   1     -40.540  15.218  17.113  0.00  0.00     0.000 A 
ATOM     20  C   UNL d   1     -39.757  15.074  16.896  0.00  0.00     0.000 A 
ATOM     21  C   UNL d   1     -39.297  14.541  17.337  0.00  0.00     0.000 A 
ATOM     22  C   UNL d   1     -39.622  14.158  17.990  0.00  0.00     0.000 A 
ENDBRANCH  16  17
ENDBRANCH  15  16
ENDBRANCH   3  15
TORSDOF 8
ENDMDL
MODEL 4
REMARK VINA RESULT:      -3.6      4.032      5.050
REMARK  8 active torsions:
REMARK  status: ('A' for Active; 'I' for Inactive)
REMARK       I    between atoms: N_3  and  C_1 
REMARK    1  A    between atoms: C_11  and  C_1 
REMARK    2  A    between atoms: C_7  and  N_3 
REMARK    3  A    between atoms: C_5  and  O_8 
REMARK    4  A    between atoms: C_12  and  C_7 
REMARK    5  A    between atoms: O_8  and  C_15 
REMARK    6  A    between atoms: C_9  and  C_12 
REMARK    7  A    between atoms: C_19  and  C_11 
REMARK    8  A    between atoms: C_15  and  C_19 
ROOT
ATOM      1  C   UNL d   1     -47.985  11.154  23.204  0.00  0.00     0.328 C 
ATOM      2  O   UNL d   1     -48.229  10.871  22.468  0.00  0.00    -0.251 OA
ATOM      3  N   UNL d   1     -47.198  11.050  23.446  0.00  0.00    -0.362 NA
ENDROOT
BRANCH   1   4
ATOM      4  C   UNL d   1     -48.521  11.538  23.697  0.00  0.00     0.078 C 
BRANCH   4   5
ATOM      5  C   UNL d   1     -49.226  11.827  23.396  0.00  0.00     0.033 C 
BRANCH   5   6
ATOM      6  C   UNL d   1     -49.433  12.617  23.506  0.00  0.00     0.123 C 
BRANCH   6   7
ATOM      7  O   UNL d   1     -49.597  13.097  22.857  0.00  0.00    -0.305 OA
BRANCH   7   8
ATOM      8  C   UNL d   1     -49.676  13.912  22.952  0.00  0.00     0.100 A 
ATOM      9  C   UNL d   1     -49.167  14.431  22.552  0.00  0.00     0.025 A 
ATOM     10  C   UNL d   1     -49.252  15.247  22.652  0.00  0.00     0.002 A 
ATOM     11  C   UNL d   1     -48.745  15.759  22.253  0.00  0.00     0.000 C 
ATOM     12  C   UNL d   1     -49.839  15.550  23.146  0.00  0.00     0.000 A 
ATOM     13  C   UNL d   1     -50.347  15.039  23.544  0.00  0.00     0.002 A 
ATOM     14  C   UNL d   1     -50.270  14.217  23.450  0.00  0.00     0.025 A 
ENDBRANCH   7   8
ENDBRANCH   6   7
ENDBRANCH   5   6
ENDBRANCH   4   5
ENDBRANCH   1   4
BRANCH   3  15
ATOM     15  C   UNL d   1     -46.419  10.947  23.684  0.00  0.00     0.165 C 
BRANCH  15  16
ATOM     16  C   UNL d   1     -45.801  11.105  23.160  0.00  0.00     0.035 C 
BRANCH  16  17
ATOM     17  C   UNL d   1     -45.051  10.816  23.316  0.00  0.00     0.003 A 
ATOM     18  C   UNL d   1     -44.939  10.024  23.540  0.00  0.00     0.000 A 
ATOM     19  C   UNL d   1     -44.182   9.741  23.695  0.00  0.00     0.000 A 
ATOM     20  C   UNL d   1     -43.531  10.243  23.628  0.00  0.00     0.000 A 
ATOM     21  C   UNL d   1     -43.642  11.036  23.404  0.00  0.00     0.000 A 
ATOM     22  C   UNL d   1     -44.400  11.318  23.249  0.00  0.00     0.000 A 
ENDBRANCH  16  17
ENDBRANCH  15  16
ENDBRANCH   3  15
TORSDOF 8
ENDMDL
MODEL 5
REMARK VINA RESULT:      -3.5      1.944      6.666
REMARK  8 active torsions:
REMARK  status: ('A' for Active; 'I' for Inactive)
REMARK       I    between atoms: N_3  and  C_1 
REMARK    1  A    between atoms: C_11  and  C_1 
REMARK    2  A    between atoms: C_7  and  N_3 
REMARK    3  A    between atoms: C_5  and  O_8 
REMARK    4  A    between atoms: C_12  and  C_7 
REMARK    5  A    between atoms: O_8  and  C_15 
REMARK    6  A    between atoms: C_9  and  C_12 
REMARK    7  A    between atoms: C_19  and  C_11 
REMARK    8  A    between atoms: C_15  and  C_19 
ROOT
ATOM      1  C   UNL d   1     -46.959  13.511  23.086  0.00  0.00     0.328 C 
ATOM      2  O   UNL d   1     -46.946  12.860  23.593  0.00  0.00    -0.251 OA
ATOM      3  N   UNL d   1     -47.603  14.034  23.102  0.00  0.00    -0.362 NA
ENDROOT
BRANCH   1   4
ATOM      4  C   UNL d   1     -46.334  13.641  22.565  0.00  0.00     0.078 C 
BRANCH   4   5
ATOM      5  C   UNL d   1     -45.748  13.076  22.473  0.00  0.00     0.033 C 
BRANCH   5   6
ATOM      6  C   UNL d   1     -45.033  13.273  22.115  0.00  0.00     0.123 C 
BRANCH   6   7
ATOM      7  O   UNL d   1     -44.636  12.722  21.648  0.00  0.00    -0.305 OA
BRANCH   7   8
ATOM      8  C   UNL d   1     -43.814  12.727  21.607  0.00  0.00     0.100 A 
ATOM      9  C   UNL d   1     -43.419  13.319  21.180  0.00  0.00     0.025 A 
ATOM     10  C   UNL d   1     -42.593  13.318  21.143  0.00  0.00     0.002 A 
ATOM     11  C   UNL d   1     -42.206  13.907  20.718  0.00  0.00     0.000 C 
ATOM     12  C   UNL d   1     -42.158  12.733  21.529  0.00  0.00     0.000 A 
ATOM     13  C   UNL d   1     -42.544  12.143  21.954  0.00  0.00     0.002 A 
ATOM     14  C   UNL d   1     -43.374  12.136  21.997  0.00  0.00     0.025 A 
ENDBRANCH   7   8
ENDBRANCH   6   7
ENDBRANCH   5   6
ENDBRANCH   4   5
ENDBRANCH   1   4
BRANCH   3  15
ATOM     15  C   UNL d   1     -48.240  14.552  23.119  0.00  0.00     0.165 C 
BRANCH  15  16
ATOM     16  C   UNL d   1     -48.950  14.346  22.751  0.00  0.00     0.035 C 
BRANCH  16  17
ATOM     17  C   UNL d   1     -49.630  14.775  22.908  0.00  0.00     0.003 A 
ATOM     18  C   UNL d   1     -50.350  14.575  22.546  0.00  0.00     0.000 A 
ATOM     19  C   UNL d   1     -51.029  15.011  22.708  0.00  0.00     0.000 A 
ATOM     20  C   UNL d   1     -50.996  15.648  23.231  0.00  0.00     0.000 A 
ATOM     21  C   UNL d   1     -50.276  15.848  23.593  0.00  0.00     0.000 A 
ATOM     22  C   UNL d   1     -49.597  15.412  23.431  0.00  0.00     0.000 A 
ENDBRANCH  16  17
ENDBRANCH  15  16
ENDBRANCH   3  15
TORSDOF 8
ENDMDL
