MODEL 1
REMARK VINA RESULT:      65.6      0.000      0.000
REMARK  7 active torsions:
REMARK  status: ('A' for Active; 'I' for Inactive)
REMARK    1  A    between atoms: C_8  and  N_1 
REMARK       I    between atoms: C_3  and  N_5 
REMARK       I    between atoms: N_9  and  C_3 
REMARK    2  A    between atoms: N_5  and  C_6 
REMARK    3  A    between atoms: C_18  and  N_9 
REMARK    4  A    between atoms: C_19  and  N_9 
REMARK    5  A    between atoms: O_17  and  C_14 
REMARK    6  A    between atoms: C_21  and  C_18 
REMARK    7  A    between atoms: C_22  and  C_19 
ROOT
ATOM      1  N   UNL d   1     -51.608  26.217  37.491  0.00  0.00    -0.272 N 
ATOM      2  C   UNL d   1     -51.087  26.827  37.698  0.00  0.00     0.266 A 
ATOM      3  C   UNL d   1     -50.753  27.109  36.992  0.00  0.00     0.082 A 
ATOM      4  C   UNL d   1     -51.066  26.676  36.364  0.00  0.00     0.108 A 
ATOM      5  C   UNL d   1     -51.596  26.125  36.679  0.00  0.00     0.102 A 
ATOM      6  O   UNL d   1     -50.931  27.100  38.454  0.00  0.00    -0.267 OA
ENDROOT
BRANCH   4   7
ATOM      7  N   UNL d   1     -50.880  26.780  35.564  0.00  0.00    -0.190 NA
ATOM      8  C   UNL d   1     -51.272  26.336  34.996  0.00  0.00     0.354 C 
ATOM      9  N   UNL d   1     -51.090  26.436  34.196  0.00  0.00    -0.256 N 
ATOM     10  O   UNL d   1     -51.848  25.791  35.216  0.00  0.00    -0.244 OA
BRANCH   9  11
ATOM     11  C   UNL d   1     -51.481  25.993  33.614  0.00  0.00     0.085 C 
BRANCH  11  12
ATOM     12  C   UNL d   1     -51.202  25.258  33.385  0.00  0.00     0.019 C 
ATOM     13  C   UNL d   1     -51.708  24.613  33.306  0.00  0.00     0.002 C 
ENDBRANCH  11  12
ENDBRANCH   9  11
BRANCH   9  14
ATOM     14  C   UNL d   1     -50.513  26.983  33.973  0.00  0.00     0.085 C 
BRANCH  14  15
ATOM     15  C   UNL d   1     -50.633  27.450  33.306  0.00  0.00     0.019 C 
ATOM     16  C   UNL d   1     -50.466  28.266  33.338  0.00  0.00     0.002 C 
ENDBRANCH  14  15
ENDBRANCH   9  14
ENDBRANCH   4   7
BRANCH   1  17
ATOM     17  C   UNL d   1     -52.063  25.778  38.021  0.00  0.00     0.067 A 
ATOM     18  C   UNL d   1     -52.882  25.890  38.052  0.00  0.00     0.020 A 
ATOM     19  C   UNL d   1     -53.336  25.450  38.582  0.00  0.00     0.026 A 
ATOM     20  C   UNL d   1     -52.976  24.901  39.079  0.00  0.00     0.094 A 
ATOM     21  C   UNL d   1     -52.162  24.786  39.052  0.00  0.00     0.026 A 
ATOM     22  C   UNL d   1     -51.702  25.230  38.517  0.00  0.00     0.020 A 
BRANCH  20  23
ATOM     23  O   UNL d   1     -53.438  24.466  39.606  0.00  0.00    -0.328 OA
ATOM     24  C   UNL d   1     -53.129  23.782  39.946  0.00  0.00     0.181 C 
ENDBRANCH  20  23
ENDBRANCH   1  17
TORSDOF 7
ENDMDL
MODEL 2
REMARK VINA RESULT:      66.7      3.664      5.418
REMARK  7 active torsions:
REMARK  status: ('A' for Active; 'I' for Inactive)
REMARK    1  A    between atoms: C_8  and  N_1 
REMARK       I    between atoms: C_3  and  N_5 
REMARK       I    between atoms: N_9  and  C_3 
REMARK    2  A    between atoms: N_5  and  C_6 
REMARK    3  A    between atoms: C_18  and  N_9 
REMARK    4  A    between atoms: C_19  and  N_9 
REMARK    5  A    between atoms: O_17  and  C_14 
REMARK    6  A    between atoms: C_21  and  C_18 
REMARK    7  A    between atoms: C_22  and  C_19 
ROOT
ATOM      1  N   UNL d   1     -49.298  27.367  34.226  0.00  0.00    -0.272 N 
ATOM      2  C   UNL d   1     -48.541  27.204  33.934  0.00  0.00     0.266 A 
ATOM      3  C   UNL d   1     -48.016  27.719  34.320  0.00  0.00     0.082 A 
ATOM      4  C   UNL d   1     -48.449  28.189  34.842  0.00  0.00     0.108 A 
ATOM      5  C   UNL d   1     -49.243  27.966  34.779  0.00  0.00     0.102 A 
ATOM      6  O   UNL d   1     -48.346  26.643  33.370  0.00  0.00    -0.267 OA
ENDROOT
BRANCH   4   7
ATOM      7  N   UNL d   1     -48.139  28.775  35.336  0.00  0.00    -0.190 NA
ATOM      8  C   UNL d   1     -47.989  29.523  35.033  0.00  0.00     0.354 C 
ATOM      9  N   UNL d   1     -47.679  30.113  35.523  0.00  0.00    -0.256 N 
ATOM     10  O   UNL d   1     -48.145  29.692  34.243  0.00  0.00    -0.244 OA
BRANCH   9  11
ATOM     11  C   UNL d   1     -47.524  30.871  35.226  0.00  0.00     0.085 C 
BRANCH  11  12
ATOM     12  C   UNL d   1     -47.839  31.118  34.512  0.00  0.00     0.019 C 
ATOM     13  C   UNL d   1     -47.682  31.869  34.210  0.00  0.00     0.002 C 
ENDBRANCH  11  12
ENDBRANCH   9  11
BRANCH   9  14
ATOM     14  C   UNL d   1     -47.522  29.945  36.316  0.00  0.00     0.085 C 
BRANCH  14  15
ATOM     15  C   UNL d   1     -47.052  30.460  36.754  0.00  0.00     0.019 C 
ATOM     16  C   UNL d   1     -46.287  30.223  36.988  0.00  0.00     0.002 C 
ENDBRANCH  14  15
ENDBRANCH   9  14
ENDBRANCH   4   7
BRANCH   1  17
ATOM     17  C   UNL d   1     -49.992  26.985  33.995  0.00  0.00     0.067 A 
ATOM     18  C   UNL d   1     -50.726  27.321  34.172  0.00  0.00     0.020 A 
ATOM     19  C   UNL d   1     -51.420  26.939  33.941  0.00  0.00     0.026 A 
ATOM     20  C   UNL d   1     -51.381  26.224  33.533  0.00  0.00     0.094 A 
ATOM     21  C   UNL d   1     -50.653  25.885  33.355  0.00  0.00     0.026 A 
ATOM     22  C   UNL d   1     -49.953  26.271  33.588  0.00  0.00     0.020 A 
BRANCH  20  23
ATOM     23  O   UNL d   1     -52.080  25.848  33.306  0.00  0.00    -0.328 OA
ATOM     24  C   UNL d   1     -52.675  25.730  33.862  0.00  0.00     0.181 C 
ENDBRANCH  20  23
ENDBRANCH   1  17
TORSDOF 7
ENDMDL
MODEL 3
REMARK VINA RESULT:      67.6      3.828      6.483
REMARK  7 active torsions:
REMARK  status: ('A' for Active; 'I' for Inactive)
REMARK    1  A    between atoms: C_8  and  N_1 
REMARK       I    between atoms: C_3  and  N_5 
REMARK       I    between atoms: N_9  and  C_3 
REMARK    2  A    between atoms: N_5  and  C_6 
REMARK    3  A    between atoms: C_18  and  N_9 
REMARK    4  A    between atoms: C_19  and  N_9 
REMARK    5  A    between atoms: O_17  and  C_14 
REMARK    6  A    between atoms: C_21  and  C_18 
REMARK    7  A    between atoms: C_22  and  C_19 
ROOT
ATOM      1  N   UNL d   1     -47.960  30.123  34.862  0.00  0.00    -0.272 N 
ATOM      2  C   UNL d   1     -47.566  29.736  35.478  0.00  0.00     0.266 A 
ATOM      3  C   UNL d   1     -47.804  28.941  35.457  0.00  0.00     0.082 A 
ATOM      4  C   UNL d   1     -48.338  28.845  34.835  0.00  0.00     0.108 A 
ATOM      5  C   UNL d   1     -48.430  29.581  34.470  0.00  0.00     0.102 A 
ATOM      6  O   UNL d   1     -47.041  30.073  36.009  0.00  0.00    -0.267 OA
ENDROOT
BRANCH   4   7
ATOM      7  N   UNL d   1     -48.709  28.138  34.620  0.00  0.00    -0.190 NA
ATOM      8  C   UNL d   1     -49.380  27.893  35.024  0.00  0.00     0.354 C 
ATOM      9  N   UNL d   1     -49.755  27.187  34.814  0.00  0.00    -0.256 N 
ATOM     10  O   UNL d   1     -49.685  28.346  35.640  0.00  0.00    -0.244 OA
BRANCH   9  11
ATOM     11  C   UNL d   1     -50.433  26.932  35.216  0.00  0.00     0.085 C 
BRANCH  11  12
ATOM     12  C   UNL d   1     -50.388  26.650  35.983  0.00  0.00     0.019 C 
ATOM     13  C   UNL d   1     -51.058  26.602  36.462  0.00  0.00     0.002 C 
ENDBRANCH  11  12
ENDBRANCH   9  11
BRANCH   9  14
ATOM     14  C   UNL d   1     -49.451  26.731  34.196  0.00  0.00     0.085 C 
BRANCH  14  15
ATOM     15  C   UNL d   1     -49.921  26.573  33.539  0.00  0.00     0.019 C 
ATOM     16  C   UNL d   1     -50.079  25.783  33.324  0.00  0.00     0.002 C 
ENDBRANCH  14  15
ENDBRANCH   9  14
ENDBRANCH   4   7
BRANCH   1  17
ATOM     17  C   UNL d   1     -47.888  30.924  34.677  0.00  0.00     0.067 A 
ATOM     18  C   UNL d   1     -48.450  31.286  34.190  0.00  0.00     0.020 A 
ATOM     19  C   UNL d   1     -48.377  32.087  34.005  0.00  0.00     0.026 A 
ATOM     20  C   UNL d   1     -47.747  32.525  34.305  0.00  0.00     0.094 A 
ATOM     21  C   UNL d   1     -47.186  32.169  34.790  0.00  0.00     0.026 A 
ATOM     22  C   UNL d   1     -47.259  31.361  34.976  0.00  0.00     0.020 A 
BRANCH  20  23
ATOM     23  O   UNL d   1     -47.682  33.325  34.115  0.00  0.00    -0.328 OA
ATOM     24  C   UNL d   1     -47.413  33.543  33.368  0.00  0.00     0.181 C 
ENDBRANCH  20  23
ENDBRANCH   1  17
TORSDOF 7
ENDMDL
