MODEL 1
REMARK VINA RESULT:      76.8      0.000      0.000
REMARK  5 active torsions:
REMARK  status: ('A' for Active; 'I' for Inactive)
REMARK    1  A    between atoms: C_16  and  N_5 
REMARK    2  A    between atoms: C_15  and  C_6 
REMARK    3  A    between atoms: C_19  and  C_16 
REMARK    4  A    between atoms: O_20  and  C_17 
REMARK    5  A    between atoms: C_22  and  C_19 
ROOT
ATOM      1  O   UNL d   1     -55.553-102.783 -38.706  0.00  0.00    -0.326 OA
ATOM      2  C   UNL d   1     -55.640-102.856 -39.529  0.00  0.00     0.118 C 
ATOM      3  C   UNL d   1     -55.467-102.714 -37.886  0.00  0.00     0.181 C 
ENDROOT
BRANCH   2   4
ATOM      4  C   UNL d   1     -55.428-102.383 -40.179  0.00  0.00     0.045 C 
BRANCH   4   5
ATOM      5  C   UNL d   1     -54.716-102.046 -40.454  0.00  0.00     0.086 C 
BRANCH   5   6
ATOM      6  N   UNL d   1     -54.745-101.466 -41.056  0.00  0.00    -0.258 N 
ATOM      7  C   UNL d   1     -54.757-101.691 -41.847  0.00  0.00     0.272 A 
ATOM      8  C   UNL d   1     -54.785-101.115 -42.437  0.00  0.00     0.137 A 
ATOM      9  O   UNL d   1     -54.742-102.488 -42.051  0.00  0.00    -0.266 OA
ATOM     10  C   UNL d   1     -54.801-100.313 -42.236  0.00  0.00     0.192 A 
ATOM     11  C   UNL d   1     -54.798-101.340 -43.232  0.00  0.00     0.205 A 
ATOM     12  N   UNL d   1     -54.789-100.087 -41.449  0.00  0.00    -0.204 NA
ATOM     13  O   UNL d   1     -54.829 -99.746 -42.827  0.00  0.00    -0.289 OA
ATOM     14  C   UNL d   1     -54.760-100.665 -40.851  0.00  0.00     0.152 A 
ATOM     15  C   UNL d   1     -54.841 -99.975 -43.619  0.00  0.00     0.107 A 
ATOM     16  C   UNL d   1     -54.826-100.773 -43.815  0.00  0.00     0.062 A 
ATOM     17  C   UNL d   1     -54.870 -99.396 -44.216  0.00  0.00     0.049 A 
ATOM     18  C   UNL d   1     -54.838-101.002 -44.611  0.00  0.00     0.007 A 
ATOM     19  C   UNL d   1     -54.866-100.425 -45.201  0.00  0.00     0.024 A 
ATOM     20  C   UNL d   1     -54.882 -99.627 -45.005  0.00  0.00     0.096 A 
ATOM     21  O   UNL d   1     -54.782-102.138 -43.428  0.00  0.00    -0.286 OA
BRANCH  14  22
ATOM     22  C   UNL d   1     -54.748-100.436 -40.059  0.00  0.00     0.035 A 
ATOM     23  C   UNL d   1     -54.735-101.016 -39.470  0.00  0.00     0.003 A 
ATOM     24  C   UNL d   1     -54.723-100.786 -38.683  0.00  0.00     0.000 A 
ATOM     25  C   UNL d   1     -54.723 -99.989 -38.479  0.00  0.00     0.000 A 
ATOM     26  C   UNL d   1     -54.736 -99.413 -39.069  0.00  0.00     0.000 A 
ATOM     27  C   UNL d   1     -54.748 -99.639 -39.856  0.00  0.00     0.003 A 
ENDBRANCH  14  22
BRANCH  20  28
ATOM     28  O   UNL d   1     -54.910 -99.067 -45.598  0.00  0.00    -0.328 OA
ATOM     29  C   UNL d   1     -55.639 -98.793 -45.864  0.00  0.00     0.181 C 
ENDBRANCH  20  28
ENDBRANCH   5   6
ENDBRANCH   4   5
ENDBRANCH   2   4
TORSDOF 5
ENDMDL
