MODEL 1
REMARK VINA RESULT:      -9.4      0.000      0.000
REMARK  7 active torsions:
REMARK  status: ('A' for Active; 'I' for Inactive)
REMARK    1  A    between atoms: C_4  and  S_1 
REMARK    2  A    between atoms: N_10  and  S_1 
REMARK    3  A    between atoms: C_3  and  C_2 
REMARK       I    between atoms: N_6  and  C_3 
REMARK    4  A    between atoms: C_16  and  N_6 
REMARK    5  A    between atoms: C_19  and  N_10 
REMARK    6  A    between atoms: C_12  and  C_24 
REMARK    7  A    between atoms: C_24  and  C_19 
ROOT
ATOM      1  C   UNL d   1      52.383  33.251  53.267  0.00  0.00     0.086 A 
ATOM      2  C   UNL d   1      51.368  34.095  52.726  0.00  0.00     0.106 A 
ATOM      3  C   UNL d   1      51.621  33.352  52.973  0.00  0.00     0.020 A 
ATOM      4  C   UNL d   1      52.896  33.899  53.314  0.00  0.00     0.145 A 
ATOM      5  C   UNL d   1      51.878  34.739  52.772  0.00  0.00     0.015 A 
ATOM      6  C   UNL d   1      52.643  34.640  53.067  0.00  0.00     0.030 A 
ATOM      7  F   UNL d   1      53.655  33.806  53.605  0.00  0.00    -0.204 F 
ENDROOT
BRANCH   2   8
ATOM      8  S   UNL d   1      50.603  34.199  52.430  0.00  0.00     0.285 S 
ATOM      9  O   UNL d   1      50.295  33.986  53.162  0.00  0.00    -0.198 OA
ATOM     10  O   UNL d   1      50.909  34.412  51.697  0.00  0.00    -0.198 OA
BRANCH   8  11
ATOM     11  N   UNL d   1      49.845  34.303  52.133  0.00  0.00    -0.157 NA
BRANCH  11  12
ATOM     12  C   UNL d   1      49.349  34.892  52.464  0.00  0.00     0.112 C 
BRANCH  12  13
ATOM     13  C   UNL d   1      48.664  35.122  52.086  0.00  0.00     0.021 C 
BRANCH  13  14
ATOM     14  C   UNL d   1      48.146  35.640  52.440  0.00  0.00     0.002 A 
ATOM     15  C   UNL d   1      48.300  35.940  53.204  0.00  0.00     0.000 A 
ATOM     16  C   UNL d   1      47.773  36.466  53.565  0.00  0.00     0.000 A 
ATOM     17  C   UNL d   1      47.079  36.707  53.172  0.00  0.00     0.000 A 
ATOM     18  C   UNL d   1      46.927  36.406  52.409  0.00  0.00     0.000 A 
ATOM     19  C   UNL d   1      47.454  35.879  52.048  0.00  0.00     0.000 A 
ENDBRANCH  13  14
ENDBRANCH  12  13
ENDBRANCH  11  12
ENDBRANCH   8  11
ENDBRANCH   2   8
BRANCH   1  20
ATOM     20  C   UNL d   1      52.648  32.516  53.517  0.00  0.00     0.281 C 
ATOM     21  N   UNL d   1      52.645  31.883  52.978  0.00  0.00    -0.208 NA
ATOM     22  O   UNL d   1      52.913  32.399  54.284  0.00  0.00    -0.265 OA
BRANCH  21  23
ATOM     23  C   UNL d   1      52.909  31.147  53.224  0.00  0.00     0.085 A 
ATOM     24  C   UNL d   1      53.701  31.021  53.368  0.00  0.00     0.019 A 
ATOM     25  C   UNL d   1      53.955  30.275  53.616  0.00  0.00     0.002 A 
ATOM     26  C   UNL d   1      53.419  29.656  53.720  0.00  0.00     0.000 A 
ATOM     27  C   UNL d   1      52.619  29.793  53.572  0.00  0.00     0.002 A 
ATOM     28  C   UNL d   1      53.672  28.915  53.966  0.00  0.00     0.000 C 
ATOM     29  C   UNL d   1      52.361  30.534  53.325  0.00  0.00     0.019 A 
ENDBRANCH  21  23
ENDBRANCH   1  20
TORSDOF 7
ENDMDL
MODEL 2
REMARK VINA RESULT:      -9.2      1.541      5.697
REMARK  7 active torsions:
REMARK  status: ('A' for Active; 'I' for Inactive)
REMARK    1  A    between atoms: C_4  and  S_1 
REMARK    2  A    between atoms: N_10  and  S_1 
REMARK    3  A    between atoms: C_3  and  C_2 
REMARK       I    between atoms: N_6  and  C_3 
REMARK    4  A    between atoms: C_16  and  N_6 
REMARK    5  A    between atoms: C_19  and  N_10 
REMARK    6  A    between atoms: C_12  and  C_24 
REMARK    7  A    between atoms: C_24  and  C_19 
ROOT
ATOM      1  C   UNL d   1      52.455  34.494  53.595  0.00  0.00     0.086 A 
ATOM      2  C   UNL d   1      53.469  33.609  54.070  0.00  0.00     0.106 A 
ATOM      3  C   UNL d   1      52.820  33.756  53.585  0.00  0.00     0.020 A 
ATOM      4  C   UNL d   1      52.741  35.090  54.094  0.00  0.00     0.145 A 
ATOM      5  C   UNL d   1      53.753  34.202  54.566  0.00  0.00     0.015 A 
ATOM      6  C   UNL d   1      53.388  34.943  54.577  0.00  0.00     0.030 A 
ATOM      7  F   UNL d   1      52.382  35.825  54.108  0.00  0.00    -0.204 F 
ENDROOT
BRANCH   2   8
ATOM      8  S   UNL d   1      53.837  32.870  54.062  0.00  0.00     0.285 S 
ATOM      9  O   UNL d   1      53.586  32.740  54.834  0.00  0.00    -0.198 OA
ATOM     10  O   UNL d   1      54.090  32.997  53.290  0.00  0.00    -0.198 OA
BRANCH   8  11
ATOM     11  N   UNL d   1      54.204  32.135  54.051  0.00  0.00    -0.157 NA
BRANCH  11  12
ATOM     12  C   UNL d   1      53.736  31.440  54.070  0.00  0.00     0.112 C 
BRANCH  12  13
ATOM     13  C   UNL d   1      54.011  30.743  53.748  0.00  0.00     0.021 C 
BRANCH  13  14
ATOM     14  C   UNL d   1      53.576  30.058  53.804  0.00  0.00     0.002 A 
ATOM     15  C   UNL d   1      53.714  29.514  54.421  0.00  0.00     0.000 A 
ATOM     16  C   UNL d   1      53.270  28.817  54.477  0.00  0.00     0.000 A 
ATOM     17  C   UNL d   1      52.676  28.647  53.918  0.00  0.00     0.000 A 
ATOM     18  C   UNL d   1      52.539  29.193  53.302  0.00  0.00     0.000 A 
ATOM     19  C   UNL d   1      52.983  29.889  53.246  0.00  0.00     0.000 A 
ENDBRANCH  13  14
ENDBRANCH  12  13
ENDBRANCH  11  12
ENDBRANCH   8  11
ENDBRANCH   2   8
BRANCH   1  20
ATOM     20  C   UNL d   1      51.808  34.653  53.116  0.00  0.00     0.281 C 
ATOM     21  N   UNL d   1      51.105  34.227  53.236  0.00  0.00    -0.208 NA
ATOM     22  O   UNL d   1      51.846  35.222  52.526  0.00  0.00    -0.265 OA
BRANCH  21  23
ATOM     23  C   UNL d   1      50.456  34.384  52.760  0.00  0.00     0.085 A 
ATOM     24  C   UNL d   1      50.439  34.120  51.989  0.00  0.00     0.019 A 
ATOM     25  C   UNL d   1      49.780  34.284  51.518  0.00  0.00     0.002 A 
ATOM     26  C   UNL d   1      49.140  34.710  51.817  0.00  0.00     0.000 A 
ATOM     27  C   UNL d   1      49.165  34.973  52.599  0.00  0.00     0.002 A 
ATOM     28  C   UNL d   1      48.485  34.873  51.349  0.00  0.00     0.000 C 
ATOM     29  C   UNL d   1      49.820  34.812  53.072  0.00  0.00     0.019 A 
ENDBRANCH  21  23
ENDBRANCH   1  20
TORSDOF 7
ENDMDL
MODEL 3
REMARK VINA RESULT:      -8.5      2.089      6.271
REMARK  7 active torsions:
REMARK  status: ('A' for Active; 'I' for Inactive)
REMARK    1  A    between atoms: C_4  and  S_1 
REMARK    2  A    between atoms: N_10  and  S_1 
REMARK    3  A    between atoms: C_3  and  C_2 
REMARK       I    between atoms: N_6  and  C_3 
REMARK    4  A    between atoms: C_16  and  N_6 
REMARK    5  A    between atoms: C_19  and  N_10 
REMARK    6  A    between atoms: C_12  and  C_24 
REMARK    7  A    between atoms: C_24  and  C_19 
ROOT
ATOM      1  C   UNL d   1      49.477  34.618  52.192  0.00  0.00     0.086 A 
ATOM      2  C   UNL d   1      50.727  34.202  52.740  0.00  0.00     0.106 A 
ATOM      3  C   UNL d   1      49.956  34.471  52.845  0.00  0.00     0.020 A 
ATOM      4  C   UNL d   1      49.772  34.496  51.427  0.00  0.00     0.145 A 
ATOM      5  C   UNL d   1      51.020  34.080  51.980  0.00  0.00     0.015 A 
ATOM      6  C   UNL d   1      50.541  34.228  51.323  0.00  0.00     0.030 A 
ATOM      7  F   UNL d   1      49.301  34.642  50.774  0.00  0.00    -0.204 F 
ENDROOT
BRANCH   2   8
ATOM      8  S   UNL d   1      51.210  34.052  53.393  0.00  0.00     0.285 S 
ATOM      9  O   UNL d   1      50.935  33.278  53.415  0.00  0.00    -0.198 OA
ATOM     10  O   UNL d   1      51.486  34.827  53.374  0.00  0.00    -0.198 OA
BRANCH   8  11
ATOM     11  N   UNL d   1      51.691  33.908  54.043  0.00  0.00    -0.157 NA
BRANCH  11  12
ATOM     12  C   UNL d   1      52.512  33.781  53.929  0.00  0.00     0.112 C 
BRANCH  12  13
ATOM     13  C   UNL d   1      52.944  33.340  54.462  0.00  0.00     0.021 C 
BRANCH  13  14
ATOM     14  C   UNL d   1      53.756  33.364  54.460  0.00  0.00     0.002 A 
ATOM     15  C   UNL d   1      54.193  32.970  53.868  0.00  0.00     0.000 A 
ATOM     16  C   UNL d   1      55.020  32.995  53.865  0.00  0.00     0.000 A 
ATOM     17  C   UNL d   1      55.434  33.415  54.456  0.00  0.00     0.000 A 
ATOM     18  C   UNL d   1      54.995  33.808  55.046  0.00  0.00     0.000 A 
ATOM     19  C   UNL d   1      54.167  33.783  55.048  0.00  0.00     0.000 A 
ENDBRANCH  13  14
ENDBRANCH  12  13
ENDBRANCH  11  12
ENDBRANCH   8  11
ENDBRANCH   2   8
BRANCH   1  20
ATOM     20  C   UNL d   1      48.707  34.887  52.282  0.00  0.00     0.281 C 
ATOM     21  N   UNL d   1      48.579  35.630  52.631  0.00  0.00    -0.208 NA
ATOM     22  O   UNL d   1      48.069  34.435  52.035  0.00  0.00    -0.265 OA
BRANCH  21  23
ATOM     23  C   UNL d   1      47.810  35.901  52.723  0.00  0.00     0.085 A 
ATOM     24  C   UNL d   1      47.412  36.229  52.092  0.00  0.00     0.019 A 
ATOM     25  C   UNL d   1      46.638  36.499  52.198  0.00  0.00     0.002 A 
ATOM     26  C   UNL d   1      46.263  36.441  52.930  0.00  0.00     0.000 A 
ATOM     27  C   UNL d   1      46.674  36.107  53.563  0.00  0.00     0.002 A 
ATOM     28  C   UNL d   1      45.494  36.709  53.034  0.00  0.00     0.000 C 
ATOM     29  C   UNL d   1      47.446  35.837  53.464  0.00  0.00     0.019 A 
ENDBRANCH  21  23
ENDBRANCH   1  20
TORSDOF 7
ENDMDL
MODEL 4
REMARK VINA RESULT:      -8.0      1.936      2.602
REMARK  7 active torsions:
REMARK  status: ('A' for Active; 'I' for Inactive)
REMARK    1  A    between atoms: C_4  and  S_1 
REMARK    2  A    between atoms: N_10  and  S_1 
REMARK    3  A    between atoms: C_3  and  C_2 
REMARK       I    between atoms: N_6  and  C_3 
REMARK    4  A    between atoms: C_16  and  N_6 
REMARK    5  A    between atoms: C_19  and  N_10 
REMARK    6  A    between atoms: C_12  and  C_24 
REMARK    7  A    between atoms: C_24  and  C_19 
ROOT
ATOM      1  C   UNL d   1      51.338  34.366  52.828  0.00  0.00     0.086 A 
ATOM      2  C   UNL d   1      49.974  34.785  52.823  0.00  0.00     0.106 A 
ATOM      3  C   UNL d   1      50.704  34.736  53.201  0.00  0.00     0.020 A 
ATOM      4  C   UNL d   1      51.241  34.043  52.072  0.00  0.00     0.145 A 
ATOM      5  C   UNL d   1      49.878  34.465  52.072  0.00  0.00     0.015 A 
ATOM      6  C   UNL d   1      50.513  34.093  51.696  0.00  0.00     0.030 A 
ATOM      7  F   UNL d   1      51.867  33.674  51.696  0.00  0.00    -0.204 F 
ENDROOT
BRANCH   2   8
ATOM      8  S   UNL d   1      49.336  35.156  53.195  0.00  0.00     0.285 S 
ATOM      9  O   UNL d   1      49.043  34.421  53.419  0.00  0.00    -0.198 OA
ATOM     10  O   UNL d   1      49.627  35.893  52.973  0.00  0.00    -0.198 OA
BRANCH   8  11
ATOM     11  N   UNL d   1      48.704  35.529  53.564  0.00  0.00    -0.157 NA
BRANCH  11  12
ATOM     12  C   UNL d   1      48.024  35.729  53.115  0.00  0.00     0.112 C 
BRANCH  12  13
ATOM     13  C   UNL d   1      47.440  36.202  53.432  0.00  0.00     0.021 C 
BRANCH  13  14
ATOM     14  C   UNL d   1      46.688  36.196  53.123  0.00  0.00     0.002 A 
ATOM     15  C   UNL d   1      46.540  36.494  52.357  0.00  0.00     0.000 A 
ATOM     16  C   UNL d   1      45.774  36.488  52.042  0.00  0.00     0.000 A 
ATOM     17  C   UNL d   1      45.136  36.185  52.486  0.00  0.00     0.000 A 
ATOM     18  C   UNL d   1      45.286  35.889  53.251  0.00  0.00     0.000 A 
ATOM     19  C   UNL d   1      46.052  35.894  53.565  0.00  0.00     0.000 A 
ENDBRANCH  13  14
ENDBRANCH  12  13
ENDBRANCH  11  12
ENDBRANCH   8  11
ENDBRANCH   2   8
BRANCH   1  20
ATOM     20  C   UNL d   1      52.070  34.309  53.193  0.00  0.00     0.281 C 
ATOM     21  N   UNL d   1      52.162  33.784  53.831  0.00  0.00    -0.208 NA
ATOM     22  O   UNL d   1      52.707  34.760  52.939  0.00  0.00    -0.265 OA
BRANCH  21  23
ATOM     23  C   UNL d   1      52.893  33.725  54.198  0.00  0.00     0.085 A 
ATOM     24  C   UNL d   1      53.171  34.336  54.661  0.00  0.00     0.019 A 
ATOM     25  C   UNL d   1      53.909  34.265  55.026  0.00  0.00     0.002 A 
ATOM     26  C   UNL d   1      54.368  33.586  54.929  0.00  0.00     0.000 A 
ATOM     27  C   UNL d   1      54.078  32.973  54.459  0.00  0.00     0.002 A 
ATOM     28  C   UNL d   1      55.101  33.516  55.292  0.00  0.00     0.000 C 
ATOM     29  C   UNL d   1      53.344  33.039  54.093  0.00  0.00     0.019 A 
ENDBRANCH  21  23
ENDBRANCH   1  20
TORSDOF 7
ENDMDL
MODEL 5
REMARK VINA RESULT:      -6.9      2.204      3.779
REMARK  7 active torsions:
REMARK  status: ('A' for Active; 'I' for Inactive)
REMARK    1  A    between atoms: C_4  and  S_1 
REMARK    2  A    between atoms: N_10  and  S_1 
REMARK    3  A    between atoms: C_3  and  C_2 
REMARK       I    between atoms: N_6  and  C_3 
REMARK    4  A    between atoms: C_16  and  N_6 
REMARK    5  A    between atoms: C_19  and  N_10 
REMARK    6  A    between atoms: C_12  and  C_24 
REMARK    7  A    between atoms: C_24  and  C_19 
ROOT
ATOM      1  C   UNL d   1      49.368  34.765  51.973  0.00  0.00     0.086 A 
ATOM      2  C   UNL d   1      48.199  35.518  52.292  0.00  0.00     0.106 A 
ATOM      3  C   UNL d   1      48.952  35.251  52.491  0.00  0.00     0.020 A 
ATOM      4  C   UNL d   1      49.029  34.544  51.251  0.00  0.00     0.145 A 
ATOM      5  C   UNL d   1      47.862  35.299  51.574  0.00  0.00     0.015 A 
ATOM      6  C   UNL d   1      48.278  34.811  51.053  0.00  0.00     0.030 A 
ATOM      7  F   UNL d   1      49.438  34.061  50.732  0.00  0.00    -0.204 F 
ENDROOT
BRANCH   2   8
ATOM      8  S   UNL d   1      47.779  36.006  52.810  0.00  0.00     0.285 S 
ATOM      9  O   UNL d   1      47.224  36.148  52.221  0.00  0.00    -0.198 OA
ATOM     10  O   UNL d   1      48.334  35.866  53.401  0.00  0.00    -0.198 OA
BRANCH   8  11
ATOM     11  N   UNL d   1      47.365  36.490  53.328  0.00  0.00    -0.157 NA
BRANCH  11  12
ATOM     12  C   UNL d   1      46.685  36.191  53.718  0.00  0.00     0.112 C 
BRANCH  12  13
ATOM     13  C   UNL d   1      46.186  36.690  54.127  0.00  0.00     0.021 C 
BRANCH  13  14
ATOM     14  C   UNL d   1      45.596  36.392  54.600  0.00  0.00     0.002 A 
ATOM     15  C   UNL d   1      45.457  36.709  55.360  0.00  0.00     0.000 A 
ATOM     16  C   UNL d   1      44.855  36.405  55.841  0.00  0.00     0.000 A 
ATOM     17  C   UNL d   1      44.377  35.775  55.575  0.00  0.00     0.000 A 
ATOM     18  C   UNL d   1      44.519  35.460  54.816  0.00  0.00     0.000 A 
ATOM     19  C   UNL d   1      45.120  35.764  54.335  0.00  0.00     0.000 A 
ENDBRANCH  13  14
ENDBRANCH  12  13
ENDBRANCH  11  12
ENDBRANCH   8  11
ENDBRANCH   2   8
BRANCH   1  20
ATOM     20  C   UNL d   1      50.119  34.492  52.159  0.00  0.00     0.281 C 
ATOM     21  N   UNL d   1      50.266  34.212  52.927  0.00  0.00    -0.208 NA
ATOM     22  O   UNL d   1      50.721  34.491  51.601  0.00  0.00    -0.265 OA
BRANCH  21  23
ATOM     23  C   UNL d   1      51.016  33.938  53.117  0.00  0.00     0.085 A 
ATOM     24  C   UNL d   1      51.170  33.138  53.131  0.00  0.00     0.019 A 
ATOM     25  C   UNL d   1      51.929  32.874  53.323  0.00  0.00     0.002 A 
ATOM     26  C   UNL d   1      52.533  33.408  53.500  0.00  0.00     0.000 A 
ATOM     27  C   UNL d   1      52.368  34.216  53.483  0.00  0.00     0.002 A 
ATOM     28  C   UNL d   1      53.287  33.145  53.691  0.00  0.00     0.000 C 
ATOM     29  C   UNL d   1      51.613  34.484  53.292  0.00  0.00     0.019 A 
ENDBRANCH  21  23
ENDBRANCH   1  20
TORSDOF 7
ENDMDL
MODEL 6
REMARK VINA RESULT:      -6.5      2.527      6.359
REMARK  7 active torsions:
REMARK  status: ('A' for Active; 'I' for Inactive)
REMARK    1  A    between atoms: C_4  and  S_1 
REMARK    2  A    between atoms: N_10  and  S_1 
REMARK    3  A    between atoms: C_3  and  C_2 
REMARK       I    between atoms: N_6  and  C_3 
REMARK    4  A    between atoms: C_16  and  N_6 
REMARK    5  A    between atoms: C_19  and  N_10 
REMARK    6  A    between atoms: C_12  and  C_24 
REMARK    7  A    between atoms: C_24  and  C_19 
ROOT
ATOM      1  C   UNL d   1      47.936  35.554  52.295  0.00  0.00     0.086 A 
ATOM      2  C   UNL d   1      49.111  34.836  51.920  0.00  0.00     0.106 A 
ATOM      3  C   UNL d   1      48.631  35.164  52.503  0.00  0.00     0.020 A 
ATOM      4  C   UNL d   1      47.720  35.616  51.498  0.00  0.00     0.145 A 
ATOM      5  C   UNL d   1      48.897  34.898  51.128  0.00  0.00     0.015 A 
ATOM      6  C   UNL d   1      48.200  35.289  50.918  0.00  0.00     0.030 A 
ATOM      7  F   UNL d   1      47.031  36.003  51.285  0.00  0.00    -0.204 F 
ENDROOT
BRANCH   2   8
ATOM      8  S   UNL d   1      49.809  34.444  52.127  0.00  0.00     0.285 S 
ATOM      9  O   UNL d   1      49.590  34.480  52.919  0.00  0.00    -0.198 OA
ATOM     10  O   UNL d   1      50.030  34.407  51.335  0.00  0.00    -0.198 OA
BRANCH   8  11
ATOM     11  N   UNL d   1      50.503  34.055  52.328  0.00  0.00    -0.157 NA
BRANCH  11  12
ATOM     12  C   UNL d   1      51.095  34.463  52.759  0.00  0.00     0.112 C 
BRANCH  12  13
ATOM     13  C   UNL d   1      51.872  34.215  52.739  0.00  0.00     0.021 C 
BRANCH  13  14
ATOM     14  C   UNL d   1      52.358  34.317  53.382  0.00  0.00     0.002 A 
ATOM     15  C   UNL d   1      52.717  33.661  53.754  0.00  0.00     0.000 A 
ATOM     16  C   UNL d   1      53.212  33.766  54.410  0.00  0.00     0.000 A 
ATOM     17  C   UNL d   1      53.362  34.529  54.711  0.00  0.00     0.000 A 
ATOM     18  C   UNL d   1      53.002  35.182  54.337  0.00  0.00     0.000 A 
ATOM     19  C   UNL d   1      52.507  35.078  53.682  0.00  0.00     0.000 A 
ENDBRANCH  13  14
ENDBRANCH  12  13
ENDBRANCH  11  12
ENDBRANCH   8  11
ENDBRANCH   2   8
BRANCH   1  20
ATOM     20  C   UNL d   1      47.449  35.885  52.866  0.00  0.00     0.281 C 
ATOM     21  N   UNL d   1      47.003  35.383  53.355  0.00  0.00    -0.208 NA
ATOM     22  O   UNL d   1      47.396  36.699  52.958  0.00  0.00    -0.265 OA
BRANCH  21  23
ATOM     23  C   UNL d   1      46.515  35.711  53.926  0.00  0.00     0.085 A 
ATOM     24  C   UNL d   1      45.705  35.683  53.840  0.00  0.00     0.019 A 
ATOM     25  C   UNL d   1      45.223  36.017  54.422  0.00  0.00     0.002 A 
ATOM     26  C   UNL d   1      45.549  36.378  55.089  0.00  0.00     0.000 A 
ATOM     27  C   UNL d   1      46.371  36.401  55.168  0.00  0.00     0.002 A 
ATOM     28  C   UNL d   1      45.070  36.709  55.667  0.00  0.00     0.000 C 
ATOM     29  C   UNL d   1      46.855  36.070  54.591  0.00  0.00     0.019 A 
ENDBRANCH  21  23
ENDBRANCH   1  20
TORSDOF 7
ENDMDL
