MODEL 1
REMARK VINA RESULT:      -5.1      0.000      0.000
REMARK  4 active torsions:
REMARK  status: ('A' for Active; 'I' for Inactive)
REMARK    1  A    between atoms: N_8  and  S_1 
REMARK    2  A    between atoms: C_12  and  S_1 
REMARK    3  A    between atoms: C_5  and  C_9 
REMARK    4  A    between atoms: C_15  and  N_8 
ROOT
ATOM      1  C   UNL d   1     -41.718-122.862 -52.472  0.00  0.00     0.021 A 
ATOM      2  C   UNL d   1     -41.929-122.746 -51.067  0.00  0.00     0.094 A 
ATOM      3  C   UNL d   1     -42.054-122.470 -51.833  0.00  0.00     0.021 A 
ATOM      4  C   UNL d   1     -41.251-123.536 -52.361  0.00  0.00     0.002 A 
ATOM      5  C   UNL d   1     -41.123-123.817 -51.589  0.00  0.00     0.002 A 
ATOM      6  C   UNL d   1     -41.460-123.426 -50.936  0.00  0.00     0.020 A 
ENDROOT
BRANCH   2   7
ATOM      7  N   UNL d   1     -42.265-122.354 -50.428  0.00  0.00    -0.158 NA
BRANCH   7   8
ATOM      8  S   UNL d   1     -42.796-122.750 -49.938  0.00  0.00     0.285 S 
ATOM      9  O   UNL d   1     -43.446-122.922 -50.417  0.00  0.00    -0.198 OA
ATOM     10  O   UNL d   1     -43.449-123.153 -49.627  0.00  0.00    -0.198 OA
BRANCH   8  11
ATOM     11  C   UNL d   1     -42.598-122.885 -49.148  0.00  0.00     0.105 A 
ATOM     12  C   UNL d   1     -42.750-123.615 -48.804  0.00  0.00     0.013 A 
ATOM     13  C   UNL d   1     -42.552-123.747 -48.018  0.00  0.00     0.001 A 
ATOM     14  C   UNL d   1     -42.198-123.142 -47.571  0.00  0.00     0.000 A 
ATOM     15  C   UNL d   1     -42.049-122.409 -47.929  0.00  0.00     0.001 A 
ATOM     16  C   UNL d   1     -42.247-122.283 -48.709  0.00  0.00     0.013 A 
ENDBRANCH   8  11
ENDBRANCH   7   8
ENDBRANCH   2   7
BRANCH   1  17
ATOM     17  C   UNL d   1     -41.843-122.584 -53.241  0.00  0.00     0.118 A 
ATOM     18  N   UNL d   1     -42.516-122.198 -53.524  0.00  0.00    -0.059 NA
ATOM     19  C   UNL d   1     -42.397-122.025 -54.318  0.00  0.00     0.735 A 
ATOM     20  N   UNL d   1     -42.882-121.645 -54.875  0.00  0.00    -0.059 NA
ATOM     21  N   UNL d   1     -41.652-122.301 -54.533  0.00  0.00    -0.136 N 
ATOM     22  C   UNL d   1     -42.613-121.545 -55.648  0.00  0.00     0.119 A 
ATOM     23  C   UNL d   1     -41.869-121.820 -55.868  0.00  0.00     0.041 A 
ATOM     24  C   UNL d   1     -41.389-122.195 -55.317  0.00  0.00     0.100 A 
ATOM     25  C   UNL d   1     -41.307-122.647 -53.870  0.00  0.00     0.118 A 
ENDBRANCH   1  17
TORSDOF 4
ENDMDL
MODEL 2
REMARK VINA RESULT:      -4.7      1.717      5.471
REMARK  4 active torsions:
REMARK  status: ('A' for Active; 'I' for Inactive)
REMARK    1  A    between atoms: N_8  and  S_1 
REMARK    2  A    between atoms: C_12  and  S_1 
REMARK    3  A    between atoms: C_5  and  C_9 
REMARK    4  A    between atoms: C_15  and  N_8 
ROOT
ATOM      1  C   UNL d   1     -42.420-122.693 -50.045  0.00  0.00     0.021 A 
ATOM      2  C   UNL d   1     -42.018-122.678 -51.413  0.00  0.00     0.094 A 
ATOM      3  C   UNL d   1     -41.882-122.899 -50.631  0.00  0.00     0.021 A 
ATOM      4  C   UNL d   1     -43.102-122.262 -50.226  0.00  0.00     0.002 A 
ATOM      5  C   UNL d   1     -43.243-122.037 -51.013  0.00  0.00     0.002 A 
ATOM      6  C   UNL d   1     -42.704-122.242 -51.613  0.00  0.00     0.020 A 
ENDROOT
BRANCH   2   7
ATOM      7  N   UNL d   1     -41.481-122.885 -51.999  0.00  0.00    -0.158 NA
BRANCH   7   8
ATOM      8  S   UNL d   1     -41.344-122.371 -52.628  0.00  0.00     0.285 S 
ATOM      9  O   UNL d   1     -41.123-121.656 -52.280  0.00  0.00    -0.198 OA
ATOM     10  O   UNL d   1     -41.161-121.715 -53.100  0.00  0.00    -0.198 OA
BRANCH   8  11
ATOM     11  C   UNL d   1     -41.444-122.640 -53.403  0.00  0.00     0.105 A 
ATOM     12  C   UNL d   1     -41.773-122.147 -53.971  0.00  0.00     0.013 A 
ATOM     13  C   UNL d   1     -41.872-122.416 -54.740  0.00  0.00     0.001 A 
ATOM     14  C   UNL d   1     -41.638-123.188 -54.944  0.00  0.00     0.000 A 
ATOM     15  C   UNL d   1     -41.306-123.677 -54.362  0.00  0.00     0.001 A 
ATOM     16  C   UNL d   1     -41.211-123.405 -53.600  0.00  0.00     0.013 A 
ENDBRANCH   8  11
ENDBRANCH   7   8
ENDBRANCH   2   7
BRANCH   1  17
ATOM     17  C   UNL d   1     -42.283-122.915 -49.260  0.00  0.00     0.118 A 
ATOM     18  N   UNL d   1     -41.597-122.782 -48.821  0.00  0.00    -0.059 NA
ATOM     19  C   UNL d   1     -41.708-123.097 -48.070  0.00  0.00     0.735 A 
ATOM     20  N   UNL d   1     -41.209-123.123 -47.407  0.00  0.00    -0.059 NA
ATOM     21  N   UNL d   1     -42.461-123.427 -48.038  0.00  0.00    -0.136 N 
ATOM     22  C   UNL d   1     -41.471-123.481 -46.714  0.00  0.00     0.119 A 
ATOM     23  C   UNL d   1     -42.224-123.813 -46.676  0.00  0.00     0.041 A 
ATOM     24  C   UNL d   1     -42.718-123.788 -47.333  0.00  0.00     0.100 A 
ATOM     25  C   UNL d   1     -42.819-123.317 -48.772  0.00  0.00     0.118 A 
ENDBRANCH   1  17
TORSDOF 4
ENDMDL
