MODEL 1
REMARK VINA RESULT:      18.2      0.000      0.000
REMARK  6 active torsions:
REMARK  status: ('A' for Active; 'I' for Inactive)
REMARK    1  A    between atoms: C_9  and  C_3 
REMARK    2  A    between atoms: C_4  and  C_18 
REMARK       I    between atoms: N_7  and  C_4 
REMARK    3  A    between atoms: S_11  and  C_5 
REMARK       I    between atoms: C_6  and  N_8 
REMARK    4  A    between atoms: C_12  and  N_7 
REMARK    5  A    between atoms: N_8  and  C_13 
REMARK    6  A    between atoms: C_18  and  S_11 
ROOT
ATOM      1  C   UNL d   1      45.467 -17.386  44.609  0.00  0.00     0.099 C 
ENDROOT
BRANCH   1   2
ATOM      2  C   UNL d   1      45.859 -17.919  44.122  0.00  0.00     0.286 C 
ATOM      3  N   UNL d   1      45.467 -18.589  43.841  0.00  0.00    -0.207 NA
ATOM      4  O   UNL d   1      46.646 -17.787  43.913  0.00  0.00    -0.265 OA
BRANCH   3   5
ATOM      5  C   UNL d   1      45.861 -19.126  43.351  0.00  0.00     0.086 A 
ATOM      6  C   UNL d   1      45.879 -18.997  42.541  0.00  0.00     0.038 A 
ATOM      7  C   UNL d   1      46.273 -19.533  42.051  0.00  0.00     0.086 A 
ATOM      8  C   UNL d   1      46.645 -20.192  42.383  0.00  0.00     0.019 A 
ATOM      9  C   UNL d   1      46.619 -20.308  43.200  0.00  0.00     0.003 A 
ATOM     10  C   UNL d   1      46.231 -19.780  43.682  0.00  0.00     0.019 A 
BRANCH   7  11
ATOM     11  N   UNL d   1      46.294 -19.410  41.236  0.00  0.00    -0.208 NA
ATOM     12  C   UNL d   1      46.448 -18.663  40.933  0.00  0.00     0.279 C 
ATOM     13  O   UNL d   1      46.583 -18.026  41.456  0.00  0.00    -0.265 OA
ATOM     14  C   UNL d   1      46.471 -18.533  40.122  0.00  0.00     0.068 C 
ENDBRANCH   7  11
ENDBRANCH   3   5
ENDBRANCH   1   2
BRANCH   1  15
ATOM     15  S   UNL d   1      45.885 -16.769  44.954  0.00  0.00    -0.061 SA
BRANCH  15  16
ATOM     16  C   UNL d   1      45.750 -15.990  44.718  0.00  0.00     0.133 A 
ATOM     17  N   UNL d   1      44.987 -15.713  44.610  0.00  0.00    -0.141 NA
ATOM     18  N   UNL d   1      44.852 -14.934  44.374  0.00  0.00    -0.148 NA
ATOM     19  C   UNL d   1      45.492 -14.423  44.243  0.00  0.00     0.104 A 
ATOM     20  C   UNL d   1      46.264 -14.700  44.351  0.00  0.00     0.023 A 
ATOM     21  C   UNL d   1      46.395 -15.478  44.586  0.00  0.00     0.029 A 
BRANCH  19  22
ATOM     22  C   UNL d   1      45.357 -13.645  44.006  0.00  0.00     0.039 A 
ATOM     23  C   UNL d   1      45.583 -13.031  44.492  0.00  0.00     0.101 A 
ATOM     24  N   UNL d   1      45.451 -12.257  44.261  0.00  0.00    -0.242 NA
ATOM     25  C   UNL d   1      45.086 -12.100  43.530  0.00  0.00     0.099 A 
ATOM     26  C   UNL d   1      44.862 -12.719  43.045  0.00  0.00     0.021 A 
ATOM     27  C   UNL d   1      44.993 -13.502  43.274  0.00  0.00     0.005 A 
ENDBRANCH  19  22
ENDBRANCH  15  16
ENDBRANCH   1  15
TORSDOF 6
ENDMDL
