MODEL 1
REMARK VINA RESULT:      65.0      0.000      0.000
REMARK  7 active torsions:
REMARK  status: ('A' for Active; 'I' for Inactive)
REMARK    1  A    between atoms: S_2  and  C_1 
REMARK    2  A    between atoms: C_7  and  S_2 
REMARK    3  A    between atoms: C_9  and  N_3 
REMARK    4  A    between atoms: C_11  and  C_7 
REMARK    5  A    between atoms: C_8  and  C_9 
REMARK       I    between atoms: N_10  and  C_8 
REMARK       I    between atoms: N_15  and  C_11 
REMARK    6  A    between atoms: C_12  and  C_16 
REMARK    7  A    between atoms: C_23  and  N_15 
ROOT
ATOM      1  C   UNL d   1     -55.197-101.373 -43.376  0.00  0.00     0.107 A 
ATOM      2  N   UNL d   1     -55.520-100.164 -43.829  0.00  0.00    -0.299 N 
ATOM      3  C   UNL d   1     -55.391-100.602 -43.144  0.00  0.00     0.092 A 
ATOM      4  C   UNL d   1     -55.209-101.404 -44.201  0.00  0.00     0.028 A 
ATOM      5  C   UNL d   1     -55.410-100.652 -44.480  0.00  0.00     0.065 A 
ATOM      6  C   UNL d   1     -55.064-102.017 -44.729  0.00  0.00     0.002 A 
ATOM      7  C   UNL d   1     -55.463-100.522 -45.292  0.00  0.00     0.018 A 
ATOM      8  C   UNL d   1     -55.117-101.887 -45.546  0.00  0.00     0.000 A 
ATOM      9  C   UNL d   1     -55.318-101.135 -45.822  0.00  0.00     0.002 A 
ENDROOT
BRANCH   1  10
ATOM     10  S   UNL d   1     -55.022-102.004 -42.868  0.00  0.00     0.217 S 
ATOM     11  O   UNL d   1     -54.729-102.469 -43.475  0.00  0.00    -0.217 OA
ATOM     12  O   UNL d   1     -55.321-101.529 -42.254  0.00  0.00    -0.217 OA
BRANCH  10  13
ATOM     13  C   UNL d   1     -54.849-102.633 -42.355  0.00  0.00     0.161 C 
BRANCH  13  14
ATOM     14  C   UNL d   1     -55.210-102.674 -41.627  0.00  0.00     0.291 C 
ATOM     15  N   UNL d   1     -54.774-102.554 -40.937  0.00  0.00    -0.207 NA
ATOM     16  O   UNL d   1     -56.021-102.837 -41.576  0.00  0.00    -0.264 OA
BRANCH  15  17
ATOM     17  C   UNL d   1     -55.144-102.597 -40.201  0.00  0.00     0.085 A 
ATOM     18  C   UNL d   1     -55.938-102.824 -40.143  0.00  0.00     0.019 A 
ATOM     19  C   UNL d   1     -56.311-102.869 -39.413  0.00  0.00     0.006 A 
ATOM     20  C   UNL d   1     -55.891-102.684 -38.719  0.00  0.00     0.059 A 
ATOM     21  C   UNL d   1     -55.099-102.455 -38.764  0.00  0.00     0.006 A 
ATOM     22  C   UNL d   1     -54.720-102.411 -39.509  0.00  0.00     0.019 A 
BRANCH  20  23
ATOM     23  C   UNL d   1     -56.254-102.725 -37.987  0.00  0.00     0.297 C 
ATOM     24  O   UNL d   1     -57.080-102.698 -37.917  0.00  0.00    -0.264 OA
ATOM     25  N   UNL d   1     -55.784-102.794 -37.297  0.00  0.00    -0.102 N 
ENDBRANCH  20  23
ENDBRANCH  15  17
ENDBRANCH  13  14
ENDBRANCH  10  13
ENDBRANCH   1  10
BRANCH   2  26
ATOM     26  C   UNL d   1     -55.726 -99.366 -43.856  0.00  0.00     0.142 C 
BRANCH  26  27
ATOM     27  C   UNL d   1     -56.157 -99.073 -44.492  0.00  0.00     0.282 C 
ATOM     28  N   UNL d   1     -56.980 -99.063 -44.464  0.00  0.00    -0.271 N 
ATOM     29  C   UNL d   1     -57.451 -99.325 -43.844  0.00  0.00     0.083 A 
ATOM     30  C   UNL d   1     -57.485 -98.786 -45.061  0.00  0.00     0.083 A 
ATOM     31  C   UNL d   1     -58.239 -99.215 -44.045  0.00  0.00     0.021 A 
ATOM     32  C   UNL d   1     -58.264 -98.881 -44.799  0.00  0.00     0.021 A 
ATOM     33  O   UNL d   1     -55.763 -98.790 -45.157  0.00  0.00    -0.265 OA
ENDBRANCH  26  27
ENDBRANCH   2  26
TORSDOF 7
ENDMDL
