MODEL 1
REMARK VINA RESULT:      64.9      0.000      0.000
REMARK  6 active torsions:
REMARK  status: ('A' for Active; 'I' for Inactive)
REMARK    1  A    between atoms: C_6  and  N_1 
REMARK    2  A    between atoms: C_13  and  C_6 
REMARK    3  A    between atoms: C_8  and  C_9 
REMARK    4  A    between atoms: C_16  and  C_13 
REMARK    5  A    between atoms: O_14  and  C_16 
REMARK    6  A    between atoms: C_15  and  O_14 
ROOT
ATOM      1  C   UNL d   1      61.230  49.172  50.042  0.00  0.00     0.237 C 
ATOM      2  O   UNL d   1      61.431  49.459  49.286  0.00  0.00    -0.283 OA
ENDROOT
BRANCH   1   3
ATOM      3  C   UNL d   1      61.045  49.706  50.651  0.00  0.00     0.117 C 
BRANCH   3   4
ATOM      4  N   UNL d   1      60.290  49.707  50.990  0.00  0.00    -0.344 N 
ATOM      5  C   UNL d   1      60.207  49.707  51.819  0.00  0.00     0.086 A 
ATOM      6  C   UNL d   1      59.457  49.707  52.158  0.00  0.00     0.035 A 
ATOM      7  C   UNL d   1      60.129  49.708  52.640  0.00  0.00     0.027 C 
ATOM      8  C   UNL d   1      60.961  49.707  51.481  0.00  0.00     0.027 C 
ATOM      9  C   UNL d   1      58.781  49.707  51.676  0.00  0.00     0.191 A 
ATOM     10  C   UNL d   1      58.864  49.706  50.847  0.00  0.00     0.035 A 
ATOM     11  O   UNL d   1      58.030  49.707  52.015  0.00  0.00    -0.287 OA
ATOM     12  C   UNL d   1      59.623  49.706  50.508  0.00  0.00     0.086 A 
ATOM     13  C   UNL d   1      60.373  49.706  50.169  0.00  0.00     0.027 C 
ATOM     14  C   UNL d   1      58.955  49.706  50.027  0.00  0.00     0.027 C 
ENDBRANCH   3   4
ENDBRANCH   1   3
BRANCH   1  15
ATOM     15  C   UNL d   1      61.212  48.368  50.191  0.00  0.00     0.166 C 
BRANCH  15  16
ATOM     16  O   UNL d   1      61.823  47.878  49.916  0.00  0.00    -0.302 OA
BRANCH  16  17
ATOM     17  C   UNL d   1      61.719  47.049  49.883  0.00  0.00     0.100 A 
ATOM     18  C   UNL d   1      62.005  46.615  49.242  0.00  0.00     0.025 A 
ATOM     19  C   UNL d   1      61.898  45.800  49.217  0.00  0.00     0.005 A 
ATOM     20  C   UNL d   1      61.506  45.411  49.830  0.00  0.00     0.039 A 
ATOM     21  C   UNL d   1      61.219  45.847  50.474  0.00  0.00     0.005 A 
ATOM     22  C   UNL d   1      61.327  46.667  50.498  0.00  0.00     0.025 A 
BRANCH  20  23
ATOM     23  C   UNL d   1      61.405  44.595  49.795  0.00  0.00     0.196 C 
ATOM     24  O   UNL d   1      61.317  44.151  50.485  0.00  0.00    -0.287 OA
ATOM     25  C   UNL d   1      61.391  44.219  49.058  0.00  0.00     0.045 C 
ENDBRANCH  20  23
ENDBRANCH  16  17
ENDBRANCH  15  16
ENDBRANCH   1  15
TORSDOF 6
ENDMDL
