MODEL 1
REMARK VINA RESULT:      36.9      0.000      0.000
REMARK  6 active torsions:
REMARK  status: ('A' for Active; 'I' for Inactive)
REMARK    1  A    between atoms: C_3  and  N_1 
REMARK    2  A    between atoms: N_9  and  C_3 
REMARK    3  A    between atoms: C_7  and  C_4 
REMARK    4  A    between atoms: C_8  and  C_5 
REMARK    5  A    between atoms: C_16  and  N_9 
REMARK    6  A    between atoms: O_17  and  C_13 
ROOT
ATOM      1  N   UNL d   1      46.244 -17.662  43.328  0.00  0.00    -0.201 N 
ATOM      2  N   UNL d   1      46.147 -16.841  43.368  0.00  0.00    -0.163 NA
ATOM      3  C   UNL d   1      45.947 -16.652  44.149  0.00  0.00     0.105 A 
ATOM      4  C   UNL d   1      46.109 -17.990  44.069  0.00  0.00     0.110 A 
ATOM      5  C   UNL d   1      45.928 -17.343  44.555  0.00  0.00     0.042 A 
ENDROOT
BRANCH   1   6
ATOM      6  C   UNL d   1      46.446 -18.087  42.651  0.00  0.00     0.222 C 
ATOM      7  S   UNL d   1      46.620 -17.380  42.268  0.00  0.00    -0.037 SA
BRANCH   6   8
ATOM      8  N   UNL d   1      46.647 -18.525  41.972  0.00  0.00    -0.217 NA
BRANCH   8   9
ATOM      9  C   UNL d   1      46.209 -18.438  41.305  0.00  0.00     0.084 A 
ATOM     10  C   UNL d   1      45.378 -18.532  41.313  0.00  0.00     0.019 A 
ATOM     11  C   UNL d   1      44.959 -18.437  40.616  0.00  0.00     0.002 A 
ATOM     12  C   UNL d   1      45.322 -18.255  39.920  0.00  0.00     0.000 A 
ATOM     13  C   UNL d   1      46.148 -18.156  39.888  0.00  0.00     0.002 A 
ATOM     14  C   UNL d   1      46.591 -18.248  40.580  0.00  0.00     0.019 A 
ENDBRANCH   8   9
ENDBRANCH   6   8
ENDBRANCH   1   6
BRANCH   4  15
ATOM     15  C   UNL d   1      46.157 -18.959  44.312  0.00  0.00     0.118 A 
ATOM     16  O   UNL d   1      46.616 -19.297  44.948  0.00  0.00    -0.304 OA
ATOM     17  C   UNL d   1      46.498 -20.110  44.954  0.00  0.00     0.123 A 
ATOM     18  C   UNL d   1      45.979 -20.300  44.342  0.00  0.00     0.029 A 
ATOM     19  C   UNL d   1      45.773 -19.625  43.958  0.00  0.00     0.028 A 
ENDBRANCH   4  15
BRANCH   3  20
ATOM     20  C   UNL d   1      45.789 -15.840  44.456  0.00  0.00     0.042 A 
ATOM     21  C   UNL d   1      45.878 -15.083  44.698  0.00  0.00     0.096 A 
ATOM     22  C   UNL d   1      45.238 -14.717  44.943  0.00  0.00     0.024 A 
ATOM     23  C   UNL d   1      44.500 -15.084  44.955  0.00  0.00     0.002 A 
ATOM     24  C   UNL d   1      44.401 -15.818  44.722  0.00  0.00     0.000 A 
ATOM     25  C   UNL d   1      45.051 -16.208  44.468  0.00  0.00     0.004 A 
BRANCH  21  26
ATOM     26  O   UNL d   1      46.616 -14.716  44.686  0.00  0.00    -0.328 OA
ATOM     27  C   UNL d   1      46.647 -13.968  44.627  0.00  0.00     0.181 C 
ENDBRANCH  21  26
ENDBRANCH   3  20
TORSDOF 6
ENDMDL
