MODEL 1
REMARK VINA RESULT:      -7.3      0.000      0.000
REMARK  5 active torsions:
REMARK  status: ('A' for Active; 'I' for Inactive)
REMARK    1  A    between atoms: N_2  and  S_1 
REMARK    2  A    between atoms: C_7  and  S_1 
REMARK    3  A    between atoms: C_3  and  N_2 
REMARK       I    between atoms: C_11  and  N_12 
REMARK    4  A    between atoms: C_19  and  C_11 
REMARK    5  A    between atoms: N_12  and  C_16 
ROOT
ATOM      1  C   UNL d   1     -47.451  13.454  22.504  0.00  0.00     0.105 A 
ATOM      2  C   UNL d   1     -47.800  12.848  22.056  0.00  0.00     0.015 A 
ATOM      3  C   UNL d   1     -47.806  14.160  22.600  0.00  0.00     0.015 A 
ATOM      4  C   UNL d   1     -48.899  13.677  21.789  0.00  0.00     0.085 A 
ATOM      5  C   UNL d   1     -48.522  12.968  21.704  0.00  0.00     0.020 A 
ATOM      6  C   UNL d   1     -48.548  14.283  22.237  0.00  0.00     0.020 A 
ENDROOT
BRANCH   1   7
ATOM      7  S   UNL d   1     -46.703  13.319  22.865  0.00  0.00     0.287 S 
ATOM      8  O   UNL d   1     -46.489  14.135  22.752  0.00  0.00    -0.198 OA
ATOM      9  O   UNL d   1     -46.903  12.527  22.978  0.00  0.00    -0.198 OA
BRANCH   7  10
ATOM     10  N   UNL d   1     -45.964  13.180  23.224  0.00  0.00    -0.137 NA
BRANCH  10  11
ATOM     11  C   UNL d   1     -45.322  12.897  22.769  0.00  0.00     0.203 A 
ATOM     12  N   UNL d   1     -45.045  12.142  22.905  0.00  0.00    -0.106 NA
ATOM     13  O   UNL d   1     -44.415  12.029  22.372  0.00  0.00    -0.210 OA
ATOM     14  C   UNL d   1     -44.321  12.704  21.930  0.00  0.00     0.128 A 
ATOM     15  C   UNL d   1     -44.895  13.261  22.177  0.00  0.00     0.069 A 
ATOM     16  C   UNL d   1     -43.759  12.822  21.340  0.00  0.00     0.029 C 
ENDBRANCH  10  11
ENDBRANCH   7  10
ENDBRANCH   1   7
BRANCH   4  17
ATOM     17  N   UNL d   1     -49.640  13.808  21.429  0.00  0.00    -0.208 NA
ATOM     18  C   UNL d   1     -50.326  13.560  21.800  0.00  0.00     0.279 C 
ATOM     19  O   UNL d   1     -51.062  13.690  21.444  0.00  0.00    -0.265 OA
BRANCH  18  20
ATOM     20  C   UNL d   1     -50.280  13.185  22.523  0.00  0.00     0.062 C 
ATOM     21  C   UNL d   1     -50.980  12.979  22.944  0.00  0.00     0.005 C 
ENDBRANCH  18  20
ENDBRANCH   4  17
TORSDOF 5
ENDMDL
MODEL 2
REMARK VINA RESULT:      -6.9      1.428      4.675
REMARK  5 active torsions:
REMARK  status: ('A' for Active; 'I' for Inactive)
REMARK    1  A    between atoms: N_2  and  S_1 
REMARK    2  A    between atoms: C_7  and  S_1 
REMARK    3  A    between atoms: C_3  and  N_2 
REMARK       I    between atoms: C_11  and  N_12 
REMARK    4  A    between atoms: C_19  and  C_11 
REMARK    5  A    between atoms: N_12  and  C_16 
ROOT
ATOM      1  C   UNL d   1     -47.365  13.910  22.533  0.00  0.00     0.105 A 
ATOM      2  C   UNL d   1     -47.346  13.167  22.162  0.00  0.00     0.015 A 
ATOM      3  C   UNL d   1     -46.802  14.134  23.048  0.00  0.00     0.015 A 
ATOM      4  C   UNL d   1     -46.160  12.857  22.842  0.00  0.00     0.085 A 
ATOM      5  C   UNL d   1     -46.742  12.649  22.322  0.00  0.00     0.020 A 
ATOM      6  C   UNL d   1     -46.181  13.601  23.212  0.00  0.00     0.020 A 
ENDROOT
BRANCH   1   7
ATOM      7  S   UNL d   1     -47.997  14.440  22.359  0.00  0.00     0.287 S 
ATOM      8  O   UNL d   1     -47.630  15.048  22.828  0.00  0.00    -0.198 OA
ATOM      9  O   UNL d   1     -48.358  13.855  21.903  0.00  0.00    -0.198 OA
BRANCH   7  10
ATOM     10  N   UNL d   1     -48.624  14.959  22.185  0.00  0.00    -0.137 NA
BRANCH  10  11
ATOM     11  C   UNL d   1     -49.294  14.992  22.682  0.00  0.00     0.203 A 
ATOM     12  N   UNL d   1     -49.444  15.677  23.100  0.00  0.00    -0.106 NA
ATOM     13  O   UNL d   1     -50.139  15.534  23.535  0.00  0.00    -0.210 OA
ATOM     14  C   UNL d   1     -50.396  14.779  23.379  0.00  0.00     0.128 A 
ATOM     15  C   UNL d   1     -49.863  14.428  22.837  0.00  0.00     0.069 A 
ATOM     16  C   UNL d   1     -51.064  14.420  23.698  0.00  0.00     0.029 C 
ENDBRANCH  10  11
ENDBRANCH   7  10
ENDBRANCH   1   7
BRANCH   4  17
ATOM     17  N   UNL d   1     -45.536  12.330  23.012  0.00  0.00    -0.208 NA
ATOM     18  C   UNL d   1     -44.847  12.354  22.571  0.00  0.00     0.279 C 
ATOM     19  O   UNL d   1     -44.227  11.831  22.740  0.00  0.00    -0.265 OA
BRANCH  18  20
ATOM     20  C   UNL d   1     -44.774  12.896  21.966  0.00  0.00     0.062 C 
ATOM     21  C   UNL d   1     -44.086  12.905  21.480  0.00  0.00     0.005 C 
ENDBRANCH  18  20
ENDBRANCH   4  17
TORSDOF 5
ENDMDL
MODEL 3
REMARK VINA RESULT:      -6.7      1.594      4.746
REMARK  5 active torsions:
REMARK  status: ('A' for Active; 'I' for Inactive)
REMARK    1  A    between atoms: N_2  and  S_1 
REMARK    2  A    between atoms: C_7  and  S_1 
REMARK    3  A    between atoms: C_3  and  N_2 
REMARK       I    between atoms: C_11  and  N_12 
REMARK    4  A    between atoms: C_19  and  C_11 
REMARK    5  A    between atoms: N_12  and  C_16 
ROOT
ATOM      1  C   UNL d   1     -48.426  11.994  23.219  0.00  0.00     0.105 A 
ATOM      2  C   UNL d   1     -47.986  12.565  23.631  0.00  0.00     0.015 A 
ATOM      3  C   UNL d   1     -48.078  11.362  22.882  0.00  0.00     0.015 A 
ATOM      4  C   UNL d   1     -46.808  11.854  23.363  0.00  0.00     0.085 A 
ATOM      5  C   UNL d   1     -47.181  12.487  23.698  0.00  0.00     0.020 A 
ATOM      6  C   UNL d   1     -47.249  11.283  22.951  0.00  0.00     0.020 A 
ENDROOT
BRANCH   1   7
ATOM      7  S   UNL d   1     -49.261  12.084  23.156  0.00  0.00     0.287 S 
ATOM      8  O   UNL d   1     -49.300  11.440  22.602  0.00  0.00    -0.198 OA
ATOM      9  O   UNL d   1     -49.230  12.710  23.693  0.00  0.00    -0.198 OA
BRANCH   7  10
ATOM     10  N   UNL d   1     -50.086  12.178  23.097  0.00  0.00    -0.137 NA
BRANCH  10  11
ATOM     11  C   UNL d   1     -50.409  12.742  22.573  0.00  0.00     0.203 A 
ATOM     12  N   UNL d   1     -50.685  12.494  21.846  0.00  0.00    -0.106 NA
ATOM     13  O   UNL d   1     -50.967  13.176  21.461  0.00  0.00    -0.210 OA
ATOM     14  C   UNL d   1     -50.860  13.816  21.950  0.00  0.00     0.128 A 
ATOM     15  C   UNL d   1     -50.505  13.548  22.659  0.00  0.00     0.069 A 
ATOM     16  C   UNL d   1     -51.064  14.595  21.778  0.00  0.00     0.029 C 
ENDBRANCH  10  11
ENDBRANCH   7  10
ENDBRANCH   1   7
BRANCH   4  17
ATOM     17  N   UNL d   1     -45.981  11.767  23.427  0.00  0.00    -0.208 NA
ATOM     18  C   UNL d   1     -45.482  12.232  22.976  0.00  0.00     0.279 C 
ATOM     19  O   UNL d   1     -44.661  12.146  23.040  0.00  0.00    -0.265 OA
BRANCH  18  20
ATOM     20  C   UNL d   1     -45.799  12.782  22.463  0.00  0.00     0.062 C 
ATOM     21  C   UNL d   1     -45.297  13.272  21.997  0.00  0.00     0.005 C 
ENDBRANCH  18  20
ENDBRANCH   4  17
TORSDOF 5
ENDMDL
MODEL 4
REMARK VINA RESULT:      -5.9      7.803      9.017
REMARK  5 active torsions:
REMARK  status: ('A' for Active; 'I' for Inactive)
REMARK    1  A    between atoms: N_2  and  S_1 
REMARK    2  A    between atoms: C_7  and  S_1 
REMARK    3  A    between atoms: C_3  and  N_2 
REMARK       I    between atoms: C_11  and  N_12 
REMARK    4  A    between atoms: C_19  and  C_11 
REMARK    5  A    between atoms: N_12  and  C_16 
ROOT
ATOM      1  C   UNL d   1     -40.489  14.901  19.296  0.00  0.00     0.105 A 
ATOM      2  C   UNL d   1     -40.362  15.698  19.488  0.00  0.00     0.015 A 
ATOM      3  C   UNL d   1     -40.539  14.339  19.858  0.00  0.00     0.015 A 
ATOM      4  C   UNL d   1     -40.333  15.367  20.850  0.00  0.00     0.085 A 
ATOM      5  C   UNL d   1     -40.285  15.922  20.264  0.00  0.00     0.020 A 
ATOM      6  C   UNL d   1     -40.460  14.569  20.656  0.00  0.00     0.020 A 
ENDROOT
BRANCH   1   7
ATOM      7  S   UNL d   1     -40.567  14.680  18.487  0.00  0.00     0.287 S 
ATOM      8  O   UNL d   1     -40.547  13.856  18.699  0.00  0.00    -0.198 OA
ATOM      9  O   UNL d   1     -40.588  15.476  18.274  0.00  0.00    -0.198 OA
BRANCH   7  10
ATOM     10  N   UNL d   1     -40.645  14.467  17.685  0.00  0.00    -0.137 NA
BRANCH  10  11
ATOM     11  C   UNL d   1     -39.970  14.419  17.196  0.00  0.00     0.203 A 
ATOM     12  N   UNL d   1     -39.843  15.003  16.640  0.00  0.00    -0.106 NA
ATOM     13  O   UNL d   1     -39.137  14.799  16.248  0.00  0.00    -0.210 OA
ATOM     14  C   UNL d   1     -38.852  14.107  16.566  0.00  0.00     0.128 A 
ATOM     15  C   UNL d   1     -39.377  13.860  17.169  0.00  0.00     0.069 A 
ATOM     16  C   UNL d   1     -38.165  13.717  16.335  0.00  0.00     0.029 C 
ENDBRANCH  10  11
ENDBRANCH   7  10
ENDBRANCH   1   7
BRANCH   4  17
ATOM     17  N   UNL d   1     -40.255  15.589  21.650  0.00  0.00    -0.208 NA
ATOM     18  C   UNL d   1     -39.513  15.702  21.975  0.00  0.00     0.279 C 
ATOM     19  O   UNL d   1     -39.435  15.922  22.769  0.00  0.00    -0.265 OA
BRANCH  18  20
ATOM     20  C   UNL d   1     -38.849  15.596  21.511  0.00  0.00     0.062 C 
ATOM     21  C   UNL d   1     -38.080  15.707  21.834  0.00  0.00     0.005 C 
ENDBRANCH  18  20
ENDBRANCH   4  17
TORSDOF 5
ENDMDL
MODEL 5
REMARK VINA RESULT:      -5.6      7.802      9.147
REMARK  5 active torsions:
REMARK  status: ('A' for Active; 'I' for Inactive)
REMARK    1  A    between atoms: N_2  and  S_1 
REMARK    2  A    between atoms: C_7  and  S_1 
REMARK    3  A    between atoms: C_3  and  N_2 
REMARK       I    between atoms: C_11  and  N_12 
REMARK    4  A    between atoms: C_19  and  C_11 
REMARK    5  A    between atoms: N_12  and  C_16 
ROOT
ATOM      1  C   UNL d   1     -40.197  15.051  18.935  0.00  0.00     0.105 A 
ATOM      2  C   UNL d   1     -39.593  15.531  18.629  0.00  0.00     0.015 A 
ATOM      3  C   UNL d   1     -40.564  14.504  18.488  0.00  0.00     0.015 A 
ATOM      4  C   UNL d   1     -39.722  14.900  17.383  0.00  0.00     0.085 A 
ATOM      5  C   UNL d   1     -39.362  15.448  17.855  0.00  0.00     0.020 A 
ATOM      6  C   UNL d   1     -40.326  14.420  17.692  0.00  0.00     0.020 A 
ENDROOT
BRANCH   1   7
ATOM      7  S   UNL d   1     -40.428  15.145  19.740  0.00  0.00     0.287 S 
ATOM      8  O   UNL d   1     -40.023  15.892  19.781  0.00  0.00    -0.198 OA
ATOM      9  O   UNL d   1     -40.823  14.421  19.707  0.00  0.00    -0.198 OA
BRANCH   7  10
ATOM     10  N   UNL d   1     -40.660  15.232  20.535  0.00  0.00    -0.137 NA
BRANCH  10  11
ATOM     11  C   UNL d   1     -40.161  14.967  21.150  0.00  0.00     0.203 A 
ATOM     12  N   UNL d   1     -39.824  15.516  21.650  0.00  0.00    -0.106 NA
ATOM     13  O   UNL d   1     -39.365  15.082  22.193  0.00  0.00    -0.210 OA
ATOM     14  C   UNL d   1     -39.429  14.291  22.018  0.00  0.00     0.128 A 
ATOM     15  C   UNL d   1     -39.934  14.210  21.355  0.00  0.00     0.069 A 
ATOM     16  C   UNL d   1     -39.061  13.675  22.422  0.00  0.00     0.029 C 
ENDBRANCH  10  11
ENDBRANCH   7  10
ENDBRANCH   1   7
BRANCH   4  17
ATOM     17  N   UNL d   1     -39.490  14.809  16.587  0.00  0.00    -0.208 NA
ATOM     18  C   UNL d   1     -38.903  14.277  16.388  0.00  0.00     0.279 C 
ATOM     19  O   UNL d   1     -38.673  14.187  15.597  0.00  0.00    -0.265 OA
BRANCH  18  20
ATOM     20  C   UNL d   1     -38.544  13.835  16.972  0.00  0.00     0.062 C 
ATOM     21  C   UNL d   1     -37.940  13.281  16.780  0.00  0.00     0.005 C 
ENDBRANCH  18  20
ENDBRANCH   4  17
TORSDOF 5
ENDMDL
