MODEL 1
REMARK VINA RESULT:     -11.8      0.000      0.000
REMARK  4 active torsions:
REMARK  status: ('A' for Active; 'I' for Inactive)
REMARK    1  A    between atoms: C_10  and  C_1 
REMARK    2  A    between atoms: C_18  and  N_6 
REMARK       I    between atoms: N_13  and  C_10 
REMARK    3  A    between atoms: C_12  and  C_20 
REMARK    4  A    between atoms: C_20  and  N_13 
ROOT
ATOM      1  C   UNL d   1      52.920  33.077  53.237  0.00  0.00     0.077 A 
ATOM      2  C   UNL d   1      52.765  34.307  53.965  0.00  0.00     0.121 A 
ATOM      3  C   UNL d   1      53.192  33.617  53.799  0.00  0.00     0.028 A 
ATOM      4  C   UNL d   1      52.053  34.458  53.561  0.00  0.00     0.281 A 
ATOM      5  N   UNL d   1      53.177  34.722  54.542  0.00  0.00    -0.300 N 
ATOM      6  N   UNL d   1      51.772  33.926  52.998  0.00  0.00    -0.272 N 
ATOM      7  C   UNL d   1      52.210  33.226  52.833  0.00  0.00     0.088 A 
ATOM      8  C   UNL d   1      53.868  33.620  54.282  0.00  0.00     0.018 A 
ATOM      9  C   UNL d   1      53.845  34.309  54.735  0.00  0.00     0.064 A 
ATOM     10  O   UNL d   1      51.622  35.156  53.730  0.00  0.00    -0.265 OA
ATOM     11  C   UNL d   1      52.929  35.450  54.862  0.00  0.00     0.100 C 
ATOM     12  C   UNL d   1      54.484  33.091  54.360  0.00  0.00     0.002 A 
ATOM     13  C   UNL d   1      54.458  34.452  55.270  0.00  0.00     0.018 A 
ATOM     14  C   UNL d   1      55.092  33.245  54.898  0.00  0.00     0.000 A 
ATOM     15  C   UNL d   1      55.081  33.918  55.349  0.00  0.00     0.002 A 
ENDROOT
BRANCH   1  16
ATOM     16  C   UNL d   1      53.342  32.396  53.072  0.00  0.00     0.281 C 
ATOM     17  N   UNL d   1      53.064  31.664  53.330  0.00  0.00    -0.204 NA
ATOM     18  O   UNL d   1      54.051  32.440  52.644  0.00  0.00    -0.265 OA
BRANCH  17  19
ATOM     19  C   UNL d   1      53.489  30.978  53.164  0.00  0.00     0.127 C 
BRANCH  19  20
ATOM     20  C   UNL d   1      53.265  30.264  53.514  0.00  0.00     0.119 A 
ATOM     21  O   UNL d   1      53.603  29.920  54.182  0.00  0.00    -0.306 OA
ATOM     22  C   UNL d   1      53.202  29.211  54.330  0.00  0.00     0.100 A 
ATOM     23  C   UNL d   1      53.359  28.691  54.943  0.00  0.00     0.027 C 
ATOM     24  C   UNL d   1      52.627  29.116  53.767  0.00  0.00     0.027 A 
ATOM     25  C   UNL d   1      52.658  29.764  53.257  0.00  0.00     0.028 A 
ENDBRANCH  19  20
ENDBRANCH  17  19
ENDBRANCH   1  16
BRANCH   6  26
ATOM     26  C   UNL d   1      51.068  34.080  52.601  0.00  0.00     0.067 A 
ATOM     27  C   UNL d   1      51.000  34.293  51.808  0.00  0.00     0.018 A 
ATOM     28  C   UNL d   1      50.206  34.391  51.646  0.00  0.00     0.002 A 
ATOM     29  C   UNL d   1      49.784  34.239  52.335  0.00  0.00     0.002 A 
ATOM     30  C   UNL d   1      50.323  34.046  52.927  0.00  0.00     0.018 A 
ENDBRANCH   6  26
TORSDOF 4
ENDMDL
MODEL 2
REMARK VINA RESULT:      -9.4      1.078      4.052
REMARK  4 active torsions:
REMARK  status: ('A' for Active; 'I' for Inactive)
REMARK    1  A    between atoms: C_10  and  C_1 
REMARK    2  A    between atoms: C_18  and  N_6 
REMARK       I    between atoms: N_13  and  C_10 
REMARK    3  A    between atoms: C_12  and  C_20 
REMARK    4  A    between atoms: C_20  and  N_13 
ROOT
ATOM      1  C   UNL d   1      52.619  33.232  53.054  0.00  0.00     0.077 A 
ATOM      2  C   UNL d   1      53.363  32.925  54.246  0.00  0.00     0.121 A 
ATOM      3  C   UNL d   1      53.007  33.476  53.742  0.00  0.00     0.028 A 
ATOM      4  C   UNL d   1      53.330  32.114  54.059  0.00  0.00     0.281 A 
ATOM      5  N   UNL d   1      53.696  33.339  54.872  0.00  0.00    -0.300 N 
ATOM      6  N   UNL d   1      52.946  31.859  53.376  0.00  0.00    -0.272 N 
ATOM      7  C   UNL d   1      52.586  32.424  52.866  0.00  0.00     0.088 A 
ATOM      8  C   UNL d   1      53.129  34.230  54.070  0.00  0.00     0.018 A 
ATOM      9  C   UNL d   1      53.557  34.128  54.768  0.00  0.00     0.064 A 
ATOM     10  O   UNL d   1      53.690  31.556  54.569  0.00  0.00    -0.265 OA
ATOM     11  C   UNL d   1      54.109  32.982  55.502  0.00  0.00     0.100 C 
ATOM     12  C   UNL d   1      52.908  34.974  53.822  0.00  0.00     0.002 A 
ATOM     13  C   UNL d   1      53.756  34.796  55.211  0.00  0.00     0.018 A 
ATOM     14  C   UNL d   1      53.113  35.635  54.273  0.00  0.00     0.000 A 
ATOM     15  C   UNL d   1      53.533  35.550  54.961  0.00  0.00     0.002 A 
ENDROOT
BRANCH   1  16
ATOM     16  C   UNL d   1      52.267  33.777  52.556  0.00  0.00     0.281 C 
ATOM     17  N   UNL d   1      51.447  33.852  52.536  0.00  0.00    -0.204 NA
ATOM     18  O   UNL d   1      52.736  34.256  52.068  0.00  0.00    -0.265 OA
BRANCH  17  19
ATOM     19  C   UNL d   1      51.093  34.400  52.034  0.00  0.00     0.127 C 
BRANCH  19  20
ATOM     20  C   UNL d   1      50.270  34.472  52.023  0.00  0.00     0.119 A 
ATOM     21  O   UNL d   1      49.787  34.456  51.356  0.00  0.00    -0.306 OA
ATOM     22  C   UNL d   1      49.005  34.548  51.609  0.00  0.00     0.100 A 
ATOM     23  C   UNL d   1      48.343  34.564  51.126  0.00  0.00     0.027 C 
ATOM     24  C   UNL d   1      49.001  34.621  52.417  0.00  0.00     0.027 A 
ATOM     25  C   UNL d   1      49.780  34.575  52.682  0.00  0.00     0.028 A 
ENDBRANCH  19  20
ENDBRANCH  17  19
ENDBRANCH   1  16
BRANCH   6  26
ATOM     26  C   UNL d   1      52.916  31.056  53.195  0.00  0.00     0.067 A 
ATOM     27  C   UNL d   1      52.277  30.556  53.337  0.00  0.00     0.018 A 
ATOM     28  C   UNL d   1      52.484  29.812  53.072  0.00  0.00     0.002 A 
ATOM     29  C   UNL d   1      53.247  29.852  52.768  0.00  0.00     0.002 A 
ATOM     30  C   UNL d   1      53.513  30.627  52.846  0.00  0.00     0.018 A 
ENDBRANCH   6  26
TORSDOF 4
ENDMDL
MODEL 3
REMARK VINA RESULT:      -9.1      0.805      3.089
REMARK  4 active torsions:
REMARK  status: ('A' for Active; 'I' for Inactive)
REMARK    1  A    between atoms: C_10  and  C_1 
REMARK    2  A    between atoms: C_18  and  N_6 
REMARK       I    between atoms: N_13  and  C_10 
REMARK    3  A    between atoms: C_12  and  C_20 
REMARK    4  A    between atoms: C_20  and  N_13 
ROOT
ATOM      1  C   UNL d   1      53.134  32.938  53.460  0.00  0.00     0.077 A 
ATOM      2  C   UNL d   1      52.730  34.246  53.900  0.00  0.00     0.121 A 
ATOM      3  C   UNL d   1      52.587  33.556  53.464  0.00  0.00     0.028 A 
ATOM      4  C   UNL d   1      53.434  34.315  54.340  0.00  0.00     0.281 A 
ATOM      5  N   UNL d   1      52.090  34.747  53.790  0.00  0.00    -0.300 N 
ATOM      6  N   UNL d   1      53.987  33.705  54.343  0.00  0.00    -0.272 N 
ATOM      7  C   UNL d   1      53.836  33.006  53.898  0.00  0.00     0.088 A 
ATOM      8  C   UNL d   1      51.851  33.647  53.088  0.00  0.00     0.018 A 
ATOM      9  C   UNL d   1      51.557  34.388  53.300  0.00  0.00     0.064 A 
ATOM     10  O   UNL d   1      53.578  35.013  54.781  0.00  0.00    -0.265 OA
ATOM     11  C   UNL d   1      52.021  35.501  54.138  0.00  0.00     0.100 C 
ATOM     12  C   UNL d   1      51.428  33.157  52.593  0.00  0.00     0.002 A 
ATOM     13  C   UNL d   1      50.824  34.623  53.000  0.00  0.00     0.018 A 
ATOM     14  C   UNL d   1      50.696  33.402  52.300  0.00  0.00     0.000 A 
ATOM     15  C   UNL d   1      50.395  34.127  52.499  0.00  0.00     0.002 A 
ENDROOT
BRANCH   1  16
ATOM     16  C   UNL d   1      52.993  32.257  53.029  0.00  0.00     0.281 C 
ATOM     17  N   UNL d   1      52.934  31.529  53.411  0.00  0.00    -0.204 NA
ATOM     18  O   UNL d   1      52.908  32.297  52.205  0.00  0.00    -0.265 OA
BRANCH  17  19
ATOM     19  C   UNL d   1      52.792  30.844  52.977  0.00  0.00     0.127 C 
BRANCH  19  20
ATOM     20  C   UNL d   1      52.835  30.108  53.350  0.00  0.00     0.119 A 
ATOM     21  O   UNL d   1      53.341  29.900  53.966  0.00  0.00    -0.306 OA
ATOM     22  C   UNL d   1      53.190  29.111  54.162  0.00  0.00     0.100 A 
ATOM     23  C   UNL d   1      53.570  28.680  54.746  0.00  0.00     0.027 C 
ATOM     24  C   UNL d   1      52.602  28.832  53.678  0.00  0.00     0.027 A 
ATOM     25  C   UNL d   1      52.376  29.443  53.172  0.00  0.00     0.028 A 
ENDBRANCH  19  20
ENDBRANCH  17  19
ENDBRANCH   1  16
BRANCH   6  26
ATOM     26  C   UNL d   1      54.681  33.779  54.779  0.00  0.00     0.067 A 
ATOM     27  C   UNL d   1      55.405  34.043  54.488  0.00  0.00     0.018 A 
ATOM     28  C   UNL d   1      55.938  34.029  55.106  0.00  0.00     0.002 A 
ATOM     29  C   UNL d   1      55.547  33.757  55.775  0.00  0.00     0.002 A 
ATOM     30  C   UNL d   1      54.765  33.603  55.569  0.00  0.00     0.018 A 
ENDBRANCH   6  26
TORSDOF 4
ENDMDL
