MODEL 1
REMARK VINA RESULT:      -5.0      0.000      0.000
REMARK  4 active torsions:
REMARK  status: ('A' for Active; 'I' for Inactive)
REMARK       I    between atoms: C_6  and  N_7 
REMARK    1  A    between atoms: C_9  and  C_6 
REMARK    2  A    between atoms: N_7  and  C_15 
REMARK    3  A    between atoms: C_15  and  C_14 
REMARK    4  A    between atoms: O_22  and  C_18 
ROOT
ATOM      1  C   UNL d   1      57.724   0.033  30.396  0.00  0.00     0.102 C 
ENDROOT
BRANCH   1   2
ATOM      2  N   UNL d   1      58.258  -0.551  30.192  0.00  0.00    -0.206 NA
ATOM      3  C   UNL d   1      58.476  -0.672  29.412  0.00  0.00     0.279 C 
ATOM      4  O   UNL d   1      58.152  -0.197  28.820  0.00  0.00    -0.265 OA
BRANCH   3   5
ATOM      5  C   UNL d   1      59.015  -1.263  29.206  0.00  0.00     0.058 A 
ATOM      6  C   UNL d   1      59.819  -1.087  29.136  0.00  0.00     0.007 A 
ATOM      7  C   UNL d   1      60.346  -1.687  28.929  0.00  0.00     0.024 A 
ATOM      8  C   UNL d   1      60.090  -2.446  28.793  0.00  0.00     0.094 A 
ATOM      9  C   UNL d   1      59.272  -2.625  28.865  0.00  0.00     0.024 A 
ATOM     10  C   UNL d   1      58.733  -2.034  29.071  0.00  0.00     0.007 A 
BRANCH   8  11
ATOM     11  O   UNL d   1      60.608  -3.047  28.588  0.00  0.00    -0.328 OA
ATOM     12  C   UNL d   1      61.026  -3.442  29.192  0.00  0.00     0.181 C 
ENDBRANCH   8  11
ENDBRANCH   3   5
ENDBRANCH   1   2
BRANCH   1  13
ATOM     13  C   UNL d   1      57.480   0.123  31.176  0.00  0.00     0.019 A 
ATOM     14  C   UNL d   1      57.935   0.577  31.706  0.00  0.00     0.003 A 
ATOM     15  C   UNL d   1      57.688   0.668  32.490  0.00  0.00     0.018 A 
ATOM     16  C   UNL d   1      56.993   0.309  32.745  0.00  0.00     0.064 A 
ATOM     17  N   UNL d   1      56.615   0.300  33.476  0.00  0.00    -0.304 N 
ATOM     18  C   UNL d   1      56.537  -0.142  32.227  0.00  0.00     0.018 A 
ATOM     19  C   UNL d   1      55.932  -0.153  33.410  0.00  0.00     0.064 A 
ATOM     20  C   UNL d   1      56.880   0.682  34.159  0.00  0.00     0.099 C 
ATOM     21  C   UNL d   1      55.887  -0.425  32.635  0.00  0.00     0.019 A 
ATOM     22  C   UNL d   1      55.388  -0.308  34.010  0.00  0.00     0.019 C 
ATOM     23  C   UNL d   1      56.782  -0.236  31.435  0.00  0.00     0.003 A 
ENDBRANCH   1  13
TORSDOF 4
ENDMDL
