MODEL 1
REMARK VINA RESULT:      19.8      0.000      0.000
REMARK  2 active torsions:
REMARK  status: ('A' for Active; 'I' for Inactive)
REMARK    1  A    between atoms: C_11  and  N_1 
REMARK    2  A    between atoms: C_15  and  C_11 
ROOT
ATOM      1  N   UNL d   1     -51.761  24.003  33.415  0.00  0.00    -0.244 N 
ATOM      2  C   UNL d   1     -50.939  24.097  33.380  0.00  0.00     0.246 A 
ATOM      3  C   UNL d   1     -50.767  24.908  33.358  0.00  0.00     0.095 A 
ATOM      4  C   UNL d   1     -52.103  24.764  33.415  0.00  0.00     0.260 A 
ATOM      5  C   UNL d   1     -51.489  25.322  33.379  0.00  0.00     0.024 A 
ATOM      6  C   UNL d   1     -50.059  25.320  33.321  0.00  0.00     0.034 A 
ATOM      7  C   UNL d   1     -51.493  26.142  33.364  0.00  0.00     0.045 A 
ATOM      8  C   UNL d   1     -50.062  26.141  33.306  0.00  0.00    -0.030 A 
ATOM      9  C   UNL d   1     -50.778  26.551  33.327  0.00  0.00    -0.027 A 
ATOM     10  C   UNL d   1     -50.859  25.533  33.349  0.00  0.00     0.014 A 
ATOM     11  O   UNL d   1     -50.377  23.483  33.369  0.00  0.00    -0.271 OA
ATOM     12  O   UNL d   1     -52.914  24.936  33.444  0.00  0.00    -0.267 OA
ATOM     13  C   UNL d   1     -50.179  24.320  33.345  0.00  0.00     0.014 C 
ENDROOT
BRANCH   1  14
ATOM     14  C   UNL d   1     -52.166  23.286  33.445  0.00  0.00     0.086 C 
BRANCH  14  15
ATOM     15  C   UNL d   1     -52.912  23.254  33.786  0.00  0.00     0.018 A 
ATOM     16  C   UNL d   1     -52.989  23.221  34.599  0.00  0.00     0.002 A 
ATOM     17  C   UNL d   1     -53.735  23.189  34.940  0.00  0.00     0.000 A 
ATOM     18  C   UNL d   1     -54.411  23.189  34.459  0.00  0.00     0.000 A 
ATOM     19  C   UNL d   1     -54.329  23.222  33.638  0.00  0.00     0.000 A 
ATOM     20  C   UNL d   1     -53.579  23.254  33.306  0.00  0.00     0.002 A 
ENDBRANCH  14  15
ENDBRANCH   1  14
TORSDOF 2
ENDMDL
MODEL 2
REMARK VINA RESULT:      22.2      0.533      1.476
REMARK  2 active torsions:
REMARK  status: ('A' for Active; 'I' for Inactive)
REMARK    1  A    between atoms: C_11  and  N_1 
REMARK    2  A    between atoms: C_15  and  C_11 
ROOT
ATOM      1  N   UNL d   1     -51.535  24.558  33.331  0.00  0.00    -0.244 N 
ATOM      2  C   UNL d   1     -52.010  25.236  33.318  0.00  0.00     0.246 A 
ATOM      3  C   UNL d   1     -51.517  25.903  33.318  0.00  0.00     0.095 A 
ATOM      4  C   UNL d   1     -50.739  24.806  33.339  0.00  0.00     0.260 A 
ATOM      5  C   UNL d   1     -50.728  25.636  33.331  0.00  0.00     0.024 A 
ATOM      6  C   UNL d   1     -51.678  26.707  33.308  0.00  0.00     0.034 A 
ATOM      7  C   UNL d   1     -50.112  26.177  33.334  0.00  0.00     0.045 A 
ATOM      8  C   UNL d   1     -51.062  27.249  33.310  0.00  0.00    -0.030 A 
ATOM      9  C   UNL d   1     -50.280  26.985  33.323  0.00  0.00    -0.027 A 
ATOM     10  C   UNL d   1     -50.988  26.249  33.321  0.00  0.00     0.014 A 
ATOM     11  O   UNL d   1     -52.842  25.250  33.307  0.00  0.00    -0.271 OA
ATOM     12  O   UNL d   1     -50.072  24.313  33.353  0.00  0.00    -0.267 OA
ATOM     13  C   UNL d   1     -52.347  25.954  33.306  0.00  0.00     0.014 C 
ENDROOT
BRANCH   1  14
ATOM     14  C   UNL d   1     -51.803  23.779  33.335  0.00  0.00     0.086 C 
BRANCH  14  15
ATOM     15  C   UNL d   1     -52.504  23.591  33.720  0.00  0.00     0.018 A 
ATOM     16  C   UNL d   1     -52.493  23.379  34.509  0.00  0.00     0.002 A 
ATOM     17  C   UNL d   1     -53.193  23.191  34.893  0.00  0.00     0.000 A 
ATOM     18  C   UNL d   1     -53.913  23.216  34.480  0.00  0.00     0.000 A 
ATOM     19  C   UNL d   1     -53.920  23.431  33.684  0.00  0.00     0.000 A 
ATOM     20  C   UNL d   1     -53.215  23.617  33.307  0.00  0.00     0.002 A 
ENDBRANCH  14  15
ENDBRANCH   1  14
TORSDOF 2
ENDMDL
