MODEL 1
REMARK VINA RESULT:      48.0      0.000      0.000
REMARK  6 active torsions:
REMARK  status: ('A' for Active; 'I' for Inactive)
REMARK    1  A    between atoms: C_10  and  C_1 
REMARK    2  A    between atoms: C_7  and  O_9 
REMARK       I    between atoms: N_12  and  C_7 
REMARK    3  A    between atoms: O_9  and  C_14 
REMARK    4  A    between atoms: C_24  and  N_12 
REMARK    5  A    between atoms: C_25  and  N_12 
REMARK    6  A    between atoms: O_23  and  C_20 
ROOT
ATOM      1  C   UNL d   1      45.961 -18.864  41.350  0.00  0.00     0.062 A 
ATOM      2  C   UNL d   1      45.548 -18.146  41.242  0.00  0.00     0.199 A 
ATOM      3  C   UNL d   1      46.201 -19.306  40.679  0.00  0.00     0.103 A 
ATOM      4  C   UNL d   1      45.375 -17.869  40.490  0.00  0.00     0.062 A 
ATOM      5  C   UNL d   1      45.614 -18.309  39.821  0.00  0.00     0.105 A 
ATOM      6  O   UNL d   1      46.026 -19.024  39.911  0.00  0.00    -0.307 OA
ATOM      7  C   UNL d   1      45.441 -18.031  39.056  0.00  0.00     0.050 A 
ATOM      8  C   UNL d   1      44.964 -17.156  40.374  0.00  0.00     0.007 A 
ATOM      9  O   UNL d   1      45.313 -17.714  41.906  0.00  0.00    -0.286 OA
ATOM     10  C   UNL d   1      45.033 -17.322  38.956  0.00  0.00     0.107 A 
ATOM     11  C   UNL d   1      44.795 -16.885  39.615  0.00  0.00     0.025 A 
ATOM     12  C   UNL d   1      46.609 -20.014  40.779  0.00  0.00     0.027 C 
ENDROOT
BRANCH   1  13
ATOM     13  C   UNL d   1      46.132 -19.138  42.106  0.00  0.00     0.005 A 
ATOM     14  C   UNL d   1      46.463 -18.622  42.667  0.00  0.00     0.002 A 
ATOM     15  C   UNL d   1      46.634 -18.897  43.424  0.00  0.00     0.024 A 
ATOM     16  C   UNL d   1      46.477 -19.680  43.625  0.00  0.00     0.094 A 
ATOM     17  C   UNL d   1      46.145 -20.198  43.061  0.00  0.00     0.024 A 
ATOM     18  C   UNL d   1      45.976 -19.922  42.308  0.00  0.00     0.002 A 
BRANCH  16  19
ATOM     19  O   UNL d   1      46.647 -19.957  44.379  0.00  0.00    -0.328 OA
ATOM     20  C   UNL d   1      46.038 -20.189  44.884  0.00  0.00     0.181 C 
ENDBRANCH  16  19
ENDBRANCH   1  13
BRANCH  10  21
ATOM     21  O   UNL d   1      44.863 -17.050  38.196  0.00  0.00    -0.259 OA
BRANCH  21  22
ATOM     22  C   UNL d   1      45.209 -16.354  37.923  0.00  0.00     0.377 C 
ATOM     23  N   UNL d   1      44.975 -16.037  37.198  0.00  0.00    -0.252 N 
ATOM     24  O   UNL d   1      45.788 -15.975  38.373  0.00  0.00    -0.237 OA
BRANCH  23  25
ATOM     25  C   UNL d   1      44.392 -16.414  36.743  0.00  0.00     0.085 C 
ATOM     26  C   UNL d   1      43.667 -16.050  36.593  0.00  0.00     0.021 C 
ENDBRANCH  23  25
BRANCH  23  27
ATOM     27  C   UNL d   1      45.321 -15.338  36.922  0.00  0.00     0.085 C 
ATOM     28  C   UNL d   1      44.841 -14.690  36.708  0.00  0.00     0.021 C 
ENDBRANCH  23  27
ENDBRANCH  21  22
ENDBRANCH  10  21
TORSDOF 6
ENDMDL
