MODEL 1
REMARK VINA RESULT:      -5.3      0.000      0.000
REMARK  5 active torsions:
REMARK  status: ('A' for Active; 'I' for Inactive)
REMARK    1  A    between atoms: C_2  and  S_1 
REMARK    2  A    between atoms: N_3  and  S_1 
REMARK    3  A    between atoms: C_11  and  N_3 
REMARK    4  A    between atoms: O_13  and  C_5 
REMARK    5  A    between atoms: C_14  and  C_11 
ROOT
ATOM      1  S   UNL d   1      57.919   0.204  30.728  0.00  0.00     0.285 S 
ATOM      2  O   UNL d   1      57.363  -0.047  30.172  0.00  0.00    -0.198 OA
ATOM      3  O   UNL d   1      58.471   0.455  31.284  0.00  0.00    -0.198 OA
ENDROOT
BRANCH   1   4
ATOM      4  C   UNL d   1      58.518   0.113  30.169  0.00  0.00     0.107 A 
ATOM      5  C   UNL d   1      58.522  -0.546  29.673  0.00  0.00     0.039 A 
ATOM      6  C   UNL d   1      59.122  -0.637  29.114  0.00  0.00     0.122 A 
ATOM      7  C   UNL d   1      59.719  -0.068  29.051  0.00  0.00     0.162 A 
ATOM      8  C   UNL d   1      59.712   0.588  29.547  0.00  0.00     0.032 A 
ATOM      9  F   UNL d   1      60.315  -0.162  28.492  0.00  0.00    -0.202 F 
ATOM     10  C   UNL d   1      59.115   0.682  30.106  0.00  0.00     0.015 A 
BRANCH   6  11
ATOM     11  O   UNL d   1      59.125  -1.296  28.618  0.00  0.00    -0.326 OA
ATOM     12  C   UNL d   1      59.269  -2.048  28.930  0.00  0.00     0.181 C 
ENDBRANCH   6  11
ENDBRANCH   1   4
BRANCH   1  13
ATOM     13  N   UNL d   1      57.315   0.295  31.288  0.00  0.00    -0.157 NA
BRANCH  13  14
ATOM     14  C   UNL d   1      57.019  -0.365  31.685  0.00  0.00     0.112 C 
BRANCH  14  15
ATOM     15  C   UNL d   1      56.444  -0.269  32.269  0.00  0.00     0.020 A 
ATOM     16  C   UNL d   1      56.195   0.489  32.485  0.00  0.00     0.002 A 
ATOM     17  C   UNL d   1      55.615   0.583  33.074  0.00  0.00     0.000 A 
ATOM     18  C   UNL d   1      55.289  -0.080  33.442  0.00  0.00     0.000 A 
ATOM     19  C   UNL d   1      55.537  -0.838  33.227  0.00  0.00     0.000 A 
ATOM     20  C   UNL d   1      56.113  -0.935  32.643  0.00  0.00     0.002 A 
ENDBRANCH  14  15
ENDBRANCH  13  14
ENDBRANCH   1  13
TORSDOF 5
ENDMDL
MODEL 2
REMARK VINA RESULT:      -2.5      9.256     10.183
REMARK  5 active torsions:
REMARK  status: ('A' for Active; 'I' for Inactive)
REMARK    1  A    between atoms: C_2  and  S_1 
REMARK    2  A    between atoms: N_3  and  S_1 
REMARK    3  A    between atoms: C_11  and  N_3 
REMARK    4  A    between atoms: O_13  and  C_5 
REMARK    5  A    between atoms: C_14  and  C_11 
ROOT
ATOM      1  S   UNL d   1      59.447  -9.533  33.594  0.00  0.00     0.285 S 
ATOM      2  O   UNL d   1      60.102  -9.299  33.150  0.00  0.00    -0.198 OA
ATOM      3  O   UNL d   1      58.792  -9.767  34.034  0.00  0.00    -0.198 OA
ENDROOT
BRANCH   1   4
ATOM      4  C   UNL d   1      59.810  -9.249  34.278  0.00  0.00     0.107 A 
ATOM      5  C   UNL d   1      59.794  -8.442  34.447  0.00  0.00     0.039 A 
ATOM      6  C   UNL d   1      60.156  -8.158  35.132  0.00  0.00     0.122 A 
ATOM      7  C   UNL d   1      60.535  -8.682  35.647  0.00  0.00     0.162 A 
ATOM      8  C   UNL d   1      60.549  -9.487  35.476  0.00  0.00     0.032 A 
ATOM      9  F   UNL d   1      60.896  -8.396  36.329  0.00  0.00    -0.202 F 
ATOM     10  C   UNL d   1      60.188  -9.773  34.794  0.00  0.00     0.015 A 
BRANCH   6  11
ATOM     11  O   UNL d   1      60.141  -7.351  35.301  0.00  0.00    -0.326 OA
ATOM     12  C   UNL d   1      59.735  -7.075  35.967  0.00  0.00     0.181 C 
ENDBRANCH   6  11
ENDBRANCH   1   4
BRANCH   1  13
ATOM     13  N   UNL d   1      59.084  -9.817  32.905  0.00  0.00    -0.157 NA
BRANCH  13  14
ATOM     14  C   UNL d   1      58.327  -9.558  32.701  0.00  0.00     0.112 C 
BRANCH  14  15
ATOM     15  C   UNL d   1      58.060  -9.644  31.925  0.00  0.00     0.020 A 
ATOM     16  C   UNL d   1      58.601  -9.712  31.305  0.00  0.00     0.002 A 
ATOM     17  C   UNL d   1      58.327  -9.799  30.524  0.00  0.00     0.000 A 
ATOM     18  C   UNL d   1      57.517  -9.817  30.370  0.00  0.00     0.000 A 
ATOM     19  C   UNL d   1      56.975  -9.749  30.990  0.00  0.00     0.000 A 
ATOM     20  C   UNL d   1      57.243  -9.662  31.766  0.00  0.00     0.002 A 
ENDBRANCH  14  15
ENDBRANCH  13  14
ENDBRANCH   1  13
TORSDOF 5
ENDMDL
MODEL 3
REMARK VINA RESULT:      -2.3      9.733     10.032
REMARK  5 active torsions:
REMARK  status: ('A' for Active; 'I' for Inactive)
REMARK    1  A    between atoms: C_2  and  S_1 
REMARK    2  A    between atoms: N_3  and  S_1 
REMARK    3  A    between atoms: C_11  and  N_3 
REMARK    4  A    between atoms: O_13  and  C_5 
REMARK    5  A    between atoms: C_14  and  C_11 
ROOT
ATOM      1  S   UNL d   1      59.054  -9.736  33.042  0.00  0.00     0.285 S 
ATOM      2  O   UNL d   1      59.762  -9.655  32.626  0.00  0.00    -0.198 OA
ATOM      3  O   UNL d   1      58.349  -9.817  33.459  0.00  0.00    -0.198 OA
ENDROOT
BRANCH   1   4
ATOM      4  C   UNL d   1      58.638  -9.756  32.330  0.00  0.00     0.107 A 
ATOM      5  C   UNL d   1      59.048  -9.776  31.615  0.00  0.00     0.039 A 
ATOM      6  C   UNL d   1      58.633  -9.796  30.903  0.00  0.00     0.122 A 
ATOM      7  C   UNL d   1      57.806  -9.796  30.906  0.00  0.00     0.162 A 
ATOM      8  C   UNL d   1      57.399  -9.775  31.621  0.00  0.00     0.032 A 
ATOM      9  F   UNL d   1      57.394  -9.816  30.194  0.00  0.00    -0.202 F 
ATOM     10  C   UNL d   1      57.811  -9.756  32.333  0.00  0.00     0.015 A 
BRANCH   6  11
ATOM     11  O   UNL d   1      59.043  -9.816  30.187  0.00  0.00    -0.326 OA
ATOM     12  C   UNL d   1      59.866  -9.739  30.179  0.00  0.00     0.181 C 
ENDBRANCH   6  11
ENDBRANCH   1   4
BRANCH   1  13
ATOM     13  N   UNL d   1      59.473  -9.716  33.757  0.00  0.00    -0.157 NA
BRANCH  13  14
ATOM     14  C   UNL d   1      59.416  -9.056  34.249  0.00  0.00     0.112 C 
BRANCH  14  15
ATOM     15  C   UNL d   1      59.874  -9.015  34.934  0.00  0.00     0.020 A 
ATOM     16  C   UNL d   1      59.651  -9.436  35.609  0.00  0.00     0.002 A 
ATOM     17  C   UNL d   1      60.116  -9.391  36.298  0.00  0.00     0.000 A 
ATOM     18  C   UNL d   1      60.799  -8.928  36.306  0.00  0.00     0.000 A 
ATOM     19  C   UNL d   1      61.022  -8.507  35.632  0.00  0.00     0.000 A 
ATOM     20  C   UNL d   1      60.564  -8.549  34.947  0.00  0.00     0.002 A 
ENDBRANCH  14  15
ENDBRANCH  13  14
ENDBRANCH   1  13
TORSDOF 5
ENDMDL
