MODEL 1
REMARK VINA RESULT:      -2.8      0.000      0.000
REMARK  5 active torsions:
REMARK  status: ('A' for Active; 'I' for Inactive)
REMARK    1  A    between atoms: N_2  and  C_1 
REMARK    2  A    between atoms: N_11  and  C_6 
REMARK    3  A    between atoms: C_13  and  N_11 
REMARK    4  A    between atoms: O_20  and  C_14 
REMARK    5  A    between atoms: C_23  and  O_20 
ROOT
ATOM      1  C   UNL d   1      31.419  16.713 -23.835  0.00  0.00     0.752 A 
ATOM      2  N   UNL d   1      31.835  17.423 -23.934  0.00  0.00    -0.040 NA
ATOM      3  C   UNL d   1      32.621  17.478 -23.697  0.00  0.00     0.182 A 
ATOM      4  N   UNL d   1      31.799  16.060 -23.497  0.00  0.00    -0.059 NA
ATOM      5  C   UNL d   1      33.000  16.825 -23.359  0.00  0.00     0.059 A 
ATOM      6  C   UNL d   1      32.589  16.113 -23.258  0.00  0.00     0.103 A 
ATOM      7  C   UNL d   1      32.968  15.460 -22.920  0.00  0.00     0.021 C 
ENDROOT
BRANCH   3   8
ATOM      8  N   UNL d   1      33.034  18.184 -23.795  0.00  0.00    -0.226 NA
BRANCH   8   9
ATOM      9  C   UNL d   1      33.027  18.763 -23.200  0.00  0.00     0.083 A 
ATOM     10  C   UNL d   1      32.802  19.539 -23.397  0.00  0.00     0.021 A 
ATOM     11  C   UNL d   1      32.796  20.116 -22.797  0.00  0.00     0.026 A 
ATOM     12  C   UNL d   1      33.009  19.921 -22.025  0.00  0.00     0.100 A 
ATOM     13  C   UNL d   1      33.232  19.144 -21.842  0.00  0.00     0.026 A 
ATOM     14  C   UNL d   1      33.241  18.564 -22.430  0.00  0.00     0.021 A 
BRANCH  12  15
ATOM     15  O   UNL d   1      33.001  20.500 -21.434  0.00  0.00    -0.305 OA
BRANCH  15  16
ATOM     16  C   UNL d   1      32.359  21.012 -21.378  0.00  0.00     0.123 C 
ATOM     17  C   UNL d   1      32.221  21.411 -20.671  0.00  0.00     0.029 C 
ENDBRANCH  15  16
ENDBRANCH  12  15
ENDBRANCH   8   9
ENDBRANCH   3   8
BRANCH   1  18
ATOM     18  N   UNL d   1      30.709  16.653 -24.045  0.00  0.00    -0.058 N 
ATOM     19  N   UNL d   1      29.449  16.902 -23.835  0.00  0.00    -0.151 NA
ATOM     20  C   UNL d   1      29.274  16.528 -24.474  0.00  0.00     0.103 A 
ATOM     21  C   UNL d   1      28.558  16.466 -24.688  0.00  0.00     0.022 C 
ATOM     22  C   UNL d   1      29.823  16.228 -24.880  0.00  0.00     0.041 A 
ATOM     23  C   UNL d   1      30.536  16.283 -24.677  0.00  0.00     0.102 A 
ATOM     24  C   UNL d   1      31.087  15.975 -25.095  0.00  0.00     0.021 C 
ENDBRANCH   1  18
TORSDOF 5
ENDMDL
MODEL 2
REMARK VINA RESULT:      -2.4      1.004      2.045
REMARK  5 active torsions:
REMARK  status: ('A' for Active; 'I' for Inactive)
REMARK    1  A    between atoms: N_2  and  C_1 
REMARK    2  A    between atoms: N_11  and  C_6 
REMARK    3  A    between atoms: C_13  and  N_11 
REMARK    4  A    between atoms: O_20  and  C_14 
REMARK    5  A    between atoms: C_23  and  O_20 
ROOT
ATOM      1  C   UNL d   1      32.094  17.959 -23.707  0.00  0.00     0.752 A 
ATOM      2  N   UNL d   1      32.383  18.233 -22.980  0.00  0.00    -0.040 NA
ATOM      3  C   UNL d   1      32.952  18.827 -22.959  0.00  0.00     0.182 A 
ATOM      4  N   UNL d   1      32.381  18.286 -24.411  0.00  0.00    -0.059 NA
ATOM      5  C   UNL d   1      33.239  19.154 -23.664  0.00  0.00     0.059 A 
ATOM      6  C   UNL d   1      32.953  18.883 -24.392  0.00  0.00     0.103 A 
ATOM      7  C   UNL d   1      33.240  19.209 -25.096  0.00  0.00     0.021 C 
ENDROOT
BRANCH   3   8
ATOM      8  N   UNL d   1      33.239  19.100 -22.237  0.00  0.00    -0.226 NA
BRANCH   8   9
ATOM      9  C   UNL d   1      32.982  19.826 -21.927  0.00  0.00     0.083 A 
ATOM     10  C   UNL d   1      32.791  19.875 -21.120  0.00  0.00     0.021 A 
ATOM     11  C   UNL d   1      32.533  20.604 -20.814  0.00  0.00     0.026 A 
ATOM     12  C   UNL d   1      32.468  21.264 -21.303  0.00  0.00     0.100 A 
ATOM     13  C   UNL d   1      32.661  21.203 -22.107  0.00  0.00     0.026 A 
ATOM     14  C   UNL d   1      32.918  20.484 -22.420  0.00  0.00     0.021 A 
BRANCH  12  15
ATOM     15  O   UNL d   1      32.211  21.987 -20.992  0.00  0.00    -0.305 OA
BRANCH  15  16
ATOM     16  C   UNL d   1      32.751  22.480 -20.614  0.00  0.00     0.123 C 
ATOM     17  C   UNL d   1      32.477  23.137 -20.200  0.00  0.00     0.029 C 
ENDBRANCH  15  16
ENDBRANCH  12  15
ENDBRANCH   8   9
ENDBRANCH   3   8
BRANCH   1  18
ATOM     18  N   UNL d   1      31.580  17.424 -23.737  0.00  0.00    -0.058 N 
ATOM     19  N   UNL d   1      30.334  17.066 -23.857  0.00  0.00    -0.151 NA
ATOM     20  C   UNL d   1      30.543  16.337 -23.798  0.00  0.00     0.103 A 
ATOM     21  C   UNL d   1      30.026  15.795 -23.828  0.00  0.00     0.022 C 
ATOM     22  C   UNL d   1      31.266  16.174 -23.709  0.00  0.00     0.041 A 
ATOM     23  C   UNL d   1      31.787  16.703 -23.678  0.00  0.00     0.102 A 
ATOM     24  C   UNL d   1      32.517  16.528 -23.588  0.00  0.00     0.021 C 
ENDBRANCH   1  18
TORSDOF 5
ENDMDL
MODEL 3
REMARK VINA RESULT:      -0.7      1.880      4.913
REMARK  5 active torsions:
REMARK  status: ('A' for Active; 'I' for Inactive)
REMARK    1  A    between atoms: N_2  and  C_1 
REMARK    2  A    between atoms: N_11  and  C_6 
REMARK    3  A    between atoms: C_13  and  N_11 
REMARK    4  A    between atoms: O_20  and  C_14 
REMARK    5  A    between atoms: C_23  and  O_20 
ROOT
ATOM      1  C   UNL d   1      33.163  20.145 -22.876  0.00  0.00     0.752 A 
ATOM      2  N   UNL d   1      33.182  19.321 -22.956  0.00  0.00    -0.040 NA
ATOM      3  C   UNL d   1      33.219  18.978 -23.702  0.00  0.00     0.182 A 
ATOM      4  N   UNL d   1      33.181  20.622 -23.553  0.00  0.00    -0.059 NA
ATOM      5  C   UNL d   1      33.237  19.455 -24.379  0.00  0.00     0.059 A 
ATOM      6  C   UNL d   1      33.218  20.280 -24.304  0.00  0.00     0.103 A 
ATOM      7  C   UNL d   1      33.236  20.757 -24.980  0.00  0.00     0.021 C 
ENDROOT
BRANCH   3   8
ATOM      8  N   UNL d   1      33.237  18.158 -23.782  0.00  0.00    -0.226 NA
BRANCH   8   9
ATOM      9  C   UNL d   1      32.550  17.738 -23.983  0.00  0.00     0.083 A 
ATOM     10  C   UNL d   1      32.345  17.663 -24.785  0.00  0.00     0.021 A 
ATOM     11  C   UNL d   1      31.655  17.241 -24.982  0.00  0.00     0.026 A 
ATOM     12  C   UNL d   1      31.186  16.905 -24.394  0.00  0.00     0.100 A 
ATOM     13  C   UNL d   1      31.402  16.987 -23.598  0.00  0.00     0.026 A 
ATOM     14  C   UNL d   1      32.084  17.403 -23.391  0.00  0.00     0.021 A 
BRANCH  12  15
ATOM     15  O   UNL d   1      30.502  16.487 -24.598  0.00  0.00    -0.305 OA
BRANCH  15  16
ATOM     16  C   UNL d   1      29.765  16.816 -24.439  0.00  0.00     0.123 C 
ATOM     17  C   UNL d   1      29.085  16.423 -24.687  0.00  0.00     0.029 C 
ENDBRANCH  15  16
ENDBRANCH  12  15
ENDBRANCH   8   9
ENDBRANCH   3   8
BRANCH   1  18
ATOM     18  N   UNL d   1      33.130  20.465 -22.207  0.00  0.00    -0.058 N 
ATOM     19  N   UNL d   1      33.026  20.357 -20.913  0.00  0.00    -0.151 NA
ATOM     20  C   UNL d   1      33.064  21.115 -20.853  0.00  0.00     0.103 A 
ATOM     21  C   UNL d   1      33.031  21.439 -20.178  0.00  0.00     0.022 C 
ATOM     22  C   UNL d   1      33.134  21.524 -21.473  0.00  0.00     0.041 A 
ATOM     23  C   UNL d   1      33.168  21.213 -22.147  0.00  0.00     0.102 A 
ATOM     24  C   UNL d   1      33.239  21.636 -22.770  0.00  0.00     0.021 C 
ENDBRANCH   1  18
TORSDOF 5
ENDMDL
MODEL 4
REMARK VINA RESULT:      -0.5      1.810      4.615
REMARK  5 active torsions:
REMARK  status: ('A' for Active; 'I' for Inactive)
REMARK    1  A    between atoms: N_2  and  C_1 
REMARK    2  A    between atoms: N_11  and  C_6 
REMARK    3  A    between atoms: C_13  and  N_11 
REMARK    4  A    between atoms: O_20  and  C_14 
REMARK    5  A    between atoms: C_23  and  O_20 
ROOT
ATOM      1  C   UNL d   1      32.774  19.279 -23.044  0.00  0.00     0.752 A 
ATOM      2  N   UNL d   1      32.359  19.065 -23.728  0.00  0.00    -0.040 NA
ATOM      3  C   UNL d   1      32.236  18.272 -23.907  0.00  0.00     0.182 A 
ATOM      4  N   UNL d   1      33.065  18.690 -22.541  0.00  0.00    -0.059 NA
ATOM      5  C   UNL d   1      32.528  17.683 -23.404  0.00  0.00     0.059 A 
ATOM      6  C   UNL d   1      32.944  17.892 -22.719  0.00  0.00     0.103 A 
ATOM      7  C   UNL d   1      33.235  17.302 -22.216  0.00  0.00     0.021 C 
ENDROOT
BRANCH   3   8
ATOM      8  N   UNL d   1      31.823  18.060 -24.587  0.00  0.00    -0.226 NA
BRANCH   8   9
ATOM      9  C   UNL d   1      31.083  17.686 -24.532  0.00  0.00     0.083 A 
ATOM     10  C   UNL d   1      30.406  18.095 -24.787  0.00  0.00     0.021 A 
ATOM     11  C   UNL d   1      29.667  17.718 -24.730  0.00  0.00     0.026 A 
ATOM     12  C   UNL d   1      29.609  16.953 -24.426  0.00  0.00     0.100 A 
ATOM     13  C   UNL d   1      30.292  16.556 -24.176  0.00  0.00     0.026 A 
ATOM     14  C   UNL d   1      31.030  16.922 -24.228  0.00  0.00     0.021 A 
BRANCH  12  15
ATOM     15  O   UNL d   1      28.870  16.584 -24.373  0.00  0.00    -0.305 OA
BRANCH  15  16
ATOM     16  C   UNL d   1      28.459  16.605 -23.660  0.00  0.00     0.123 C 
ATOM     17  C   UNL d   1      27.788  16.136 -23.568  0.00  0.00     0.029 C 
ENDBRANCH  15  16
ENDBRANCH  12  15
ENDBRANCH   8   9
ENDBRANCH   3   8
BRANCH   1  18
ATOM     18  N   UNL d   1      32.890  19.993 -22.874  0.00  0.00    -0.058 N 
ATOM     19  N   UNL d   1      33.240  21.193 -23.237  0.00  0.00    -0.151 NA
ATOM     20  C   UNL d   1      33.124  21.436 -22.525  0.00  0.00     0.103 A 
ATOM     21  C   UNL d   1      33.241  22.156 -22.351  0.00  0.00     0.022 C 
ATOM     22  C   UNL d   1      32.894  20.949 -22.009  0.00  0.00     0.041 A 
ATOM     23  C   UNL d   1      32.775  20.233 -22.170  0.00  0.00     0.102 A 
ATOM     24  C   UNL d   1      32.542  19.746 -21.641  0.00  0.00     0.021 C 
ENDBRANCH   1  18
TORSDOF 5
ENDMDL
