MODEL 1
REMARK VINA RESULT:      70.8      0.000      0.000
REMARK  12 active torsions:
REMARK  status: ('A' for Active; 'I' for Inactive)
REMARK    1  A    between atoms: C_23  and  N_1 
REMARK    2  A    between atoms: S_8  and  C_2 
REMARK    3  A    between atoms: C_7  and  C_11 
REMARK       I    between atoms: N_12  and  C_7 
REMARK    4  A    between atoms: C_24  and  S_8 
REMARK    5  A    between atoms: C_25  and  N_12 
REMARK    6  A    between atoms: C_13  and  C_25 
REMARK    7  A    between atoms: C_15  and  C_24 
REMARK    8  A    between atoms: O_26  and  C_15 
REMARK    9  A    between atoms: C_28  and  C_23 
REMARK   10  A    between atoms: C_27  and  O_26 
REMARK   11  A    between atoms: C_30  and  C_28 
REMARK   12  A    between atoms: C_29  and  C_30 
ROOT
ATOM      1  N   UNL d   1     -49.516  27.418  35.205  0.00  0.00    -0.253 N 
ATOM      2  C   UNL d   1     -49.639  27.634  35.982  0.00  0.00     0.182 A 
ATOM      3  C   UNL d   1     -48.961  27.815  34.746  0.00  0.00     0.268 A 
ATOM      4  N   UNL d   1     -49.205  28.251  36.302  0.00  0.00    -0.222 NA
ATOM      5  C   UNL d   1     -48.527  28.430  35.063  0.00  0.00     0.074 A 
ATOM      6  C   UNL d   1     -48.648  28.655  35.853  0.00  0.00     0.088 A 
ATOM      7  C   UNL d   1     -48.211  29.279  36.181  0.00  0.00     0.024 A 
ATOM      8  C   UNL d   1     -47.967  28.836  34.611  0.00  0.00     0.006 A 
ATOM      9  C   UNL d   1     -47.653  29.678  35.720  0.00  0.00     0.059 A 
ATOM     10  O   UNL d   1     -48.840  27.590  33.956  0.00  0.00    -0.267 OA
ATOM     11  C   UNL d   1     -47.533  29.453  34.931  0.00  0.00     0.005 A 
ENDROOT
BRANCH   9  12
ATOM     12  C   UNL d   1     -47.213  30.304  36.047  0.00  0.00     0.279 C 
ATOM     13  N   UNL d   1     -47.222  31.026  35.677  0.00  0.00    -0.204 NA
ATOM     14  O   UNL d   1     -46.784  30.172  36.735  0.00  0.00    -0.265 OA
BRANCH  13  15
ATOM     15  C   UNL d   1     -47.657  31.139  34.989  0.00  0.00     0.127 C 
BRANCH  15  16
ATOM     16  C   UNL d   1     -47.600  31.851  34.575  0.00  0.00     0.119 A 
ATOM     17  O   UNL d   1     -46.970  32.303  34.339  0.00  0.00    -0.304 OA
ATOM     18  C   UNL d   1     -47.240  32.966  33.939  0.00  0.00     0.123 A 
ATOM     19  C   UNL d   1     -48.068  32.910  33.934  0.00  0.00     0.029 A 
ATOM     20  C   UNL d   1     -48.293  32.234  34.319  0.00  0.00     0.028 A 
ENDBRANCH  15  16
ENDBRANCH  13  15
ENDBRANCH   9  12
BRANCH   2  21
ATOM     21  S   UNL d   1     -50.197  27.235  36.443  0.00  0.00    -0.044 SA
BRANCH  21  22
ATOM     22  C   UNL d   1     -50.067  27.124  37.244  0.00  0.00     0.107 C 
BRANCH  22  23
ATOM     23  C   UNL d   1     -50.713  27.063  37.756  0.00  0.00     0.307 C 
ATOM     24  O   UNL d   1     -50.910  27.689  38.264  0.00  0.00    -0.258 OA
BRANCH  23  25
ATOM     25  O   UNL d   1     -51.163  26.366  37.754  0.00  0.00    -0.271 OA
BRANCH  25  26
ATOM     26  C   UNL d   1     -51.750  26.271  38.328  0.00  0.00     0.126 C 
ATOM     27  C   UNL d   1     -52.001  25.518  38.505  0.00  0.00     0.029 C 
ENDBRANCH  25  26
ENDBRANCH  23  25
ENDBRANCH  22  23
ENDBRANCH  21  22
ENDBRANCH   2  21
BRANCH   1  28
ATOM     28  C   UNL d   1     -49.961  26.788  34.882  0.00  0.00     0.085 C 
BRANCH  28  29
ATOM     29  C   UNL d   1     -50.280  26.849  34.125  0.00  0.00     0.019 C 
BRANCH  29  30
ATOM     30  C   UNL d   1     -50.490  26.188  33.700  0.00  0.00     0.002 C 
BRANCH  30  31
ATOM     31  C   UNL d   1     -51.214  26.141  33.311  0.00  0.00     0.000 C 
ATOM     32  C   UNL d   1     -51.638  25.458  33.308  0.00  0.00     0.000 C 
ENDBRANCH  30  31
ENDBRANCH  29  30
ENDBRANCH  28  29
ENDBRANCH   1  28
TORSDOF 12
ENDMDL
MODEL 2
REMARK VINA RESULT:      72.7      1.027      2.775
REMARK  12 active torsions:
REMARK  status: ('A' for Active; 'I' for Inactive)
REMARK    1  A    between atoms: C_23  and  N_1 
REMARK    2  A    between atoms: S_8  and  C_2 
REMARK    3  A    between atoms: C_7  and  C_11 
REMARK       I    between atoms: N_12  and  C_7 
REMARK    4  A    between atoms: C_24  and  S_8 
REMARK    5  A    between atoms: C_25  and  N_12 
REMARK    6  A    between atoms: C_13  and  C_25 
REMARK    7  A    between atoms: C_15  and  C_24 
REMARK    8  A    between atoms: O_26  and  C_15 
REMARK    9  A    between atoms: C_28  and  C_23 
REMARK   10  A    between atoms: C_27  and  O_26 
REMARK   11  A    between atoms: C_30  and  C_28 
REMARK   12  A    between atoms: C_29  and  C_30 
ROOT
ATOM      1  N   UNL d   1     -49.663  27.749  36.079  0.00  0.00    -0.253 N 
ATOM      2  C   UNL d   1     -49.481  27.611  35.296  0.00  0.00     0.182 A 
ATOM      3  C   UNL d   1     -49.225  28.287  36.520  0.00  0.00     0.268 A 
ATOM      4  N   UNL d   1     -48.855  28.013  34.952  0.00  0.00    -0.222 NA
ATOM      5  C   UNL d   1     -48.601  28.689  36.179  0.00  0.00     0.074 A 
ATOM      6  C   UNL d   1     -48.409  28.553  35.383  0.00  0.00     0.088 A 
ATOM      7  C   UNL d   1     -47.777  28.958  35.031  0.00  0.00     0.024 A 
ATOM      8  C   UNL d   1     -48.154  29.231  36.613  0.00  0.00     0.006 A 
ATOM      9  C   UNL d   1     -47.336  29.498  35.474  0.00  0.00     0.059 A 
ATOM     10  O   UNL d   1     -49.417  28.422  37.316  0.00  0.00    -0.267 OA
ATOM     11  C   UNL d   1     -47.528  29.634  36.269  0.00  0.00     0.005 A 
ENDROOT
BRANCH   9  12
ATOM     12  C   UNL d   1     -46.701  29.905  35.123  0.00  0.00     0.279 C 
ATOM     13  N   UNL d   1     -46.813  30.670  34.876  0.00  0.00    -0.204 NA
ATOM     14  O   UNL d   1     -45.980  29.521  35.038  0.00  0.00    -0.265 OA
BRANCH  13  15
ATOM     15  C   UNL d   1     -47.542  31.038  34.969  0.00  0.00     0.127 C 
BRANCH  15  16
ATOM     16  C   UNL d   1     -47.652  31.811  34.703  0.00  0.00     0.119 A 
ATOM     17  O   UNL d   1     -47.396  32.531  34.974  0.00  0.00    -0.304 OA
ATOM     18  C   UNL d   1     -47.677  33.127  34.485  0.00  0.00     0.123 A 
ATOM     19  C   UNL d   1     -48.120  32.750  33.894  0.00  0.00     0.029 A 
ATOM     20  C   UNL d   1     -48.109  31.950  34.021  0.00  0.00     0.028 A 
ENDBRANCH  15  16
ENDBRANCH  13  15
ENDBRANCH   9  12
BRANCH   2  21
ATOM     21  S   UNL d   1     -49.921  27.071  34.853  0.00  0.00    -0.044 SA
BRANCH  21  22
ATOM     22  C   UNL d   1     -49.807  27.010  34.043  0.00  0.00     0.107 C 
BRANCH  22  23
ATOM     23  C   UNL d   1     -50.369  26.616  33.583  0.00  0.00     0.307 C 
ATOM     24  O   UNL d   1     -51.093  26.976  33.398  0.00  0.00    -0.258 OA
BRANCH  23  25
ATOM     25  O   UNL d   1     -50.198  25.852  33.306  0.00  0.00    -0.271 OA
BRANCH  25  26
ATOM     26  C   UNL d   1     -50.705  25.233  33.511  0.00  0.00     0.126 C 
ATOM     27  C   UNL d   1     -50.492  24.474  33.308  0.00  0.00     0.029 C 
ENDBRANCH  25  26
ENDBRANCH  23  25
ENDBRANCH  22  23
ENDBRANCH  21  22
ENDBRANCH   2  21
BRANCH   1  28
ATOM     28  C   UNL d   1     -50.303  27.337  36.426  0.00  0.00     0.085 C 
BRANCH  28  29
ATOM     29  C   UNL d   1     -50.372  27.290  37.246  0.00  0.00     0.019 C 
BRANCH  29  30
ATOM     30  C   UNL d   1     -50.696  26.637  37.607  0.00  0.00     0.002 C 
BRANCH  30  31
ATOM     31  C   UNL d   1     -51.393  26.690  38.041  0.00  0.00     0.000 C 
ATOM     32  C   UNL d   1     -51.625  26.092  38.527  0.00  0.00     0.000 C 
ENDBRANCH  30  31
ENDBRANCH  29  30
ENDBRANCH  28  29
ENDBRANCH   1  28
TORSDOF 12
ENDMDL
