MODEL 1
REMARK VINA RESULT:      43.5      0.000      0.000
REMARK  2 active torsions:
REMARK  status: ('A' for Active; 'I' for Inactive)
REMARK    1  A    between atoms: C_6  and  C_2 
REMARK    2  A    between atoms: C_7  and  C_3 
ROOT
ATOM      1  N   UNL d   1      13.980  13.023  -2.632  0.00  0.00    -0.238 NA
ATOM      2  C   UNL d   1      13.958  12.344  -2.188  0.00  0.00     0.112 A 
ATOM      3  C   UNL d   1      13.521  12.898  -3.310  0.00  0.00     0.088 A 
ATOM      4  S   UNL d   1      13.490  11.787  -2.574  0.00  0.00    -0.066 SA
ATOM      5  C   UNL d   1      13.218  12.136  -3.276  0.00  0.00     0.056 A 
ENDROOT
BRANCH   3   6
ATOM      6  C   UNL d   1      13.347  13.383  -3.944  0.00  0.00     0.020 A 
ATOM      7  C   UNL d   1      13.572  14.188  -3.939  0.00  0.00     0.028 A 
ATOM      8  C   UNL d   1      13.386  14.682  -4.603  0.00  0.00     0.123 A 
ATOM      9  O   UNL d   1      13.607  15.469  -4.598  0.00  0.00    -0.301 OA
ATOM     10  C   UNL d   1      12.986  14.367  -5.247  0.00  0.00     0.123 A 
ATOM     11  C   UNL d   1      13.433  15.953  -5.231  0.00  0.00     0.149 A 
ATOM     12  C   UNL d   1      13.032  15.648  -5.883  0.00  0.00     0.149 A 
ATOM     13  O   UNL d   1      12.806  14.855  -5.894  0.00  0.00    -0.301 OA
ATOM     14  C   UNL d   1      12.769  13.563  -5.235  0.00  0.00     0.027 A 
ATOM     15  C   UNL d   1      12.944  13.072  -4.596  0.00  0.00     0.004 A 
ENDBRANCH   3   6
BRANCH   2  16
ATOM     16  C   UNL d   1      14.315  12.155  -1.458  0.00  0.00     0.043 A 
ATOM     17  C   UNL d   1      13.852  11.970  -0.802  0.00  0.00     0.101 A 
ATOM     18  N   UNL d   1      14.221  11.782  -0.074  0.00  0.00    -0.242 NA
ATOM     19  C   UNL d   1      15.056  11.781  -0.014  0.00  0.00     0.099 A 
ATOM     20  C   UNL d   1      15.508  11.967  -0.677  0.00  0.00     0.021 A 
ATOM     21  C   UNL d   1      15.148  12.153  -1.394  0.00  0.00     0.005 A 
ENDBRANCH   2  16
TORSDOF 2
ENDMDL
MODEL 2
REMARK VINA RESULT:      44.7      2.585      4.120
REMARK  2 active torsions:
REMARK  status: ('A' for Active; 'I' for Inactive)
REMARK    1  A    between atoms: C_6  and  C_2 
REMARK    2  A    between atoms: C_7  and  C_3 
ROOT
ATOM      1  N   UNL d   1      14.135  13.749  -2.814  0.00  0.00    -0.238 NA
ATOM      2  C   UNL d   1      13.773  13.050  -3.014  0.00  0.00     0.112 A 
ATOM      3  C   UNL d   1      14.354  13.702  -2.017  0.00  0.00     0.088 A 
ATOM      4  S   UNL d   1      13.759  12.557  -2.354  0.00  0.00    -0.066 SA
ATOM      5  C   UNL d   1      14.123  12.967  -1.731  0.00  0.00     0.056 A 
ENDROOT
BRANCH   3   6
ATOM      6  C   UNL d   1      14.731  14.235  -1.526  0.00  0.00     0.020 A 
ATOM      7  C   UNL d   1      14.689  15.056  -1.676  0.00  0.00     0.028 A 
ATOM      8  C   UNL d   1      15.085  15.600  -1.161  0.00  0.00     0.123 A 
ATOM      9  O   UNL d   1      15.043  16.403  -1.309  0.00  0.00    -0.301 OA
ATOM     10  C   UNL d   1      15.508  15.318  -0.516  0.00  0.00     0.123 A 
ATOM     11  C   UNL d   1      15.420  16.936  -0.819  0.00  0.00     0.149 A 
ATOM     12  C   UNL d   1      15.848  16.664  -0.168  0.00  0.00     0.149 A 
ATOM     13  O   UNL d   1      15.893  15.855  -0.014  0.00  0.00    -0.301 OA
ATOM     14  C   UNL d   1      15.540  14.497  -0.381  0.00  0.00     0.027 A 
ATOM     15  C   UNL d   1      15.159  13.957  -0.875  0.00  0.00     0.004 A 
ENDBRANCH   3   6
BRANCH   2  16
ATOM     16  C   UNL d   1      13.444  12.789  -3.735  0.00  0.00     0.043 A 
ATOM     17  C   UNL d   1      13.124  12.033  -3.800  0.00  0.00     0.101 A 
ATOM     18  N   UNL d   1      12.797  11.783  -4.528  0.00  0.00    -0.242 NA
ATOM     19  C   UNL d   1      12.794  12.298  -5.188  0.00  0.00     0.099 A 
ATOM     20  C   UNL d   1      13.116  13.052  -5.111  0.00  0.00     0.021 A 
ATOM     21  C   UNL d   1      13.440  13.301  -4.395  0.00  0.00     0.005 A 
ENDBRANCH   2  16
TORSDOF 2
ENDMDL
