MODEL 1
REMARK VINA RESULT:      18.0      0.000      0.000
REMARK  3 active torsions:
REMARK  status: ('A' for Active; 'I' for Inactive)
REMARK    1  A    between atoms: C_7  and  C_1 
REMARK    2  A    between atoms: N_8  and  C_7 
REMARK    3  A    between atoms: C_11  and  N_8 
ROOT
ATOM      1  C   UNL d   1      14.098  12.831  -2.024  0.00  0.00     0.145 A 
ATOM      2  C   UNL d   1      14.764  13.268  -1.837  0.00  0.00     0.304 A 
ATOM      3  C   UNL d   1      13.845  12.229  -1.520  0.00  0.00     0.304 A 
ATOM      4  O   UNL d   1      15.184  13.108  -1.144  0.00  0.00    -0.277 OA
ATOM      5  O   UNL d   1      14.265  12.069  -0.827  0.00  0.00    -0.277 OA
ATOM      6  C   UNL d   1      14.936  12.511  -0.642  0.00  0.00     0.203 A 
ATOM      7  O   UNL d   1      15.015  13.885  -2.364  0.00  0.00    -0.259 OA
ATOM      8  O   UNL d   1      13.152  11.780  -1.721  0.00  0.00    -0.259 OA
ATOM      9  C   UNL d   1      14.852  11.963  -0.014  0.00  0.00     0.062 C 
ATOM     10  C   UNL d   1      15.618  12.853  -0.310  0.00  0.00     0.062 C 
ENDROOT
BRANCH   1  11
ATOM     11  C   UNL d   1      13.674  12.992  -2.723  0.00  0.00     0.111 C 
BRANCH  11  12
ATOM     12  N   UNL d   1      13.304  12.378  -3.131  0.00  0.00    -0.225 NA
BRANCH  12  13
ATOM     13  C   UNL d   1      13.178  12.442  -3.952  0.00  0.00     0.163 A 
ATOM     14  N   UNL d   1      13.267  11.781  -4.433  0.00  0.00    -0.225 NA
ATOM     15  C   UNL d   1      13.142  11.845  -5.251  0.00  0.00     0.101 A 
ATOM     16  C   UNL d   1      12.928  12.567  -5.580  0.00  0.00     0.021 A 
ATOM     17  C   UNL d   1      12.838  13.230  -5.098  0.00  0.00     0.005 A 
ATOM     18  C   UNL d   1      12.964  13.167  -4.280  0.00  0.00     0.039 A 
ENDBRANCH  12  13
ENDBRANCH  11  12
ENDBRANCH   1  11
TORSDOF 3
ENDMDL
