MODEL 1
REMARK VINA RESULT:      -9.4      0.000      0.000
REMARK  3 active torsions:
REMARK  status: ('A' for Active; 'I' for Inactive)
REMARK    1  A    between atoms: N_5  and  S_1 
REMARK    2  A    between atoms: C_6  and  S_1 
REMARK    3  A    between atoms: C_2  and  C_9 
ROOT
ATOM      1  C   UNL d   1      51.603  34.119  52.755  0.00  0.00     0.104 A 
ATOM      2  C   UNL d   1      52.546  33.115  53.127  0.00  0.00     0.025 A 
ATOM      3  C   UNL d   1      51.807  33.321  52.838  0.00  0.00     0.015 A 
ATOM      4  C   UNL d   1      52.149  34.709  52.965  0.00  0.00     0.013 A 
ATOM      5  C   UNL d   1      53.092  33.704  53.336  0.00  0.00     0.002 A 
ATOM      6  C   UNL d   1      52.891  34.505  53.254  0.00  0.00     0.001 A 
ENDROOT
BRANCH   2   7
ATOM      7  C   UNL d   1      52.750  32.317  53.210  0.00  0.00     0.111 A 
ATOM      8  N   UNL d   1      52.481  31.707  52.739  0.00  0.00    -0.239 NA
ATOM      9  C   UNL d   1      52.820  31.010  53.014  0.00  0.00     0.088 A 
ATOM     10  C   UNL d   1      52.758  30.232  52.767  0.00  0.00     0.020 A 
ATOM     11  C   UNL d   1      53.300  31.195  53.659  0.00  0.00     0.049 A 
ATOM     12  C   UNL d   1      53.168  29.639  53.154  0.00  0.00     0.002 A 
ATOM     13  C   UNL d   1      53.648  29.824  53.799  0.00  0.00     0.001 A 
ATOM     14  C   UNL d   1      53.711  30.610  54.049  0.00  0.00     0.008 A 
ATOM     15  S   UNL d   1      53.256  32.008  53.780  0.00  0.00    -0.066 SA
ENDBRANCH   2   7
BRANCH   1  16
ATOM     16  S   UNL d   1      50.861  34.329  52.466  0.00  0.00     0.271 S 
ATOM     17  O   UNL d   1      50.500  34.289  53.175  0.00  0.00    -0.200 OA
ATOM     18  O   UNL d   1      51.322  34.367  51.630  0.00  0.00    -0.200 OA
BRANCH  16  19
ATOM     19  N   UNL d   1      50.082  34.525  52.304  0.00  0.00    -0.229 N 
ATOM     20  C   UNL d   1      49.547  34.897  52.819  0.00  0.00     0.092 A 
ATOM     21  C   UNL d   1      48.827  34.985  52.423  0.00  0.00     0.021 A 
ATOM     22  C   UNL d   1      48.905  34.673  51.669  0.00  0.00     0.021 A 
ATOM     23  C   UNL d   1      49.678  34.389  51.594  0.00  0.00     0.092 A 
ENDBRANCH  16  19
ENDBRANCH   1  16
TORSDOF 3
ENDMDL
MODEL 2
REMARK VINA RESULT:      -9.2      1.028      4.510
REMARK  3 active torsions:
REMARK  status: ('A' for Active; 'I' for Inactive)
REMARK    1  A    between atoms: N_5  and  S_1 
REMARK    2  A    between atoms: C_6  and  S_1 
REMARK    3  A    between atoms: C_2  and  C_9 
ROOT
ATOM      1  C   UNL d   1      52.716  33.026  53.231  0.00  0.00     0.104 A 
ATOM      2  C   UNL d   1      51.768  34.026  52.861  0.00  0.00     0.025 A 
ATOM      3  C   UNL d   1      51.959  33.236  52.969  0.00  0.00     0.015 A 
ATOM      4  C   UNL d   1      53.280  33.616  53.382  0.00  0.00     0.013 A 
ATOM      5  C   UNL d   1      52.331  34.616  53.012  0.00  0.00     0.002 A 
ATOM      6  C   UNL d   1      53.091  34.409  53.274  0.00  0.00     0.001 A 
ENDROOT
BRANCH   2   7
ATOM      7  C   UNL d   1      51.011  34.236  52.600  0.00  0.00     0.111 A 
ATOM      8  N   UNL d   1      50.728  34.143  51.840  0.00  0.00    -0.239 NA
ATOM      9  C   UNL d   1      49.955  34.422  51.824  0.00  0.00     0.088 A 
ATOM     10  C   UNL d   1      49.399  34.472  51.226  0.00  0.00     0.020 A 
ATOM     11  C   UNL d   1      49.763  34.689  52.581  0.00  0.00     0.049 A 
ATOM     12  C   UNL d   1      48.656  34.782  51.373  0.00  0.00     0.002 A 
ATOM     13  C   UNL d   1      48.464  35.049  52.130  0.00  0.00     0.001 A 
ATOM     14  C   UNL d   1      49.026  34.999  52.735  0.00  0.00     0.008 A 
ATOM     15  S   UNL d   1      50.421  34.572  53.063  0.00  0.00    -0.066 SA
ENDBRANCH   2   7
BRANCH   1  16
ATOM     16  S   UNL d   1      52.911  32.233  53.340  0.00  0.00     0.271 S 
ATOM     17  O   UNL d   1      52.832  32.039  52.571  0.00  0.00    -0.200 OA
ATOM     18  O   UNL d   1      52.998  32.497  54.254  0.00  0.00    -0.200 OA
BRANCH  16  19
ATOM     19  N   UNL d   1      53.086  31.433  53.318  0.00  0.00    -0.229 N 
ATOM     20  C   UNL d   1      52.681  30.849  52.887  0.00  0.00     0.092 A 
ATOM     21  C   UNL d   1      53.049  30.122  53.030  0.00  0.00     0.021 A 
ATOM     22  C   UNL d   1      53.677  30.245  53.542  0.00  0.00     0.021 A 
ATOM     23  C   UNL d   1      53.701  31.052  53.720  0.00  0.00     0.092 A 
ENDBRANCH  16  19
ENDBRANCH   1  16
TORSDOF 3
ENDMDL
MODEL 3
REMARK VINA RESULT:      -8.4      1.923      4.557
REMARK  3 active torsions:
REMARK  status: ('A' for Active; 'I' for Inactive)
REMARK    1  A    between atoms: N_5  and  S_1 
REMARK    2  A    between atoms: C_6  and  S_1 
REMARK    3  A    between atoms: C_2  and  C_9 
ROOT
ATOM      1  C   UNL d   1      53.425  32.640  53.691  0.00  0.00     0.104 A 
ATOM      2  C   UNL d   1      52.171  32.789  53.026  0.00  0.00     0.025 A 
ATOM      3  C   UNL d   1      52.788  33.114  53.457  0.00  0.00     0.015 A 
ATOM      4  C   UNL d   1      53.437  31.836  53.488  0.00  0.00     0.013 A 
ATOM      5  C   UNL d   1      52.183  31.984  52.823  0.00  0.00     0.002 A 
ATOM      6  C   UNL d   1      52.820  31.506  53.056  0.00  0.00     0.001 A 
ENDROOT
BRANCH   2   7
ATOM      7  C   UNL d   1      51.534  33.263  52.792  0.00  0.00     0.111 A 
ATOM      8  N   UNL d   1      51.364  33.485  52.025  0.00  0.00    -0.239 NA
ATOM      9  C   UNL d   1      50.688  33.952  52.043  0.00  0.00     0.088 A 
ATOM     10  C   UNL d   1      50.261  34.328  51.455  0.00  0.00     0.020 A 
ATOM     11  C   UNL d   1      50.441  34.016  52.828  0.00  0.00     0.049 A 
ATOM     12  C   UNL d   1      49.595  34.766  51.639  0.00  0.00     0.002 A 
ATOM     13  C   UNL d   1      49.348  34.830  52.424  0.00  0.00     0.001 A 
ATOM     14  C   UNL d   1      49.779  34.450  53.019  0.00  0.00     0.008 A 
ATOM     15  S   UNL d   1      50.968  33.587  53.293  0.00  0.00    -0.066 SA
ENDBRANCH   2   7
BRANCH   1  16
ATOM     16  S   UNL d   1      54.045  32.966  54.124  0.00  0.00     0.271 S 
ATOM     17  O   UNL d   1      53.624  33.042  54.796  0.00  0.00    -0.200 OA
ATOM     18  O   UNL d   1      54.523  32.862  53.304  0.00  0.00    -0.200 OA
BRANCH  16  19
ATOM     19  N   UNL d   1      54.576  33.294  54.656  0.00  0.00    -0.229 N 
ATOM     20  C   UNL d   1      54.520  33.279  55.484  0.00  0.00     0.092 A 
ATOM     21  C   UNL d   1      55.175  33.677  55.794  0.00  0.00     0.021 A 
ATOM     22  C   UNL d   1      55.639  33.939  55.170  0.00  0.00     0.021 A 
ATOM     23  C   UNL d   1      55.270  33.703  54.469  0.00  0.00     0.092 A 
ENDBRANCH  16  19
ENDBRANCH   1  16
TORSDOF 3
ENDMDL
MODEL 4
REMARK VINA RESULT:      -7.4      1.552      2.422
REMARK  3 active torsions:
REMARK  status: ('A' for Active; 'I' for Inactive)
REMARK    1  A    between atoms: N_5  and  S_1 
REMARK    2  A    between atoms: C_6  and  S_1 
REMARK    3  A    between atoms: C_2  and  C_9 
ROOT
ATOM      1  C   UNL d   1      51.423  33.235  52.893  0.00  0.00     0.104 A 
ATOM      2  C   UNL d   1      52.673  32.896  53.493  0.00  0.00     0.025 A 
ATOM      3  C   UNL d   1      52.096  33.453  53.324  0.00  0.00     0.015 A 
ATOM      4  C   UNL d   1      51.336  32.452  52.633  0.00  0.00     0.013 A 
ATOM      5  C   UNL d   1      52.586  32.113  53.232  0.00  0.00     0.002 A 
ATOM      6  C   UNL d   1      51.913  31.891  52.800  0.00  0.00     0.001 A 
ENDROOT
BRANCH   2   7
ATOM      7  C   UNL d   1      53.346  33.115  53.923  0.00  0.00     0.111 A 
ATOM      8  N   UNL d   1      53.364  33.277  54.723  0.00  0.00    -0.239 NA
ATOM      9  C   UNL d   1      54.139  33.470  54.921  0.00  0.00     0.088 A 
ATOM     10  C   UNL d   1      54.491  33.680  55.629  0.00  0.00     0.020 A 
ATOM     11  C   UNL d   1      54.598  33.424  54.237  0.00  0.00     0.049 A 
ATOM     12  C   UNL d   1      55.292  33.845  55.663  0.00  0.00     0.002 A 
ATOM     13  C   UNL d   1      55.751  33.799  54.978  0.00  0.00     0.001 A 
ATOM     14  C   UNL d   1      55.395  33.586  54.263  0.00  0.00     0.008 A 
ATOM     15  S   UNL d   1      54.103  33.203  53.617  0.00  0.00    -0.066 SA
ENDBRANCH   2   7
BRANCH   1  16
ATOM     16  S   UNL d   1      50.843  33.793  52.722  0.00  0.00     0.271 S 
ATOM     17  O   UNL d   1      50.374  33.590  53.334  0.00  0.00    -0.200 OA
ATOM     18  O   UNL d   1      51.425  34.014  51.999  0.00  0.00    -0.200 OA
BRANCH  16  19
ATOM     19  N   UNL d   1      50.201  34.300  52.660  0.00  0.00    -0.229 N 
ATOM     20  C   UNL d   1      49.897  34.791  53.257  0.00  0.00     0.092 A 
ATOM     21  C   UNL d   1      49.250  35.203  52.947  0.00  0.00     0.021 A 
ATOM     22  C   UNL d   1      49.147  34.976  52.166  0.00  0.00     0.021 A 
ATOM     23  C   UNL d   1      49.732  34.420  51.987  0.00  0.00     0.092 A 
ENDBRANCH  16  19
ENDBRANCH   1  16
TORSDOF 3
ENDMDL
MODEL 5
REMARK VINA RESULT:      -7.3      2.039      5.256
REMARK  3 active torsions:
REMARK  status: ('A' for Active; 'I' for Inactive)
REMARK    1  A    between atoms: N_5  and  S_1 
REMARK    2  A    between atoms: C_6  and  S_1 
REMARK    3  A    between atoms: C_2  and  C_9 
ROOT
ATOM      1  C   UNL d   1      51.125  34.221  52.822  0.00  0.00     0.104 A 
ATOM      2  C   UNL d   1      49.842  34.772  52.527  0.00  0.00     0.025 A 
ATOM      3  C   UNL d   1      50.461  34.658  53.053  0.00  0.00     0.015 A 
ATOM      4  C   UNL d   1      51.163  33.899  52.058  0.00  0.00     0.013 A 
ATOM      5  C   UNL d   1      49.880  34.451  51.763  0.00  0.00     0.002 A 
ATOM      6  C   UNL d   1      50.544  34.012  51.528  0.00  0.00     0.001 A 
ENDROOT
BRANCH   2   7
ATOM      7  C   UNL d   1      49.178  35.209  52.758  0.00  0.00     0.111 A 
ATOM      8  N   UNL d   1      49.072  35.561  53.486  0.00  0.00    -0.239 NA
ATOM      9  C   UNL d   1      48.340  35.936  53.479  0.00  0.00     0.088 A 
ATOM     10  C   UNL d   1      47.939  36.373  54.042  0.00  0.00     0.020 A 
ATOM     11  C   UNL d   1      47.996  35.812  52.739  0.00  0.00     0.049 A 
ATOM     12  C   UNL d   1      47.201  36.687  53.878  0.00  0.00     0.002 A 
ATOM     13  C   UNL d   1      46.857  36.563  53.138  0.00  0.00     0.001 A 
ATOM     14  C   UNL d   1      47.262  36.122  52.568  0.00  0.00     0.008 A 
ATOM     15  S   UNL d   1      48.518  35.360  52.291  0.00  0.00    -0.066 SA
ENDBRANCH   2   7
BRANCH   1  16
ATOM     16  S   UNL d   1      51.747  34.105  53.349  0.00  0.00     0.271 S 
ATOM     17  O   UNL d   1      52.125  34.779  53.155  0.00  0.00    -0.200 OA
ATOM     18  O   UNL d   1      51.272  33.304  53.560  0.00  0.00    -0.200 OA
BRANCH  16  19
ATOM     19  N   UNL d   1      52.413  34.105  53.827  0.00  0.00    -0.229 N 
ATOM     20  C   UNL d   1      52.804  34.772  54.132  0.00  0.00     0.092 A 
ATOM     21  C   UNL d   1      53.446  34.510  54.583  0.00  0.00     0.021 A 
ATOM     22  C   UNL d   1      53.460  33.691  54.564  0.00  0.00     0.021 A 
ATOM     23  C   UNL d   1      52.825  33.440  54.098  0.00  0.00     0.092 A 
ENDBRANCH  16  19
ENDBRANCH   1  16
TORSDOF 3
ENDMDL
MODEL 6
REMARK VINA RESULT:      -7.2      2.585      4.987
REMARK  3 active torsions:
REMARK  status: ('A' for Active; 'I' for Inactive)
REMARK    1  A    between atoms: N_5  and  S_1 
REMARK    2  A    between atoms: C_6  and  S_1 
REMARK    3  A    between atoms: C_2  and  C_9 
ROOT
ATOM      1  C   UNL d   1      53.116  30.622  53.486  0.00  0.00     0.104 A 
ATOM      2  C   UNL d   1      52.973  32.033  53.325  0.00  0.00     0.025 A 
ATOM      3  C   UNL d   1      53.169  31.389  53.794  0.00  0.00     0.015 A 
ATOM      4  C   UNL d   1      52.866  30.508  52.703  0.00  0.00     0.013 A 
ATOM      5  C   UNL d   1      52.724  31.918  52.542  0.00  0.00     0.002 A 
ATOM      6  C   UNL d   1      52.670  31.151  52.231  0.00  0.00     0.001 A 
ENDROOT
BRANCH   2   7
ATOM      7  C   UNL d   1      53.026  32.800  53.633  0.00  0.00     0.111 A 
ATOM      8  N   UNL d   1      53.460  33.019  54.288  0.00  0.00    -0.239 NA
ATOM      9  C   UNL d   1      53.356  33.828  54.398  0.00  0.00     0.088 A 
ATOM     10  C   UNL d   1      53.649  34.351  54.955  0.00  0.00     0.020 A 
ATOM     11  C   UNL d   1      52.854  34.105  53.804  0.00  0.00     0.049 A 
ATOM     12  C   UNL d   1      53.447  35.143  54.928  0.00  0.00     0.002 A 
ATOM     13  C   UNL d   1      52.945  35.420  54.334  0.00  0.00     0.001 A 
ATOM     14  C   UNL d   1      52.649  34.892  53.771  0.00  0.00     0.008 A 
ATOM     15  S   UNL d   1      52.649  33.464  53.329  0.00  0.00    -0.066 SA
ENDBRANCH   2   7
BRANCH   1  16
ATOM     16  S   UNL d   1      53.312  29.974  53.955  0.00  0.00     0.271 S 
ATOM     17  O   UNL d   1      52.574  29.873  54.240  0.00  0.00    -0.200 OA
ATOM     18  O   UNL d   1      54.185  30.120  53.597  0.00  0.00    -0.200 OA
BRANCH  16  19
ATOM     19  N   UNL d   1      53.378  29.330  54.458  0.00  0.00    -0.229 N 
ATOM     20  C   UNL d   1      53.133  29.292  55.251  0.00  0.00     0.092 A 
ATOM     21  C   UNL d   1      53.308  28.537  55.538  0.00  0.00     0.021 A 
ATOM     22  C   UNL d   1      53.658  28.104  54.937  0.00  0.00     0.021 A 
ATOM     23  C   UNL d   1      53.702  28.591  54.270  0.00  0.00     0.092 A 
ENDBRANCH  16  19
ENDBRANCH   1  16
TORSDOF 3
ENDMDL
