MODEL 1
REMARK VINA RESULT:      -5.3      0.000      0.000
REMARK  3 active torsions:
REMARK  status: ('A' for Active; 'I' for Inactive)
REMARK    1  A    between atoms: C_2  and  N_1 
REMARK    2  A    between atoms: C_3  and  N_1 
REMARK    3  A    between atoms: C_7  and  C_3 
ROOT
ATOM      1  N   UNL d   1     -41.352-122.350 -52.627  0.00  0.00    -0.184 N 
ATOM      2  O   UNL d   1     -41.128-121.567 -52.778  0.00  0.00    -0.080 OA
ENDROOT
BRANCH   1   3
ATOM      3  C   UNL d   1     -41.277-122.656 -51.864  0.00  0.00     0.090 A 
ATOM      4  C   UNL d   1     -41.212-122.153 -51.205  0.00  0.00     0.018 A 
ATOM      5  C   UNL d   1     -41.224-121.338 -51.306  0.00  0.00     0.002 C 
ATOM      6  C   UNL d   1     -41.137-122.458 -50.442  0.00  0.00     0.002 A 
ATOM      7  C   UNL d   1     -41.123-123.292 -50.314  0.00  0.00     0.000 A 
ATOM      8  C   UNL d   1     -41.189-123.786 -50.996  0.00  0.00     0.002 A 
ATOM      9  C   UNL d   1     -41.264-123.466 -51.753  0.00  0.00     0.020 A 
ENDBRANCH   1   3
BRANCH   1  10
ATOM     10  C   UNL d   1     -41.647-122.813 -53.233  0.00  0.00     0.108 C 
BRANCH  10  11
ATOM     11  C   UNL d   1     -41.747-122.494 -53.992  0.00  0.00     0.023 A 
ATOM     12  C   UNL d   1     -42.418-122.039 -54.179  0.00  0.00     0.022 A 
ATOM     13  C   UNL d   1     -42.526-121.721 -54.925  0.00  0.00     0.099 A 
ATOM     14  N   UNL d   1     -41.956-121.853 -55.508  0.00  0.00    -0.242 NA
ATOM     15  C   UNL d   1     -41.277-122.313 -55.319  0.00  0.00     0.099 A 
ATOM     16  C   UNL d   1     -41.180-122.628 -54.567  0.00  0.00     0.022 A 
ENDBRANCH  10  11
ENDBRANCH   1  10
TORSDOF 3
ENDMDL
MODEL 2
REMARK VINA RESULT:      -5.1      0.972      3.739
REMARK  3 active torsions:
REMARK  status: ('A' for Active; 'I' for Inactive)
REMARK    1  A    between atoms: C_2  and  N_1 
REMARK    2  A    between atoms: C_3  and  N_1 
REMARK    3  A    between atoms: C_7  and  C_3 
ROOT
ATOM      1  N   UNL d   1     -41.586-122.884 -53.169  0.00  0.00    -0.184 N 
ATOM      2  O   UNL d   1     -41.886-123.626 -52.950  0.00  0.00    -0.080 OA
ENDROOT
BRANCH   1   3
ATOM      3  C   UNL d   1     -41.760-122.581 -53.916  0.00  0.00     0.090 A 
ATOM      4  C   UNL d   1     -41.529-122.983 -54.607  0.00  0.00     0.018 A 
ATOM      5  C   UNL d   1     -41.123-123.695 -54.553  0.00  0.00     0.002 C 
ATOM      6  C   UNL d   1     -41.702-122.680 -55.354  0.00  0.00     0.002 A 
ATOM      7  C   UNL d   1     -42.119-121.951 -55.435  0.00  0.00     0.000 A 
ATOM      8  C   UNL d   1     -42.344-121.557 -54.722  0.00  0.00     0.002 A 
ATOM      9  C   UNL d   1     -42.164-121.873 -53.981  0.00  0.00     0.020 A 
ENDBRANCH   1   3
BRANCH   1  10
ATOM     10  C   UNL d   1     -41.123-122.461 -52.645  0.00  0.00     0.108 C 
BRANCH  10  11
ATOM     11  C   UNL d   1     -41.151-122.627 -51.833  0.00  0.00     0.023 A 
ATOM     12  C   UNL d   1     -41.123-123.412 -51.557  0.00  0.00     0.022 A 
ATOM     13  C   UNL d   1     -41.150-123.585 -50.757  0.00  0.00     0.099 A 
ATOM     14  N   UNL d   1     -41.206-122.968 -50.211  0.00  0.00    -0.242 NA
ATOM     15  C   UNL d   1     -41.234-122.175 -50.491  0.00  0.00     0.099 A 
ATOM     16  C   UNL d   1     -41.207-122.013 -51.294  0.00  0.00     0.022 A 
ENDBRANCH  10  11
ENDBRANCH   1  10
TORSDOF 3
ENDMDL
MODEL 3
REMARK VINA RESULT:      -4.8      1.745      2.721
REMARK  3 active torsions:
REMARK  status: ('A' for Active; 'I' for Inactive)
REMARK    1  A    between atoms: C_2  and  N_1 
REMARK    2  A    between atoms: C_3  and  N_1 
REMARK    3  A    between atoms: C_7  and  C_3 
ROOT
ATOM      1  N   UNL d   1     -41.855-123.086 -50.254  0.00  0.00    -0.184 N 
ATOM      2  O   UNL d   1     -42.554-123.190 -50.688  0.00  0.00    -0.080 OA
ENDROOT
BRANCH   1   3
ATOM      3  C   UNL d   1     -41.860-123.212 -49.438  0.00  0.00     0.090 A 
ATOM      4  C   UNL d   1     -42.521-123.006 -48.976  0.00  0.00     0.018 A 
ATOM      5  C   UNL d   1     -43.182-122.672 -49.329  0.00  0.00     0.002 C 
ATOM      6  C   UNL d   1     -42.526-123.132 -48.161  0.00  0.00     0.002 A 
ATOM      7  C   UNL d   1     -41.858-123.474 -47.776  0.00  0.00     0.000 A 
ATOM      8  C   UNL d   1     -41.197-123.676 -48.262  0.00  0.00     0.002 A 
ATOM      9  C   UNL d   1     -41.206-123.544 -49.077  0.00  0.00     0.020 A 
ENDBRANCH   1   3
BRANCH   1  10
ATOM     10  C   UNL d   1     -41.168-122.861 -50.636  0.00  0.00     0.108 C 
BRANCH  10  11
ATOM     11  C   UNL d   1     -41.160-122.765 -51.459  0.00  0.00     0.023 A 
ATOM     12  C   UNL d   1     -41.178-122.006 -51.801  0.00  0.00     0.022 A 
ATOM     13  C   UNL d   1     -41.170-121.903 -52.613  0.00  0.00     0.099 A 
ATOM     14  N   UNL d   1     -41.143-122.565 -53.106  0.00  0.00    -0.242 NA
ATOM     15  C   UNL d   1     -41.125-123.332 -52.759  0.00  0.00     0.099 A 
ATOM     16  C   UNL d   1     -41.133-123.424 -51.945  0.00  0.00     0.022 A 
ENDBRANCH  10  11
ENDBRANCH   1  10
TORSDOF 3
ENDMDL
MODEL 4
REMARK VINA RESULT:      -3.5      1.824      2.887
REMARK  3 active torsions:
REMARK  status: ('A' for Active; 'I' for Inactive)
REMARK    1  A    between atoms: C_2  and  N_1 
REMARK    2  A    between atoms: C_3  and  N_1 
REMARK    3  A    between atoms: C_7  and  C_3 
ROOT
ATOM      1  N   UNL d   1     -42.080-122.764 -50.111  0.00  0.00    -0.184 N 
ATOM      2  O   UNL d   1     -42.539-122.169 -50.461  0.00  0.00    -0.080 OA
ENDROOT
BRANCH   1   3
ATOM      3  C   UNL d   1     -42.309-123.080 -49.384  0.00  0.00     0.090 A 
ATOM      4  C   UNL d   1     -41.833-122.990 -48.708  0.00  0.00     0.018 A 
ATOM      5  C   UNL d   1     -41.123-122.582 -48.755  0.00  0.00     0.002 C 
ATOM      6  C   UNL d   1     -42.062-123.306 -47.981  0.00  0.00     0.002 A 
ATOM      7  C   UNL d   1     -42.788-123.729 -47.907  0.00  0.00     0.000 A 
ATOM      8  C   UNL d   1     -43.257-123.810 -48.605  0.00  0.00     0.002 A 
ATOM      9  C   UNL d   1     -43.016-123.488 -49.326  0.00  0.00     0.020 A 
ENDBRANCH   1   3
BRANCH   1  10
ATOM     10  C   UNL d   1     -41.405-123.032 -50.487  0.00  0.00     0.108 C 
BRANCH  10  11
ATOM     11  C   UNL d   1     -41.358-123.029 -51.314  0.00  0.00     0.023 A 
ATOM     12  C   UNL d   1     -41.398-123.739 -51.747  0.00  0.00     0.022 A 
ATOM     13  C   UNL d   1     -41.352-123.745 -52.564  0.00  0.00     0.099 A 
ATOM     14  N   UNL d   1     -41.265-123.031 -52.971  0.00  0.00    -0.242 NA
ATOM     15  C   UNL d   1     -41.225-122.313 -52.533  0.00  0.00     0.099 A 
ATOM     16  C   UNL d   1     -41.271-122.319 -51.714  0.00  0.00     0.022 A 
ENDBRANCH  10  11
ENDBRANCH   1  10
TORSDOF 3
ENDMDL
