MODEL 1
REMARK VINA RESULT:      -3.0      0.000      0.000
REMARK  6 active torsions:
REMARK  status: ('A' for Active; 'I' for Inactive)
REMARK    1  A    between atoms: N_5  and  S_1 
REMARK    2  A    between atoms: C_8  and  S_1 
REMARK    3  A    between atoms: C_2  and  C_14 
REMARK    4  A    between atoms: C_7  and  N_5 
REMARK    5  A    between atoms: C_6  and  C_7 
REMARK       I    between atoms: N_11  and  C_6 
REMARK    6  A    between atoms: C_19  and  N_11 
ROOT
ATOM      1  C   UNL d   1      32.626  18.146 -23.370  0.00  0.00     0.298 C 
ATOM      2  N   UNL d   1      32.727  18.904 -23.648  0.00  0.00    -0.207 NA
ATOM      3  O   UNL d   1      32.594  17.998 -22.555  0.00  0.00    -0.264 OA
ENDROOT
BRANCH   2   4
ATOM      4  C   UNL d   1      32.798  19.531 -23.116  0.00  0.00     0.085 A 
ATOM      5  C   UNL d   1      32.488  19.454 -22.358  0.00  0.00     0.019 A 
ATOM      6  C   UNL d   1      32.552  20.079 -21.810  0.00  0.00     0.004 A 
ATOM      7  C   UNL d   1      32.928  20.777 -22.027  0.00  0.00     0.024 A 
ATOM      8  C   UNL d   1      33.239  20.857 -22.788  0.00  0.00     0.004 A 
ATOM      9  C   UNL d   1      33.178  20.241 -23.334  0.00  0.00     0.019 A 
BRANCH   7  10
ATOM     10  C   UNL d   1      32.985  21.392 -21.472  0.00  0.00     0.111 A 
ATOM     11  N   UNL d   1      32.922  21.270 -20.664  0.00  0.00    -0.239 NA
ATOM     12  C   UNL d   1      33.006  21.999 -20.281  0.00  0.00     0.088 A 
ATOM     13  C   UNL d   1      32.992  22.213 -19.487  0.00  0.00     0.020 A 
ATOM     14  C   UNL d   1      33.122  22.573 -20.862  0.00  0.00     0.049 A 
ATOM     15  C   UNL d   1      33.094  23.001 -19.272  0.00  0.00     0.002 A 
ATOM     16  C   UNL d   1      33.210  23.575 -19.853  0.00  0.00     0.001 A 
ATOM     17  C   UNL d   1      33.224  23.362 -20.648  0.00  0.00     0.008 A 
ATOM     18  S   UNL d   1      33.109  22.197 -21.600  0.00  0.00    -0.066 SA
ENDBRANCH   7  10
ENDBRANCH   2   4
BRANCH   1  19
ATOM     19  C   UNL d   1      32.554  17.514 -23.896  0.00  0.00     0.151 C 
ATOM     20  C   UNL d   1      33.221  17.174 -24.240  0.00  0.00     0.027 C 
BRANCH  19  21
ATOM     21  N   UNL d   1      31.933  17.065 -24.219  0.00  0.00    -0.153 NA
BRANCH  21  22
ATOM     22  S   UNL d   1      31.883  16.261 -24.054  0.00  0.00     0.285 S 
ATOM     23  O   UNL d   1      32.678  16.247 -23.901  0.00  0.00    -0.198 OA
ATOM     24  O   UNL d   1      31.836  15.465 -23.891  0.00  0.00    -0.198 OA
BRANCH  22  25
ATOM     25  C   UNL d   1      31.069  16.285 -24.214  0.00  0.00     0.106 A 
ATOM     26  C   UNL d   1      30.534  15.897 -23.718  0.00  0.00     0.024 A 
ATOM     27  C   UNL d   1      29.714  15.929 -23.890  0.00  0.00     0.059 A 
ATOM     28 CL   UNL d   1      29.179  15.538 -23.391  0.00  0.00    -0.082 Cl
ATOM     29  C   UNL d   1      29.445  16.344 -24.548  0.00  0.00     0.011 A 
ATOM     30  C   UNL d   1      29.980  16.730 -25.040  0.00  0.00     0.002 A 
ATOM     31  C   UNL d   1      30.800  16.698 -24.868  0.00  0.00     0.013 A 
ENDBRANCH  22  25
ENDBRANCH  21  22
ENDBRANCH  19  21
ENDBRANCH   1  19
TORSDOF 6
ENDMDL
MODEL 2
REMARK VINA RESULT:      -2.5      1.513      2.200
REMARK  6 active torsions:
REMARK  status: ('A' for Active; 'I' for Inactive)
REMARK    1  A    between atoms: N_5  and  S_1 
REMARK    2  A    between atoms: C_8  and  S_1 
REMARK    3  A    between atoms: C_2  and  C_14 
REMARK    4  A    between atoms: C_7  and  N_5 
REMARK    5  A    between atoms: C_6  and  C_7 
REMARK       I    between atoms: N_11  and  C_6 
REMARK    6  A    between atoms: C_19  and  N_11 
ROOT
ATOM      1  C   UNL d   1      33.000  19.461 -22.344  0.00  0.00     0.298 C 
ATOM      2  N   UNL d   1      32.859  20.262 -22.376  0.00  0.00    -0.207 NA
ATOM      3  O   UNL d   1      33.187  19.096 -21.623  0.00  0.00    -0.264 OA
ENDROOT
BRANCH   2   4
ATOM      4  C   UNL d   1      32.900  20.715 -21.688  0.00  0.00     0.085 A 
ATOM      5  C   UNL d   1      33.156  20.364 -20.990  0.00  0.00     0.019 A 
ATOM      6  C   UNL d   1      33.203  20.809 -20.286  0.00  0.00     0.004 A 
ATOM      7  C   UNL d   1      32.993  21.604 -20.289  0.00  0.00     0.024 A 
ATOM      8  C   UNL d   1      32.737  21.958 -20.990  0.00  0.00     0.004 A 
ATOM      9  C   UNL d   1      32.688  21.522 -21.689  0.00  0.00     0.019 A 
BRANCH   7  10
ATOM     10  C   UNL d   1      33.045  22.037 -19.583  0.00  0.00     0.111 A 
ATOM     11  N   UNL d   1      33.104  21.682 -18.846  0.00  0.00    -0.239 NA
ATOM     12  C   UNL d   1      33.144  22.275 -18.271  0.00  0.00     0.088 A 
ATOM     13  C   UNL d   1      33.207  22.248 -17.452  0.00  0.00     0.020 A 
ATOM     14  C   UNL d   1      33.110  23.001 -18.660  0.00  0.00     0.049 A 
ATOM     15  C   UNL d   1      33.236  22.949 -17.019  0.00  0.00     0.002 A 
ATOM     16  C   UNL d   1      33.201  23.676 -17.408  0.00  0.00     0.001 A 
ATOM     17  C   UNL d   1      33.138  23.702 -18.229  0.00  0.00     0.008 A 
ATOM     18  S   UNL d   1      33.048  22.853 -19.473  0.00  0.00    -0.066 SA
ENDBRANCH   7  10
ENDBRANCH   2   4
BRANCH   1  19
ATOM     19  C   UNL d   1      32.960  19.001 -23.028  0.00  0.00     0.151 C 
ATOM     20  C   UNL d   1      33.188  19.310 -23.758  0.00  0.00     0.027 C 
BRANCH  19  21
ATOM     21  N   UNL d   1      32.730  18.225 -23.222  0.00  0.00    -0.153 NA
BRANCH  21  22
ATOM     22  S   UNL d   1      32.246  18.095 -23.873  0.00  0.00     0.285 S 
ATOM     23  O   UNL d   1      32.405  18.844 -24.137  0.00  0.00    -0.198 OA
ATOM     24  O   UNL d   1      31.766  17.968 -24.518  0.00  0.00    -0.198 OA
BRANCH  22  25
ATOM     25  C   UNL d   1      32.088  17.329 -23.595  0.00  0.00     0.106 A 
ATOM     26  C   UNL d   1      32.703  16.846 -23.329  0.00  0.00     0.024 A 
ATOM     27  C   UNL d   1      32.530  16.074 -23.051  0.00  0.00     0.059 A 
ATOM     28 CL   UNL d   1      33.149  15.590 -22.785  0.00  0.00    -0.082 Cl
ATOM     29  C   UNL d   1      31.754  15.801 -23.042  0.00  0.00     0.011 A 
ATOM     30  C   UNL d   1      31.143  16.285 -23.307  0.00  0.00     0.002 A 
ATOM     31  C   UNL d   1      31.315  17.057 -23.586  0.00  0.00     0.013 A 
ENDBRANCH  22  25
ENDBRANCH  21  22
ENDBRANCH  19  21
ENDBRANCH   1  19
TORSDOF 6
ENDMDL
MODEL 3
REMARK VINA RESULT:      -1.0      2.896      6.729
REMARK  6 active torsions:
REMARK  status: ('A' for Active; 'I' for Inactive)
REMARK    1  A    between atoms: N_5  and  S_1 
REMARK    2  A    between atoms: C_8  and  S_1 
REMARK    3  A    between atoms: C_2  and  C_14 
REMARK    4  A    between atoms: C_7  and  N_5 
REMARK    5  A    between atoms: C_6  and  C_7 
REMARK       I    between atoms: N_11  and  C_6 
REMARK    6  A    between atoms: C_19  and  N_11 
ROOT
ATOM      1  C   UNL d   1      32.568  22.074 -21.428  0.00  0.00     0.298 C 
ATOM      2  N   UNL d   1      33.203  21.720 -21.792  0.00  0.00    -0.207 NA
ATOM      3  O   UNL d   1      31.838  21.683 -21.383  0.00  0.00    -0.264 OA
ENDROOT
BRANCH   2   4
ATOM      4  C   UNL d   1      33.122  20.967 -22.120  0.00  0.00     0.085 A 
ATOM      5  C   UNL d   1      33.015  20.321 -21.623  0.00  0.00     0.019 A 
ATOM      6  C   UNL d   1      32.932  19.554 -21.940  0.00  0.00     0.004 A 
ATOM      7  C   UNL d   1      32.957  19.442 -22.754  0.00  0.00     0.024 A 
ATOM      8  C   UNL d   1      33.064  20.090 -23.255  0.00  0.00     0.004 A 
ATOM      9  C   UNL d   1      33.147  20.851 -22.946  0.00  0.00     0.019 A 
BRANCH   7  10
ATOM     10  C   UNL d   1      32.873  18.673 -23.057  0.00  0.00     0.111 A 
ATOM     11  N   UNL d   1      32.427  18.504 -23.724  0.00  0.00    -0.239 NA
ATOM     12  C   UNL d   1      32.466  17.690 -23.866  0.00  0.00     0.088 A 
ATOM     13  C   UNL d   1      32.134  17.212 -24.447  0.00  0.00     0.020 A 
ATOM     14  C   UNL d   1      32.941  17.358 -23.279  0.00  0.00     0.049 A 
ATOM     15  C   UNL d   1      32.276  16.401 -24.443  0.00  0.00     0.002 A 
ATOM     16  C   UNL d   1      32.752  16.069 -23.857  0.00  0.00     0.001 A 
ATOM     17  C   UNL d   1      33.085  16.547 -23.274  0.00  0.00     0.008 A 
ATOM     18  S   UNL d   1      33.193  17.968 -22.779  0.00  0.00    -0.066 SA
ENDBRANCH   7  10
ENDBRANCH   2   4
BRANCH   1  19
ATOM     19  C   UNL d   1      32.641  22.827 -21.098  0.00  0.00     0.151 C 
ATOM     20  C   UNL d   1      32.733  23.490 -21.577  0.00  0.00     0.027 C 
BRANCH  19  21
ATOM     21  N   UNL d   1      32.650  23.152 -20.332  0.00  0.00    -0.153 NA
BRANCH  21  22
ATOM     22  S   UNL d   1      31.951  23.427 -19.998  0.00  0.00     0.285 S 
ATOM     23  O   UNL d   1      31.667  23.594 -20.738  0.00  0.00    -0.198 OA
ATOM     24  O   UNL d   1      31.258  23.700 -19.669  0.00  0.00    -0.198 OA
BRANCH  22  25
ATOM     25  C   UNL d   1      32.250  23.253 -19.244  0.00  0.00     0.106 A 
ATOM     26  C   UNL d   1      31.869  23.535 -18.567  0.00  0.00     0.024 A 
ATOM     27  C   UNL d   1      32.181  23.352 -17.811  0.00  0.00     0.059 A 
ATOM     28 CL   UNL d   1      31.797  23.637 -17.133  0.00  0.00    -0.082 Cl
ATOM     29  C   UNL d   1      32.862  22.895 -17.744  0.00  0.00     0.011 A 
ATOM     30  C   UNL d   1      33.240  22.614 -18.420  0.00  0.00     0.002 A 
ATOM     31  C   UNL d   1      32.928  22.797 -19.176  0.00  0.00     0.013 A 
ENDBRANCH  22  25
ENDBRANCH  21  22
ENDBRANCH  19  21
ENDBRANCH   1  19
TORSDOF 6
ENDMDL
