MODEL 1
REMARK VINA RESULT:      -6.0      0.000      0.000
REMARK  6 active torsions:
REMARK  status: ('A' for Active; 'I' for Inactive)
REMARK    1  A    between atoms: N_2  and  S_1 
REMARK    2  A    between atoms: C_8  and  S_1 
REMARK    3  A    between atoms: C_4  and  C_3 
REMARK    4  A    between atoms: O_18  and  C_5 
REMARK    5  A    between atoms: O_20  and  C_12 
REMARK    6  A    between atoms: O_21  and  C_13 
ROOT
ATOM      1  N   UNL d   1     -48.411  12.324  23.133  0.00  0.00    -0.127 NA
ATOM      2  C   UNL d   1     -49.229  12.411  23.132  0.00  0.00     0.086 A 
ATOM      3  S   UNL d   1     -49.707  11.807  23.414  0.00  0.00    -0.073 SA
ATOM      4  C   UNL d   1     -48.541  11.024  23.698  0.00  0.00     0.074 A 
ATOM      5  C   UNL d   1     -49.359  11.112  23.698  0.00  0.00     0.050 A 
ENDROOT
BRANCH   2   6
ATOM      6  C   UNL d   1     -49.573  13.106  22.849  0.00  0.00     0.042 A 
ATOM      7  C   UNL d   1     -49.885  13.120  22.088  0.00  0.00     0.098 A 
ATOM      8  C   UNL d   1     -50.227  13.815  21.813  0.00  0.00     0.050 A 
ATOM      9  C   UNL d   1     -50.260  14.483  22.281  0.00  0.00     0.118 A 
ATOM     10  C   UNL d   1     -49.946  14.464  23.043  0.00  0.00     0.117 A 
ATOM     11  C   UNL d   1     -49.600  13.773  23.332  0.00  0.00     0.030 A 
BRANCH   7  12
ATOM     12  O   UNL d   1     -49.857  12.453  21.609  0.00  0.00    -0.328 OA
ATOM     13  C   UNL d   1     -50.353  12.398  20.954  0.00  0.00     0.181 C 
ENDBRANCH   7  12
BRANCH   9  14
ATOM     14  O   UNL d   1     -50.601  15.171  22.001  0.00  0.00    -0.326 OA
ATOM     15  C   UNL d   1     -51.064  15.160  21.320  0.00  0.00     0.181 C 
ENDBRANCH   9  14
BRANCH  10  16
ATOM     16  O   UNL d   1     -49.975  15.133  23.521  0.00  0.00    -0.326 OA
ATOM     17  C   UNL d   1     -49.381  15.700  23.477  0.00  0.00     0.181 C 
ENDBRANCH  10  16
ENDBRANCH   2   6
BRANCH   1  18
ATOM     18  S   UNL d   1     -47.554  12.019  23.225  0.00  0.00     0.255 S 
ATOM     19  O   UNL d   1     -46.822  11.513  23.393  0.00  0.00    -0.205 OA
ATOM     20  O   UNL d   1     -47.871  11.224  23.525  0.00  0.00    -0.205 OA
BRANCH  18  21
ATOM     21  C   UNL d   1     -46.988  12.669  22.972  0.00  0.00     0.099 A 
ATOM     22  C   UNL d   1     -46.854  12.845  22.097  0.00  0.00     0.015 A 
ATOM     23  C   UNL d   1     -46.293  13.489  21.840  0.00  0.00     0.030 A 
ATOM     24  C   UNL d   1     -45.855  13.971  22.459  0.00  0.00     0.140 A 
ATOM     25  C   UNL d   1     -45.982  13.803  23.340  0.00  0.00     0.030 A 
ATOM     26  F   UNL d   1     -45.281  14.631  22.211  0.00  0.00    -0.204 F 
ATOM     27  C   UNL d   1     -46.551  13.149  23.601  0.00  0.00     0.015 A 
ENDBRANCH  18  21
ENDBRANCH   1  18
TORSDOF 6
ENDMDL
MODEL 2
REMARK VINA RESULT:      -5.2      1.782      2.970
REMARK  6 active torsions:
REMARK  status: ('A' for Active; 'I' for Inactive)
REMARK    1  A    between atoms: N_2  and  S_1 
REMARK    2  A    between atoms: C_8  and  S_1 
REMARK    3  A    between atoms: C_4  and  C_3 
REMARK    4  A    between atoms: O_18  and  C_5 
REMARK    5  A    between atoms: O_20  and  C_12 
REMARK    6  A    between atoms: O_21  and  C_13 
ROOT
ATOM      1  N   UNL d   1     -47.837  14.272  22.637  0.00  0.00    -0.127 NA
ATOM      2  C   UNL d   1     -48.602  14.383  22.358  0.00  0.00     0.086 A 
ATOM      3  S   UNL d   1     -48.785  15.047  21.913  0.00  0.00    -0.073 SA
ATOM      4  C   UNL d   1     -47.429  15.492  22.030  0.00  0.00     0.074 A 
ATOM      5  C   UNL d   1     -48.194  15.603  21.750  0.00  0.00     0.050 A 
ENDROOT
BRANCH   2   6
ATOM      6  C   UNL d   1     -49.191  13.827  22.522  0.00  0.00     0.042 A 
ATOM      7  C   UNL d   1     -49.768  14.004  23.080  0.00  0.00     0.098 A 
ATOM      8  C   UNL d   1     -50.351  13.447  23.239  0.00  0.00     0.050 A 
ATOM      9  C   UNL d   1     -50.362  12.728  22.853  0.00  0.00     0.118 A 
ATOM     10  C   UNL d   1     -49.780  12.554  22.294  0.00  0.00     0.117 A 
ATOM     11  C   UNL d   1     -49.190  13.104  22.126  0.00  0.00     0.030 A 
BRANCH   7  12
ATOM     12  O   UNL d   1     -49.766  14.726  23.473  0.00  0.00    -0.328 OA
ATOM     13  C   UNL d   1     -50.479  15.073  23.697  0.00  0.00     0.181 C 
ENDBRANCH   7  12
BRANCH   9  14
ATOM     14  O   UNL d   1     -50.944  12.177  23.015  0.00  0.00    -0.326 OA
ATOM     15  C   UNL d   1     -50.870  11.670  23.660  0.00  0.00     0.181 C 
ENDBRANCH   9  14
BRANCH  10  16
ATOM     16  O   UNL d   1     -49.784  11.831  21.902  0.00  0.00    -0.326 OA
ATOM     17  C   UNL d   1     -49.286  11.704  21.261  0.00  0.00     0.181 C 
ENDBRANCH  10  16
ENDBRANCH   2   6
BRANCH   1  18
ATOM     18  S   UNL d   1     -46.949  14.351  22.839  0.00  0.00     0.255 S 
ATOM     19  O   UNL d   1     -46.124  14.670  23.031  0.00  0.00    -0.205 OA
ATOM     20  O   UNL d   1     -47.031  15.254  22.837  0.00  0.00    -0.205 OA
BRANCH  18  21
ATOM     21  C   UNL d   1     -46.593  13.528  22.904  0.00  0.00     0.099 A 
ATOM     22  C   UNL d   1     -46.768  13.009  23.621  0.00  0.00     0.015 A 
ATOM     23  C   UNL d   1     -46.418  12.192  23.690  0.00  0.00     0.030 A 
ATOM     24  C   UNL d   1     -45.884  11.879  23.038  0.00  0.00     0.140 A 
ATOM     25  C   UNL d   1     -45.702  12.391  22.315  0.00  0.00     0.030 A 
ATOM     26  F   UNL d   1     -45.521  11.047  23.096  0.00  0.00    -0.204 F 
ATOM     27  C   UNL d   1     -46.057  13.222  22.243  0.00  0.00     0.015 A 
ENDBRANCH  18  21
ENDBRANCH   1  18
TORSDOF 6
ENDMDL
MODEL 3
REMARK VINA RESULT:      -4.6      8.223     10.267
REMARK  6 active torsions:
REMARK  status: ('A' for Active; 'I' for Inactive)
REMARK    1  A    between atoms: N_2  and  S_1 
REMARK    2  A    between atoms: C_8  and  S_1 
REMARK    3  A    between atoms: C_4  and  C_3 
REMARK    4  A    between atoms: O_18  and  C_5 
REMARK    5  A    between atoms: O_20  and  C_12 
REMARK    6  A    between atoms: O_21  and  C_13 
ROOT
ATOM      1  N   UNL d   1     -39.544  15.048  19.086  0.00  0.00    -0.127 NA
ATOM      2  C   UNL d   1     -40.028  15.186  19.736  0.00  0.00     0.086 A 
ATOM      3  S   UNL d   1     -40.717  15.623  19.649  0.00  0.00    -0.073 SA
ATOM      4  C   UNL d   1     -40.434  15.784  18.255  0.00  0.00     0.074 A 
ATOM      5  C   UNL d   1     -40.919  15.922  18.904  0.00  0.00     0.050 A 
ENDROOT
BRANCH   2   6
ATOM      6  C   UNL d   1     -39.825  14.887  20.479  0.00  0.00     0.042 A 
ATOM      7  C   UNL d   1     -40.296  14.306  20.821  0.00  0.00     0.098 A 
ATOM      8  C   UNL d   1     -40.088  14.013  21.561  0.00  0.00     0.050 A 
ATOM      9  C   UNL d   1     -39.428  14.289  21.953  0.00  0.00     0.118 A 
ATOM     10  C   UNL d   1     -38.959  14.872  21.605  0.00  0.00     0.117 A 
ATOM     11  C   UNL d   1     -39.156  15.175  20.864  0.00  0.00     0.030 A 
BRANCH   7  12
ATOM     12  O   UNL d   1     -40.962  14.022  20.434  0.00  0.00    -0.328 OA
ATOM     13  C   UNL d   1     -41.493  13.535  20.835  0.00  0.00     0.181 C 
ENDBRANCH   7  12
BRANCH   9  14
ATOM     14  O   UNL d   1     -39.227  13.994  22.688  0.00  0.00    -0.326 OA
ATOM     15  C   UNL d   1     -38.965  13.217  22.768  0.00  0.00     0.181 C 
ENDBRANCH   9  14
BRANCH  10  16
ATOM     16  O   UNL d   1     -38.293  15.156  21.995  0.00  0.00    -0.326 OA
ATOM     17  C   UNL d   1     -38.281  15.922  22.293  0.00  0.00     0.181 C 
ENDBRANCH  10  16
ENDBRANCH   2   6
BRANCH   1  18
ATOM     18  S   UNL d   1     -39.168  15.019  18.253  0.00  0.00     0.255 S 
ATOM     19  O   UNL d   1     -38.838  15.233  17.438  0.00  0.00    -0.205 OA
ATOM     20  O   UNL d   1     -39.274  15.916  18.176  0.00  0.00    -0.205 OA
BRANCH  18  21
ATOM     21  C   UNL d   1     -38.951  14.167  18.065  0.00  0.00     0.099 A 
ATOM     22  C   UNL d   1     -39.523  13.639  17.609  0.00  0.00     0.015 A 
ATOM     23  C   UNL d   1     -39.313  12.793  17.419  0.00  0.00     0.030 A 
ATOM     24  C   UNL d   1     -38.521  12.461  17.684  0.00  0.00     0.140 A 
ATOM     25  C   UNL d   1     -37.940  12.982  18.142  0.00  0.00     0.030 A 
ATOM     26  F   UNL d   1     -38.294  11.601  17.498  0.00  0.00    -0.204 F 
ATOM     27  C   UNL d   1     -38.152  13.841  18.336  0.00  0.00     0.015 A 
ENDBRANCH  18  21
ENDBRANCH   1  18
TORSDOF 6
ENDMDL
MODEL 4
REMARK VINA RESULT:      -3.6      2.027      4.582
REMARK  6 active torsions:
REMARK  status: ('A' for Active; 'I' for Inactive)
REMARK    1  A    between atoms: N_2  and  S_1 
REMARK    2  A    between atoms: C_8  and  S_1 
REMARK    3  A    between atoms: C_4  and  C_3 
REMARK    4  A    between atoms: O_18  and  C_5 
REMARK    5  A    between atoms: O_20  and  C_12 
REMARK    6  A    between atoms: O_21  and  C_13 
ROOT
ATOM      1  N   UNL d   1     -47.825  13.755  22.364  0.00  0.00    -0.127 NA
ATOM      2  C   UNL d   1     -47.077  13.771  22.704  0.00  0.00     0.086 A 
ATOM      3  S   UNL d   1     -46.742  14.486  22.926  0.00  0.00    -0.073 SA
ATOM      4  C   UNL d   1     -47.911  15.172  22.465  0.00  0.00     0.074 A 
ATOM      5  C   UNL d   1     -47.163  15.188  22.805  0.00  0.00     0.050 A 
ENDROOT
BRANCH   2   6
ATOM      6  C   UNL d   1     -46.659  13.069  22.824  0.00  0.00     0.042 A 
ATOM      7  C   UNL d   1     -45.881  13.014  22.562  0.00  0.00     0.098 A 
ATOM      8  C   UNL d   1     -45.471  12.312  22.684  0.00  0.00     0.050 A 
ATOM      9  C   UNL d   1     -45.822  11.678  23.059  0.00  0.00     0.118 A 
ATOM     10  C   UNL d   1     -46.603  11.739  23.320  0.00  0.00     0.117 A 
ATOM     11  C   UNL d   1     -47.026  12.436  23.203  0.00  0.00     0.030 A 
BRANCH   7  12
ATOM     12  O   UNL d   1     -45.518  13.647  22.184  0.00  0.00    -0.328 OA
ATOM     13  C   UNL d   1     -44.803  13.534  21.791  0.00  0.00     0.181 C 
ENDBRANCH   7  12
BRANCH   9  14
ATOM     14  O   UNL d   1     -45.409  10.983  23.178  0.00  0.00    -0.326 OA
ATOM     15  C   UNL d   1     -44.586  10.984  23.190  0.00  0.00     0.181 C 
ENDBRANCH   9  14
BRANCH  10  16
ATOM     16  O   UNL d   1     -46.964  11.104  23.698  0.00  0.00    -0.326 OA
ATOM     17  C   UNL d   1     -47.344  10.521  23.259  0.00  0.00     0.181 C 
ENDBRANCH  10  16
ENDBRANCH   2   6
BRANCH   1  18
ATOM     18  S   UNL d   1     -48.643  13.969  22.015  0.00  0.00     0.255 S 
ATOM     19  O   UNL d   1     -49.323  14.363  21.567  0.00  0.00    -0.205 OA
ATOM     20  O   UNL d   1     -48.274  14.678  21.587  0.00  0.00    -0.205 OA
BRANCH  18  21
ATOM     21  C   UNL d   1     -49.246  13.369  22.307  0.00  0.00     0.099 A 
ATOM     22  C   UNL d   1     -49.620  13.456  23.123  0.00  0.00     0.015 A 
ATOM     23  C   UNL d   1     -50.219  12.865  23.418  0.00  0.00     0.030 A 
ATOM     24  C   UNL d   1     -50.454  12.172  22.896  0.00  0.00     0.140 A 
ATOM     25  C   UNL d   1     -50.086  12.075  22.075  0.00  0.00     0.030 A 
ATOM     26  F   UNL d   1     -51.064  11.561  23.184  0.00  0.00    -0.204 F 
ATOM     27  C   UNL d   1     -49.477  12.675  21.775  0.00  0.00     0.015 A 
ENDBRANCH  18  21
ENDBRANCH   1  18
TORSDOF 6
ENDMDL
