MODEL 1
REMARK VINA RESULT:      -2.8      0.000      0.000
REMARK  2 active torsions:
REMARK  status: ('A' for Active; 'I' for Inactive)
REMARK    1  A    between atoms: CA_2  and  C_1 
REMARK    2  A    between atoms: C_3  and  CA_2 
ROOT
ATOM      1  C   UNL d   1      32.729  22.153 -21.366  0.00  0.00     0.025 A 
ATOM      2  C   UNL d   1      32.458  21.577 -20.844  0.00  0.00     0.002 A 
ATOM      3  C   UNL d   1      33.118  21.932 -22.065  0.00  0.00     0.002 A 
ATOM      4  C   UNL d   1      32.573  20.780 -21.017  0.00  0.00     0.000 A 
ATOM      5  C   UNL d   1      33.233  21.136 -22.238  0.00  0.00     0.000 A 
ATOM      6  C   UNL d   1      32.962  20.559 -21.716  0.00  0.00     0.000 A 
ATOM      7  C   UNL d   1      33.076  19.759 -21.889  0.00  0.00     0.000 C 
ENDROOT
BRANCH   1   8
ATOM      8  CA  UNL d   1      32.611  22.952 -21.186  0.00  0.00     0.167 C 
ATOM      9  N   UNL d   1      33.048  23.307 -20.575  0.00  0.00    -0.142 N 
BRANCH   8  10
ATOM     10  C   UNL d   1      32.061  23.400 -21.609  0.00  0.00     0.231 C 
ATOM     11  O   UNL d   1      31.313  23.545 -21.289  0.00  0.00    -0.643 OA
ATOM     12  OXT UNL d   1      32.257  23.702 -22.349  0.00  0.00    -0.643 OA
ENDBRANCH   8  10
ENDBRANCH   1   8
TORSDOF 2
ENDMDL
MODEL 2
REMARK VINA RESULT:      -2.7      5.986      6.728
REMARK  2 active torsions:
REMARK  status: ('A' for Active; 'I' for Inactive)
REMARK    1  A    between atoms: CA_2  and  C_1 
REMARK    2  A    between atoms: C_3  and  CA_2 
ROOT
ATOM      1  C   UNL d   1      30.078  16.635 -24.213  0.00  0.00     0.025 A 
ATOM      2  C   UNL d   1      30.427  17.322 -24.501  0.00  0.00     0.002 A 
ATOM      3  C   UNL d   1      30.514  16.115 -23.735  0.00  0.00     0.002 A 
ATOM      4  C   UNL d   1      31.211  17.493 -24.314  0.00  0.00     0.000 A 
ATOM      5  C   UNL d   1      31.297  16.286 -23.549  0.00  0.00     0.000 A 
ATOM      6  C   UNL d   1      31.647  16.973 -23.836  0.00  0.00     0.000 A 
ATOM      7  C   UNL d   1      32.433  17.146 -23.650  0.00  0.00     0.000 C 
ENDROOT
BRANCH   1   8
ATOM      8  CA  UNL d   1      29.290  16.469 -24.404  0.00  0.00     0.167 C 
ATOM      9  N   UNL d   1      29.114  16.046 -25.097  0.00  0.00    -0.142 N 
BRANCH   8  10
ATOM     10  C   UNL d   1      28.677  16.721 -23.912  0.00  0.00     0.231 C 
ATOM     11  O   UNL d   1      28.395  16.221 -23.316  0.00  0.00    -0.643 OA
ATOM     12  OXT UNL d   1      28.347  17.468 -24.013  0.00  0.00    -0.643 OA
ENDBRANCH   8  10
ENDBRANCH   1   8
TORSDOF 2
ENDMDL
MODEL 3
REMARK VINA RESULT:      -2.6      5.652      6.649
REMARK  2 active torsions:
REMARK  status: ('A' for Active; 'I' for Inactive)
REMARK    1  A    between atoms: CA_2  and  C_1 
REMARK    2  A    between atoms: C_3  and  CA_2 
ROOT
ATOM      1  C   UNL d   1      30.527  16.563 -24.117  0.00  0.00     0.025 A 
ATOM      2  C   UNL d   1      30.361  15.966 -23.576  0.00  0.00     0.002 A 
ATOM      3  C   UNL d   1      29.909  17.003 -24.453  0.00  0.00     0.002 A 
ATOM      4  C   UNL d   1      29.581  15.807 -23.367  0.00  0.00     0.000 A 
ATOM      5  C   UNL d   1      29.129  16.845 -24.244  0.00  0.00     0.000 A 
ATOM      6  C   UNL d   1      28.962  16.247 -23.702  0.00  0.00     0.000 A 
ATOM      7  C   UNL d   1      28.180  16.086 -23.491  0.00  0.00     0.000 C 
ENDROOT
BRANCH   1   8
ATOM      8  CA  UNL d   1      31.313  16.718 -24.323  0.00  0.00     0.167 C 
ATOM      9  N   UNL d   1      31.673  16.284 -24.933  0.00  0.00    -0.142 N 
BRANCH   8  10
ATOM     10  C   UNL d   1      31.743  17.300 -23.927  0.00  0.00     0.231 C 
ATOM     11  O   UNL d   1      31.742  18.078 -24.210  0.00  0.00    -0.643 OA
ATOM     12  OXT UNL d   1      32.172  17.109 -23.251  0.00  0.00    -0.643 OA
ENDBRANCH   8  10
ENDBRANCH   1   8
TORSDOF 2
ENDMDL
