MODEL 1
REMARK VINA RESULT:      52.1      0.000      0.000
REMARK  3 active torsions:
REMARK  status: ('A' for Active; 'I' for Inactive)
REMARK    1  A    between atoms: S_3  and  N_1 
REMARK    2  A    between atoms: C_7  and  C_4 
REMARK    3  A    between atoms: C_11  and  C_5 
ROOT
ATOM      1  N   UNL d   1     -51.660  24.825  33.524  0.00  0.00    -0.155 N 
ATOM      2  N   UNL d   1     -50.997  25.351  33.524  0.00  0.00    -0.156 NA
ATOM      3  C   UNL d   1     -52.320  25.316  33.638  0.00  0.00     0.102 A 
ATOM      4  C   UNL d   1     -51.262  26.117  33.634  0.00  0.00     0.104 A 
ATOM      5  C   UNL d   1     -52.095  26.082  33.704  0.00  0.00     0.041 A 
ENDROOT
BRANCH   4   6
ATOM      6  C   UNL d   1     -50.793  26.771  33.667  0.00  0.00     0.019 A 
ATOM      7  C   UNL d   1     -50.064  26.736  34.064  0.00  0.00     0.002 A 
ATOM      8  C   UNL d   1     -49.569  27.392  34.110  0.00  0.00     0.007 A 
ATOM      9  C   UNL d   1     -49.794  28.114  33.752  0.00  0.00     0.035 A 
ATOM     10  C   UNL d   1     -50.526  28.149  33.353  0.00  0.00     0.007 A 
ATOM     11 BR   UNL d   1     -49.303  28.767  33.796  0.00  0.00    -0.049 Br
ATOM     12  C   UNL d   1     -51.021  27.491  33.309  0.00  0.00     0.002 A 
ENDBRANCH   4   6
BRANCH   1  13
ATOM     13  S   UNL d   1     -51.644  24.027  33.432  0.00  0.00     0.266 S 
ATOM     14  O   UNL d   1     -51.616  23.194  33.335  0.00  0.00    -0.203 OA
ATOM     15  O   UNL d   1     -52.441  23.995  33.547  0.00  0.00    -0.203 OA
ATOM     16  C   UNL d   1     -50.816  24.062  33.313  0.00  0.00     0.165 C 
ENDBRANCH   1  13
BRANCH   3  17
ATOM     17  C   UNL d   1     -53.096  25.042  33.676  0.00  0.00     0.048 A 
ATOM     18  S   UNL d   1     -53.756  25.362  33.306  0.00  0.00    -0.085 SA
ATOM     19  C   UNL d   1     -54.408  24.923  33.490  0.00  0.00     0.035 A 
ATOM     20  C   UNL d   1     -54.169  24.314  33.982  0.00  0.00     0.007 A 
ATOM     21  C   UNL d   1     -53.371  24.381  34.100  0.00  0.00     0.009 A 
ENDBRANCH   3  17
TORSDOF 3
ENDMDL
