MODEL 1
REMARK VINA RESULT:      60.8      0.000      0.000
REMARK  6 active torsions:
REMARK  status: ('A' for Active; 'I' for Inactive)
REMARK    1  A    between atoms: C_21  and  C_3 
REMARK    2  A    between atoms: S_17  and  C_5 
REMARK    3  A    between atoms: C_11  and  C_16 
REMARK       I    between atoms: N_14  and  C_11 
REMARK    4  A    between atoms: C_19  and  N_14 
REMARK    5  A    between atoms: C_16  and  C_20 
REMARK    6  A    between atoms: C_20  and  S_17 
ROOT
ATOM      1  C   UNL d   1     -57.145 -98.814 -45.235  0.00  0.00     0.092 A 
ATOM      2  C   UNL d   1     -58.355 -98.808 -44.472  0.00  0.00     0.057 A 
ATOM      3  C   UNL d   1     -57.973 -98.800 -45.200  0.00  0.00     0.016 A 
ATOM      4  N   UNL d   1     -57.096 -98.841 -43.807  0.00  0.00    -0.239 NA
ATOM      5  C   UNL d   1     -56.707 -98.834 -44.538  0.00  0.00     0.120 A 
ATOM      6  C   UNL d   1     -57.916 -98.828 -43.776  0.00  0.00     0.081 A 
ATOM      7  C   UNL d   1     -59.176 -98.795 -44.442  0.00  0.00     0.193 A 
ATOM      8  C   UNL d   1     -56.767 -98.806 -45.975  0.00  0.00     0.103 C 
ATOM      9  N   UNL d   1     -56.381 -98.799 -46.713  0.00  0.00    -0.191 NA
ATOM     10  C   UNL d   1     -59.123 -98.822 -43.016  0.00  0.00     0.042 A 
ATOM     11  C   UNL d   1     -59.561 -98.802 -43.712  0.00  0.00     0.019 A 
ATOM     12  C   UNL d   1     -58.299 -98.835 -43.049  0.00  0.00    -0.003 A 
ATOM     13  O   UNL d   1     -59.615 -98.774 -45.138  0.00  0.00    -0.287 OA
ATOM     14  C   UNL d   1     -58.950 -98.840 -42.212  0.00  0.00     0.009 C 
ATOM     15  C   UNL d   1     -59.951 -98.809 -42.981  0.00  0.00     0.009 C 
ENDROOT
BRANCH   3  16
ATOM     16  C   UNL d   1     -58.411 -98.780 -45.896  0.00  0.00     0.001 C 
ATOM     17  C   UNL d   1     -59.199 -99.013 -45.894  0.00  0.00     0.000 C 
ENDBRANCH   3  16
BRANCH   5  18
ATOM     18  S   UNL d   1     -55.883 -98.847 -44.572  0.00  0.00    -0.067 SA
BRANCH  18  19
ATOM     19  C   UNL d   1     -55.507 -99.106 -45.261  0.00  0.00     0.042 C 
BRANCH  19  20
ATOM     20  C   UNL d   1     -55.283 -99.898 -45.335  0.00  0.00     0.070 C 
BRANCH  20  21
ATOM     21  C   UNL d   1     -55.225-100.377 -44.660  0.00  0.00     0.280 C 
ATOM     22  N   UNL d   1     -54.959-100.057 -43.947  0.00  0.00    -0.208 NA
ATOM     23  O   UNL d   1     -55.432-101.177 -44.700  0.00  0.00    -0.265 OA
BRANCH  22  24
ATOM     24  C   UNL d   1     -54.900-100.536 -43.273  0.00  0.00     0.085 A 
ATOM     25  C   UNL d   1     -54.816-100.192 -42.525  0.00  0.00     0.019 A 
ATOM     26  C   UNL d   1     -54.758-100.671 -41.860  0.00  0.00     0.002 A 
ATOM     27  C   UNL d   1     -54.783-101.496 -41.928  0.00  0.00     0.000 A 
ATOM     28  C   UNL d   1     -54.867-101.838 -42.672  0.00  0.00     0.002 A 
ATOM     29  C   UNL d   1     -54.724-101.981 -41.247  0.00  0.00     0.000 C 
ATOM     30  C   UNL d   1     -54.926-101.359 -43.347  0.00  0.00     0.019 A 
ENDBRANCH  22  24
ENDBRANCH  20  21
ENDBRANCH  19  20
ENDBRANCH  18  19
ENDBRANCH   5  18
TORSDOF 6
ENDMDL
