MODEL 1
REMARK VINA RESULT:      -6.2      0.000      0.000
REMARK  5 active torsions:
REMARK  status: ('A' for Active; 'I' for Inactive)
REMARK    1  A    between atoms: N_2  and  S_1 
REMARK    2  A    between atoms: C_3  and  S_1 
REMARK    3  A    between atoms: C_6  and  O_7 
REMARK    4  A    between atoms: O_7  and  C_11 
REMARK    5  A    between atoms: O_16  and  C_8 
ROOT
ATOM      1  C   UNL d   1     -41.471-122.603 -52.250  0.00  0.00     0.104 A 
ATOM      2  C   UNL d   1     -41.561-122.051 -51.653  0.00  0.00     0.015 A 
ATOM      3  C   UNL d   1     -41.298-123.395 -52.061  0.00  0.00     0.015 A 
ATOM      4  C   UNL d   1     -41.309-123.069 -50.683  0.00  0.00     0.100 A 
ATOM      5  C   UNL d   1     -41.218-123.623 -51.279  0.00  0.00     0.025 A 
ATOM      6  C   UNL d   1     -41.482-122.277 -50.872  0.00  0.00     0.025 A 
ENDROOT
BRANCH   4   7
ATOM      7  O   UNL d   1     -41.230-123.293 -49.883  0.00  0.00    -0.305 OA
BRANCH   7   8
ATOM      8  C   UNL d   1     -41.896-123.442 -49.411  0.00  0.00     0.122 A 
ATOM      9  C   UNL d   1     -41.848-123.361 -48.594  0.00  0.00     0.117 A 
ATOM     10  C   UNL d   1     -42.516-123.510 -48.128  0.00  0.00     0.026 A 
ATOM     11  C   UNL d   1     -43.220-123.737 -48.485  0.00  0.00     0.002 A 
ATOM     12  C   UNL d   1     -43.267-123.817 -49.304  0.00  0.00     0.002 A 
ATOM     13  C   UNL d   1     -42.600-123.669 -49.768  0.00  0.00     0.027 A 
BRANCH   9  14
ATOM     14  O   UNL d   1     -41.138-123.134 -48.247  0.00  0.00    -0.326 OA
ATOM     15  C   UNL d   1     -41.125-122.899 -47.467  0.00  0.00     0.181 C 
ENDBRANCH   9  14
ENDBRANCH   7   8
ENDBRANCH   4   7
BRANCH   1  16
ATOM     16  S   UNL d   1     -41.552-122.368 -53.038  0.00  0.00     0.271 S 
ATOM     17  O   UNL d   1     -41.265-121.627 -53.286  0.00  0.00    -0.200 OA
ATOM     18  O   UNL d   1     -41.919-122.867 -53.584  0.00  0.00    -0.200 OA
BRANCH  16  19
ATOM     19  N   UNL d   1     -41.726-122.322 -53.844  0.00  0.00    -0.229 N 
ATOM     20  C   UNL d   1     -41.394-122.791 -54.446  0.00  0.00     0.092 A 
ATOM     21  C   UNL d   1     -41.720-122.566 -55.172  0.00  0.00     0.021 A 
ATOM     22  C   UNL d   1     -42.257-121.958 -55.031  0.00  0.00     0.021 A 
ATOM     23  C   UNL d   1     -42.267-121.801 -54.213  0.00  0.00     0.092 A 
ENDBRANCH  16  19
ENDBRANCH   1  16
TORSDOF 5
ENDMDL
MODEL 2
REMARK VINA RESULT:      -5.0      1.573      4.940
REMARK  5 active torsions:
REMARK  status: ('A' for Active; 'I' for Inactive)
REMARK    1  A    between atoms: N_2  and  S_1 
REMARK    2  A    between atoms: C_3  and  S_1 
REMARK    3  A    between atoms: C_6  and  O_7 
REMARK    4  A    between atoms: O_7  and  C_11 
REMARK    5  A    between atoms: O_16  and  C_8 
ROOT
ATOM      1  C   UNL d   1     -41.939-122.847 -50.203  0.00  0.00     0.104 A 
ATOM      2  C   UNL d   1     -42.350-122.223 -50.532  0.00  0.00     0.015 A 
ATOM      3  C   UNL d   1     -41.321-123.209 -50.629  0.00  0.00     0.015 A 
ATOM      4  C   UNL d   1     -41.540-122.315 -51.705  0.00  0.00     0.100 A 
ATOM      5  C   UNL d   1     -41.126-122.941 -51.377  0.00  0.00     0.025 A 
ATOM      6  C   UNL d   1     -42.157-121.953 -51.279  0.00  0.00     0.025 A 
ENDROOT
BRANCH   4   7
ATOM      7  O   UNL d   1     -41.347-122.035 -52.467  0.00  0.00    -0.305 OA
BRANCH   7   8
ATOM      8  C   UNL d   1     -41.378-122.536 -53.128  0.00  0.00     0.122 A 
ATOM      9  C   UNL d   1     -41.662-122.253 -53.846  0.00  0.00     0.117 A 
ATOM     10  C   UNL d   1     -41.691-122.757 -54.503  0.00  0.00     0.026 A 
ATOM     11  C   UNL d   1     -41.435-123.535 -54.431  0.00  0.00     0.002 A 
ATOM     12  C   UNL d   1     -41.151-123.817 -53.710  0.00  0.00     0.002 A 
ATOM     13  C   UNL d   1     -41.123-123.314 -53.057  0.00  0.00     0.027 A 
BRANCH   9  14
ATOM     14  O   UNL d   1     -41.915-121.474 -53.907  0.00  0.00    -0.326 OA
ATOM     15  C   UNL d   1     -42.233-121.204 -54.607  0.00  0.00     0.181 C 
ENDBRANCH   9  14
ENDBRANCH   7   8
ENDBRANCH   4   7
BRANCH   1  16
ATOM     16  S   UNL d   1     -42.139-123.114 -49.447  0.00  0.00     0.271 S 
ATOM     17  O   UNL d   1     -42.787-123.626 -49.342  0.00  0.00    -0.200 OA
ATOM     18  O   UNL d   1     -41.698-122.875 -48.791  0.00  0.00    -0.200 OA
BRANCH  16  19
ATOM     19  N   UNL d   1     -42.174-123.263 -48.636  0.00  0.00    -0.229 N 
ATOM     20  C   UNL d   1     -41.558-123.147 -48.088  0.00  0.00     0.092 A 
ATOM     21  C   UNL d   1     -41.823-123.364 -47.335  0.00  0.00     0.021 A 
ATOM     22  C   UNL d   1     -42.604-123.617 -47.405  0.00  0.00     0.021 A 
ATOM     23  C   UNL d   1     -42.828-123.558 -48.205  0.00  0.00     0.092 A 
ENDBRANCH  16  19
ENDBRANCH   1  16
TORSDOF 5
ENDMDL
MODEL 3
REMARK VINA RESULT:      -4.2      1.391      4.925
REMARK  5 active torsions:
REMARK  status: ('A' for Active; 'I' for Inactive)
REMARK    1  A    between atoms: N_2  and  S_1 
REMARK    2  A    between atoms: C_3  and  S_1 
REMARK    3  A    between atoms: C_6  and  O_7 
REMARK    4  A    between atoms: O_7  and  C_11 
REMARK    5  A    between atoms: O_16  and  C_8 
ROOT
ATOM      1  C   UNL d   1     -41.663-123.109 -50.750  0.00  0.00     0.104 A 
ATOM      2  C   UNL d   1     -41.827-123.745 -51.237  0.00  0.00     0.015 A 
ATOM      3  C   UNL d   1     -41.316-122.421 -51.066  0.00  0.00     0.015 A 
ATOM      4  C   UNL d   1     -41.301-123.019 -52.350  0.00  0.00     0.100 A 
ATOM      5  C   UNL d   1     -41.137-122.381 -51.864  0.00  0.00     0.025 A 
ATOM      6  C   UNL d   1     -41.649-123.707 -52.033  0.00  0.00     0.025 A 
ENDROOT
BRANCH   4   7
ATOM      7  O   UNL d   1     -41.123-122.986 -53.164  0.00  0.00    -0.305 OA
BRANCH   7   8
ATOM      8  C   UNL d   1     -41.611-122.575 -53.694  0.00  0.00     0.122 A 
ATOM      9  C   UNL d   1     -41.699-122.844 -54.466  0.00  0.00     0.117 A 
ATOM     10  C   UNL d   1     -42.188-122.430 -54.991  0.00  0.00     0.026 A 
ATOM     11  C   UNL d   1     -42.581-121.755 -54.736  0.00  0.00     0.002 A 
ATOM     12  C   UNL d   1     -42.492-121.487 -53.961  0.00  0.00     0.002 A 
ATOM     13  C   UNL d   1     -42.005-121.900 -53.439  0.00  0.00     0.027 A 
BRANCH   9  14
ATOM     14  O   UNL d   1     -41.301-123.520 -54.711  0.00  0.00    -0.326 OA
ATOM     15  C   UNL d   1     -41.126-123.624 -55.500  0.00  0.00     0.181 C 
ENDBRANCH   9  14
ENDBRANCH   7   8
ENDBRANCH   4   7
BRANCH   1  16
ATOM     16  S   UNL d   1     -41.845-123.155 -49.945  0.00  0.00     0.271 S 
ATOM     17  O   UNL d   1     -41.291-123.464 -49.407  0.00  0.00    -0.200 OA
ATOM     18  O   UNL d   1     -42.579-122.893 -49.670  0.00  0.00    -0.200 OA
BRANCH  16  19
ATOM     19  N   UNL d   1     -42.210-123.115 -49.205  0.00  0.00    -0.229 N 
ATOM     20  C   UNL d   1     -41.826-123.117 -48.467  0.00  0.00     0.092 A 
ATOM     21  C   UNL d   1     -42.395-123.070 -47.868  0.00  0.00     0.021 A 
ATOM     22  C   UNL d   1     -43.135-123.038 -48.225  0.00  0.00     0.021 A 
ATOM     23  C   UNL d   1     -43.031-123.066 -49.051  0.00  0.00     0.092 A 
ENDBRANCH  16  19
ENDBRANCH   1  16
TORSDOF 5
ENDMDL
