MODEL 1
REMARK VINA RESULT:      -8.0      0.000      0.000
REMARK  2 active torsions:
REMARK  status: ('A' for Active; 'I' for Inactive)
REMARK    1  A    between atoms: N_7  and  C_1 
REMARK       I    between atoms: C_8  and  N_7 
REMARK    2  A    between atoms: C_10  and  C_8 
ROOT
ATOM      1  C   UNL d   1     -48.829  12.772  22.848  0.00  0.00     0.159 A 
ATOM      2  N   UNL d   1     -49.784  13.830  22.639  0.00  0.00    -0.257 N 
ATOM      3  C   UNL d   1     -50.102  13.407  21.999  0.00  0.00     0.150 A 
ATOM      4  C   UNL d   1     -49.146  13.502  23.057  0.00  0.00     0.285 A 
ATOM      5  N   UNL d   1     -49.790  12.665  21.775  0.00  0.00    -0.226 NA
ATOM      6  C   UNL d   1     -49.153  12.349  22.200  0.00  0.00     0.105 A 
ATOM      7  C   UNL d   1     -50.732  13.712  21.573  0.00  0.00     0.035 A 
ATOM      8  C   UNL d   1     -50.092  14.548  22.851  0.00  0.00     0.085 A 
ATOM      9  O   UNL d   1     -48.828  13.926  23.698  0.00  0.00    -0.265 OA
ATOM     10  C   UNL d   1     -50.729  14.866  22.426  0.00  0.00     0.019 A 
ATOM     11  C   UNL d   1     -51.050  14.460  21.795  0.00  0.00     0.004 A 
ATOM     12  C   UNL d   1     -48.838  11.626  21.994  0.00  0.00     0.022 C 
ATOM     13  C   UNL d   1     -51.058  13.311  20.940  0.00  0.00     0.003 C 
ENDROOT
BRANCH   1  14
ATOM     14  N   UNL d   1     -48.192  12.455  23.272  0.00  0.00    -0.202 NA
ATOM     15  C   UNL d   1     -47.420  12.692  23.085  0.00  0.00     0.279 C 
ATOM     16  O   UNL d   1     -47.419  12.149  23.698  0.00  0.00    -0.265 OA
BRANCH  15  17
ATOM     17  C   UNL d   1     -46.707  13.005  22.806  0.00  0.00     0.060 A 
ATOM     18  C   UNL d   1     -46.156  12.505  22.459  0.00  0.00     0.031 A 
ATOM     19  C   UNL d   1     -45.442  12.819  22.180  0.00  0.00     0.119 A 
ATOM     20  O   UNL d   1     -44.791  12.465  21.812  0.00  0.00    -0.300 OA
ATOM     21  C   UNL d   1     -45.285  13.622  22.249  0.00  0.00     0.119 A 
ATOM     22  C   UNL d   1     -44.227  13.056  21.652  0.00  0.00     0.304 A 
ATOM     23  O   UNL d   1     -44.547  13.781  21.931  0.00  0.00    -0.300 OA
ATOM     24  C   UNL d   1     -45.848  14.124  22.602  0.00  0.00     0.026 A 
ATOM     25  C   UNL d   1     -46.559  13.814  22.881  0.00  0.00     0.007 A 
ENDBRANCH  15  17
ENDBRANCH   1  14
TORSDOF 2
ENDMDL
MODEL 2
REMARK VINA RESULT:      -6.8      8.156      9.899
REMARK  2 active torsions:
REMARK  status: ('A' for Active; 'I' for Inactive)
REMARK    1  A    between atoms: N_7  and  C_1 
REMARK       I    between atoms: C_8  and  N_7 
REMARK    2  A    between atoms: C_10  and  C_8 
ROOT
ATOM      1  C   UNL d   1     -40.156  14.495  19.888  0.00  0.00     0.159 A 
ATOM      2  N   UNL d   1     -39.103  14.388  20.865  0.00  0.00    -0.257 N 
ATOM      3  C   UNL d   1     -39.435  15.025  21.283  0.00  0.00     0.150 A 
ATOM      4  C   UNL d   1     -39.473  14.131  20.168  0.00  0.00     0.285 A 
ATOM      5  N   UNL d   1     -40.128  15.403  21.010  0.00  0.00    -0.226 NA
ATOM      6  C   UNL d   1     -40.488  15.138  20.312  0.00  0.00     0.105 A 
ATOM      7  C   UNL d   1     -39.086  15.294  21.974  0.00  0.00     0.035 A 
ATOM      8  C   UNL d   1     -38.431  14.025  21.135  0.00  0.00     0.085 A 
ATOM      9  O   UNL d   1     -39.140  13.494  19.750  0.00  0.00    -0.265 OA
ATOM     10  C   UNL d   1     -38.071  14.290  21.833  0.00  0.00     0.019 A 
ATOM     11  C   UNL d   1     -38.387  14.914  22.252  0.00  0.00     0.004 A 
ATOM     12  C   UNL d   1     -41.164  15.498  20.035  0.00  0.00     0.022 C 
ATOM     13  C   UNL d   1     -39.399  15.919  22.398  0.00  0.00     0.003 C 
ENDROOT
BRANCH   1  14
ATOM     14  N   UNL d   1     -40.516  14.230  19.191  0.00  0.00    -0.202 NA
ATOM     15  C   UNL d   1     -40.246  14.514  18.460  0.00  0.00     0.279 C 
ATOM     16  O   UNL d   1     -40.863  13.986  18.358  0.00  0.00    -0.265 OA
BRANCH  15  17
ATOM     17  C   UNL d   1     -39.889  14.868  17.803  0.00  0.00     0.060 A 
ATOM     18  C   UNL d   1     -39.226  14.518  17.468  0.00  0.00     0.031 A 
ATOM     19  C   UNL d   1     -38.869  14.873  16.810  0.00  0.00     0.119 A 
ATOM     20  O   UNL d   1     -38.209  14.660  16.359  0.00  0.00    -0.300 OA
ATOM     21  C   UNL d   1     -39.175  15.567  16.494  0.00  0.00     0.119 A 
ATOM     22  C   UNL d   1     -38.107  15.227  15.759  0.00  0.00     0.304 A 
ATOM     23  O   UNL d   1     -38.719  15.795  15.853  0.00  0.00    -0.300 OA
ATOM     24  C   UNL d   1     -39.848  15.917  16.838  0.00  0.00     0.026 A 
ATOM     25  C   UNL d   1     -40.205  15.566  17.493  0.00  0.00     0.007 A 
ENDBRANCH  15  17
ENDBRANCH   1  14
TORSDOF 2
ENDMDL
MODEL 3
REMARK VINA RESULT:      -6.0      1.652      4.656
REMARK  2 active torsions:
REMARK  status: ('A' for Active; 'I' for Inactive)
REMARK    1  A    between atoms: N_7  and  C_1 
REMARK       I    between atoms: C_8  and  N_7 
REMARK    2  A    between atoms: C_10  and  C_8 
ROOT
ATOM      1  C   UNL d   1     -46.445  13.198  22.952  0.00  0.00     0.159 A 
ATOM      2  N   UNL d   1     -46.087  11.855  23.330  0.00  0.00    -0.257 N 
ATOM      3  C   UNL d   1     -45.350  11.954  22.960  0.00  0.00     0.150 A 
ATOM      4  C   UNL d   1     -46.628  12.485  23.320  0.00  0.00     0.285 A 
ATOM      5  N   UNL d   1     -45.152  12.673  22.583  0.00  0.00    -0.226 NA
ATOM      6  C   UNL d   1     -45.700  13.294  22.580  0.00  0.00     0.105 A 
ATOM      7  C   UNL d   1     -44.802  11.345  22.958  0.00  0.00     0.035 A 
ATOM      8  C   UNL d   1     -46.274  11.156  23.694  0.00  0.00     0.085 A 
ATOM      9  O   UNL d   1     -47.365  12.385  23.691  0.00  0.00    -0.265 OA
ATOM     10  C   UNL d   1     -45.726  10.534  23.698  0.00  0.00     0.019 A 
ATOM     11  C   UNL d   1     -44.999  10.619  23.338  0.00  0.00     0.004 A 
ATOM     12  C   UNL d   1     -45.520  14.000  22.216  0.00  0.00     0.022 C 
ATOM     13  C   UNL d   1     -44.072  11.425  22.599  0.00  0.00     0.003 C 
ENDROOT
BRANCH   1  14
ATOM     14  N   UNL d   1     -46.992  13.819  22.948  0.00  0.00    -0.202 NA
ATOM     15  C   UNL d   1     -47.719  13.720  22.562  0.00  0.00     0.279 C 
ATOM     16  O   UNL d   1     -47.665  14.466  22.895  0.00  0.00    -0.265 OA
BRANCH  15  17
ATOM     17  C   UNL d   1     -48.400  13.498  22.147  0.00  0.00     0.060 A 
ATOM     18  C   UNL d   1     -49.136  13.733  22.428  0.00  0.00     0.031 A 
ATOM     19  C   UNL d   1     -49.816  13.510  22.012  0.00  0.00     0.119 A 
ATOM     20  O   UNL d   1     -50.619  13.657  22.151  0.00  0.00    -0.300 OA
ATOM     21  C   UNL d   1     -49.759  13.061  21.327  0.00  0.00     0.119 A 
ATOM     22  C   UNL d   1     -51.060  13.295  21.546  0.00  0.00     0.304 A 
ATOM     23  O   UNL d   1     -50.510  12.922  21.032  0.00  0.00    -0.300 OA
ATOM     24  C   UNL d   1     -49.010  12.826  21.049  0.00  0.00     0.026 A 
ATOM     25  C   UNL d   1     -48.330  13.046  21.460  0.00  0.00     0.007 A 
ENDBRANCH  15  17
ENDBRANCH   1  14
TORSDOF 2
ENDMDL
MODEL 4
REMARK VINA RESULT:      -6.0      8.178      9.712
REMARK  2 active torsions:
REMARK  status: ('A' for Active; 'I' for Inactive)
REMARK    1  A    between atoms: N_7  and  C_1 
REMARK       I    between atoms: C_8  and  N_7 
REMARK    2  A    between atoms: C_10  and  C_8 
ROOT
ATOM      1  C   UNL d   1     -39.895  14.988  19.497  0.00  0.00     0.159 A 
ATOM      2  N   UNL d   1     -38.907  14.854  18.457  0.00  0.00    -0.257 N 
ATOM      3  C   UNL d   1     -39.306  14.182  18.174  0.00  0.00     0.150 A 
ATOM      4  C   UNL d   1     -39.212  15.250  19.121  0.00  0.00     0.285 A 
ATOM      5  N   UNL d   1     -40.001  13.906  18.547  0.00  0.00    -0.226 NA
ATOM      6  C   UNL d   1     -40.295  14.310  19.208  0.00  0.00     0.105 A 
ATOM      7  C   UNL d   1     -39.023  13.777  17.521  0.00  0.00     0.035 A 
ATOM      8  C   UNL d   1     -38.234  15.117  18.092  0.00  0.00     0.085 A 
ATOM      9  O   UNL d   1     -38.812  15.922  19.403  0.00  0.00    -0.265 OA
ATOM     10  C   UNL d   1     -37.940  14.714  17.430  0.00  0.00     0.019 A 
ATOM     11  C   UNL d   1     -38.322  14.053  17.143  0.00  0.00     0.004 A 
ATOM     12  C   UNL d   1     -40.971  14.051  19.581  0.00  0.00     0.022 C 
ATOM     13  C   UNL d   1     -39.401  13.114  17.229  0.00  0.00     0.003 C 
ENDROOT
BRANCH   1  14
ATOM     14  N   UNL d   1     -40.190  15.391  20.158  0.00  0.00    -0.202 NA
ATOM     15  C   UNL d   1     -39.861  15.244  20.905  0.00  0.00     0.279 C 
ATOM     16  O   UNL d   1     -40.460  15.799  20.954  0.00  0.00    -0.265 OA
BRANCH  15  17
ATOM     17  C   UNL d   1     -39.452  15.011  21.586  0.00  0.00     0.060 A 
ATOM     18  C   UNL d   1     -39.470  14.223  21.815  0.00  0.00     0.031 A 
ATOM     19  C   UNL d   1     -39.061  13.990  22.497  0.00  0.00     0.119 A 
ATOM     20  O   UNL d   1     -38.975  13.253  22.864  0.00  0.00    -0.300 OA
ATOM     21  C   UNL d   1     -38.642  14.541  22.940  0.00  0.00     0.119 A 
ATOM     22  C   UNL d   1     -38.498  13.351  23.539  0.00  0.00     0.304 A 
ATOM     23  O   UNL d   1     -38.294  14.164  23.578  0.00  0.00    -0.300 OA
ATOM     24  C   UNL d   1     -38.628  15.339  22.701  0.00  0.00     0.026 A 
ATOM     25  C   UNL d   1     -39.034  15.573  22.023  0.00  0.00     0.007 A 
ENDBRANCH  15  17
ENDBRANCH   1  14
TORSDOF 2
ENDMDL
MODEL 5
REMARK VINA RESULT:      -5.6      7.540     10.548
REMARK  2 active torsions:
REMARK  status: ('A' for Active; 'I' for Inactive)
REMARK    1  A    between atoms: N_7  and  C_1 
REMARK       I    between atoms: C_8  and  N_7 
REMARK    2  A    between atoms: C_10  and  C_8 
ROOT
ATOM      1  C   UNL d   1     -38.035  14.499  18.551  0.00  0.00     0.159 A 
ATOM      2  N   UNL d   1     -38.113  15.033  17.216  0.00  0.00    -0.257 N 
ATOM      3  C   UNL d   1     -38.147  14.259  16.916  0.00  0.00     0.150 A 
ATOM      4  C   UNL d   1     -38.057  15.141  18.037  0.00  0.00     0.285 A 
ATOM      5  N   UNL d   1     -38.126  13.598  17.426  0.00  0.00    -0.226 NA
ATOM      6  C   UNL d   1     -38.070  13.719  18.244  0.00  0.00     0.105 A 
ATOM      7  C   UNL d   1     -38.203  14.130  16.109  0.00  0.00     0.035 A 
ATOM      8  C   UNL d   1     -38.134  15.669  16.716  0.00  0.00     0.085 A 
ATOM      9  O   UNL d   1     -38.022  15.916  18.337  0.00  0.00    -0.265 OA
ATOM     10  C   UNL d   1     -38.190  15.549  15.898  0.00  0.00     0.019 A 
ATOM     11  C   UNL d   1     -38.224  14.794  15.590  0.00  0.00     0.004 A 
ATOM     12  C   UNL d   1     -38.048  13.084  18.754  0.00  0.00     0.022 C 
ATOM     13  C   UNL d   1     -38.238  13.376  15.795  0.00  0.00     0.003 C 
ENDROOT
BRANCH   1  14
ATOM     14  N   UNL d   1     -37.979  14.618  19.369  0.00  0.00    -0.202 NA
ATOM     15  C   UNL d   1     -38.663  14.799  19.802  0.00  0.00     0.279 C 
ATOM     16  O   UNL d   1     -38.007  14.768  20.291  0.00  0.00    -0.265 OA
BRANCH  15  17
ATOM     17  C   UNL d   1     -39.408  14.970  20.117  0.00  0.00     0.060 A 
ATOM     18  C   UNL d   1     -39.937  14.357  20.255  0.00  0.00     0.031 A 
ATOM     19  C   UNL d   1     -40.683  14.530  20.570  0.00  0.00     0.119 A 
ATOM     20  O   UNL d   1     -41.324  14.044  20.767  0.00  0.00    -0.300 OA
ATOM     21  C   UNL d   1     -40.894  15.305  20.744  0.00  0.00     0.119 A 
ATOM     22  C   UNL d   1     -41.935  14.525  21.065  0.00  0.00     0.304 A 
ATOM     23  O   UNL d   1     -41.655  15.316  21.046  0.00  0.00    -0.300 OA
ATOM     24  C   UNL d   1     -40.353  15.922  20.601  0.00  0.00     0.026 A 
ATOM     25  C   UNL d   1     -39.609  15.753  20.287  0.00  0.00     0.007 A 
ENDBRANCH  15  17
ENDBRANCH   1  14
TORSDOF 2
ENDMDL
MODEL 6
REMARK VINA RESULT:      -5.6      8.292     10.103
REMARK  2 active torsions:
REMARK  status: ('A' for Active; 'I' for Inactive)
REMARK    1  A    between atoms: N_7  and  C_1 
REMARK       I    between atoms: C_8  and  N_7 
REMARK    2  A    between atoms: C_10  and  C_8 
ROOT
ATOM      1  C   UNL d   1     -39.604  15.799  18.759  0.00  0.00     0.159 A 
ATOM      2  N   UNL d   1     -39.310  15.810  20.169  0.00  0.00    -0.257 N 
ATOM      3  C   UNL d   1     -40.121  15.731  20.332  0.00  0.00     0.150 A 
ATOM      4  C   UNL d   1     -39.063  15.843  19.377  0.00  0.00     0.285 A 
ATOM      5  N   UNL d   1     -40.682  15.685  19.714  0.00  0.00    -0.226 NA
ATOM      6  C   UNL d   1     -40.422  15.719  18.928  0.00  0.00     0.105 A 
ATOM      7  C   UNL d   1     -40.387  15.696  21.106  0.00  0.00     0.035 A 
ATOM      8  C   UNL d   1     -38.772  15.853  20.772  0.00  0.00     0.085 A 
ATOM      9  O   UNL d   1     -38.251  15.922  19.215  0.00  0.00    -0.265 OA
ATOM     10  C   UNL d   1     -39.031  15.819  21.559  0.00  0.00     0.019 A 
ATOM     11  C   UNL d   1     -39.825  15.742  21.732  0.00  0.00     0.004 A 
ATOM     12  C   UNL d   1     -40.957  15.676  18.315  0.00  0.00     0.022 C 
ATOM     13  C   UNL d   1     -41.181  15.618  21.285  0.00  0.00     0.003 C 
ENDROOT
BRANCH   1  14
ATOM     14  N   UNL d   1     -39.346  15.833  17.973  0.00  0.00    -0.202 NA
ATOM     15  C   UNL d   1     -39.027  15.155  17.619  0.00  0.00     0.279 C 
ATOM     16  O   UNL d   1     -39.031  15.783  17.094  0.00  0.00    -0.265 OA
BRANCH  15  17
ATOM     17  C   UNL d   1     -38.732  14.418  17.384  0.00  0.00     0.060 A 
ATOM     18  C   UNL d   1     -38.941  13.747  17.808  0.00  0.00     0.031 A 
ATOM     19  C   UNL d   1     -38.645  13.011  17.572  0.00  0.00     0.119 A 
ATOM     20  O   UNL d   1     -38.752  12.249  17.879  0.00  0.00    -0.300 OA
ATOM     21  C   UNL d   1     -38.148  12.950  16.921  0.00  0.00     0.119 A 
ATOM     22  C   UNL d   1     -38.316  11.715  17.413  0.00  0.00     0.304 A 
ATOM     23  O   UNL d   1     -37.939  12.165  16.812  0.00  0.00    -0.300 OA
ATOM     24  C   UNL d   1     -37.940  13.635  16.495  0.00  0.00     0.026 A 
ATOM     25  C   UNL d   1     -38.232  14.370  16.728  0.00  0.00     0.007 A 
ENDBRANCH  15  17
ENDBRANCH   1  14
TORSDOF 2
ENDMDL
