MODEL 1
REMARK VINA RESULT:      31.2      0.000      0.000
REMARK  4 active torsions:
REMARK  status: ('A' for Active; 'I' for Inactive)
REMARK    1  A    between atoms: C_4  and  C_1 
REMARK       I    between atoms: N_9  and  C_4 
REMARK    2  A    between atoms: C_7  and  C_13 
REMARK    3  A    between atoms: C_12  and  N_9 
REMARK    4  A    between atoms: C_13  and  C_12 
ROOT
ATOM      1  C   UNL d   1      58.079  49.629  50.969  0.00  0.00     0.302 C 
ATOM      2  O   UNL d   1      58.101  49.558  51.776  0.00  0.00    -0.263 OA
ATOM      3  N   UNL d   1      58.795  49.706  50.538  0.00  0.00    -0.205 NA
ENDROOT
BRANCH   3   4
ATOM      4  C   UNL d   1      59.504  49.708  50.944  0.00  0.00     0.102 C 
BRANCH   4   5
ATOM      5  C   UNL d   1      59.807  49.004  51.259  0.00  0.00     0.021 C 
BRANCH   5   6
ATOM      6  C   UNL d   1      60.500  48.682  50.960  0.00  0.00     0.002 A 
ATOM      7  C   UNL d   1      60.631  47.860  51.022  0.00  0.00     0.000 A 
ATOM      8  C   UNL d   1      61.323  47.525  50.726  0.00  0.00     0.000 A 
ATOM      9  C   UNL d   1      61.896  47.999  50.365  0.00  0.00     0.000 A 
ATOM     10  C   UNL d   1      61.766  48.805  50.305  0.00  0.00     0.000 A 
ATOM     11  C   UNL d   1      61.068  49.144  50.603  0.00  0.00     0.000 A 
ENDBRANCH   5   6
ENDBRANCH   4   5
ENDBRANCH   3   4
BRANCH   1  12
ATOM     12  C   UNL d   1      57.361  49.627  50.564  0.00  0.00     0.158 A 
ATOM     13  O   UNL d   1      57.220  49.548  49.752  0.00  0.00    -0.296 OA
ATOM     14  C   UNL d   1      56.403  49.580  49.612  0.00  0.00     0.134 A 
ATOM     15 BR   UNL d   1      56.035  49.522  48.871  0.00  0.00    -0.022 Br
ATOM     16  C   UNL d   1      56.039  49.679  50.347  0.00  0.00     0.034 A 
ATOM     17  C   UNL d   1      56.616  49.708  50.926  0.00  0.00     0.032 A 
ENDBRANCH   1  12
TORSDOF 4
ENDMDL
