MODEL 1
REMARK VINA RESULT:      82.6      0.000      0.000
REMARK  6 active torsions:
REMARK  status: ('A' for Active; 'I' for Inactive)
REMARK    1  A    between atoms: N_5  and  C_1 
REMARK       I    between atoms: C_11  and  N_5 
REMARK    2  A    between atoms: C_22  and  C_7 
REMARK    3  A    between atoms: C_8  and  C_10 
REMARK    4  A    between atoms: C_20  and  C_11 
REMARK    5  A    between atoms: C_13  and  S_15 
REMARK    6  A    between atoms: S_15  and  C_20 
ROOT
ATOM      1  S   UNL d   1     -59.152 -99.869 -42.701  0.00  0.00    -0.061 SA
ENDROOT
BRANCH   1   2
ATOM      2  C   UNL d   1     -59.280 -99.769 -41.893  0.00  0.00     0.133 A 
ATOM      3  N   UNL d   1     -59.166 -99.042 -41.541  0.00  0.00    -0.141 NA
ATOM      4  N   UNL d   1     -59.291 -98.938 -40.741  0.00  0.00    -0.147 NA
ATOM      5  C   UNL d   1     -59.536 -99.577 -40.283  0.00  0.00     0.109 A 
ATOM      6  C   UNL d   1     -59.653-100.316 -40.631  0.00  0.00     0.024 A 
ATOM      7  C   UNL d   1     -59.527-100.411 -41.427  0.00  0.00     0.029 A 
BRANCH   5   8
ATOM      8  C   UNL d   1     -59.664 -99.480 -39.477  0.00  0.00     0.049 A 
ATOM      9  S   UNL d   1     -59.620 -98.776 -39.056  0.00  0.00    -0.085 SA
ATOM     10  C   UNL d   1     -59.787 -98.927 -38.265  0.00  0.00     0.035 A 
ATOM     11  C   UNL d   1     -59.938 -99.745 -38.193  0.00  0.00     0.007 A 
ATOM     12  C   UNL d   1     -59.862-100.087 -38.940  0.00  0.00     0.009 A 
ENDBRANCH   5   8
ENDBRANCH   1   2
BRANCH   1  13
ATOM     13  C   UNL d   1     -59.193 -99.229 -43.209  0.00  0.00     0.099 C 
BRANCH  13  14
ATOM     14  C   UNL d   1     -58.600 -99.116 -43.771  0.00  0.00     0.288 C 
ATOM     15  N   UNL d   1     -57.833 -99.364 -43.611  0.00  0.00    -0.181 NA
ATOM     16  O   UNL d   1     -58.773 -98.758 -44.488  0.00  0.00    -0.265 OA
BRANCH  15  17
ATOM     17  C   UNL d   1     -57.243 -99.255 -44.165  0.00  0.00     0.219 A 
ATOM     18  S   UNL d   1     -56.466 -99.020 -44.008  0.00  0.00    -0.026 SA
ATOM     19  C   UNL d   1     -56.068 -98.981 -44.718  0.00  0.00     0.135 A 
ATOM     20  N   UNL d   1     -56.591 -99.188 -45.316  0.00  0.00    -0.139 NA
ATOM     21  N   UNL d   1     -57.311 -99.356 -44.972  0.00  0.00    -0.121 NA
BRANCH  19  22
ATOM     22  C   UNL d   1     -55.277 -98.769 -44.819  0.00  0.00     0.028 C 
ATOM     23  C   UNL d   1     -54.751 -98.825 -44.196  0.00  0.00     0.002 C 
ENDBRANCH  19  22
ENDBRANCH  15  17
ENDBRANCH  13  14
ENDBRANCH   1  13
TORSDOF 6
ENDMDL
