MODEL 1
REMARK VINA RESULT:      -5.0      0.000      0.000
REMARK  2 active torsions:
REMARK  status: ('A' for Active; 'I' for Inactive)
REMARK    1  A    between atoms: C_3  and  N_1 
REMARK    2  A    between atoms: C_12  and  C_9 
ROOT
ATOM      1  C   UNL d   1     -41.711-123.056 -50.859  0.00  0.00     0.187 A 
ATOM      2  N   UNL d   1     -41.908-123.685 -51.365  0.00  0.00    -0.129 NA
ATOM      3  N   UNL d   1     -41.908-123.569 -52.182  0.00  0.00    -0.147 NA
ATOM      4  C   UNL d   1     -41.515-122.321 -51.171  0.00  0.00     0.039 A 
ATOM      5  C   UNL d   1     -41.709-122.824 -52.493  0.00  0.00     0.103 A 
ATOM      6  C   UNL d   1     -41.514-122.205 -51.988  0.00  0.00     0.022 A 
ATOM      7  C   UNL d   1     -41.319-121.697 -50.666  0.00  0.00     0.003 A 
ATOM      8  C   UNL d   1     -41.317-121.465 -52.300  0.00  0.00     0.002 A 
ATOM      9  C   UNL d   1     -41.123-120.847 -51.795  0.00  0.00     0.000 A 
ATOM     10  C   UNL d   1     -41.123-120.963 -50.978  0.00  0.00     0.000 A 
ENDROOT
BRANCH   1  11
ATOM     11  N   UNL d   1     -41.711-123.172 -50.042  0.00  0.00    -0.191 N 
ATOM     12  N   UNL d   1     -41.126-123.118 -49.450  0.00  0.00    -0.058 NA
ATOM     13  N   UNL d   1     -41.445-123.296 -48.723  0.00  0.00    -0.129 NA
ATOM     14  C   UNL d   1     -42.248-123.468 -48.835  0.00  0.00     0.122 A 
ATOM     15  C   UNL d   1     -42.415-123.391 -49.657  0.00  0.00     0.105 A 
ATOM     16  C   UNL d   1     -42.846-123.683 -48.310  0.00  0.00     0.022 A 
ATOM     17  C   UNL d   1     -43.180-123.532 -49.927  0.00  0.00     0.021 A 
ATOM     18  C   UNL d   1     -43.782-123.752 -49.368  0.00  0.00     0.002 A 
ATOM     19  C   UNL d   1     -43.582-123.817 -48.580  0.00  0.00     0.002 A 
ENDBRANCH   1  11
BRANCH   5  20
ATOM     20  C   UNL d   1     -41.708-122.708 -53.310  0.00  0.00     0.020 A 
ATOM     21  C   UNL d   1     -41.149-123.103 -53.781  0.00  0.00     0.004 A 
ATOM     22  C   UNL d   1     -41.148-122.987 -54.598  0.00  0.00     0.030 A 
ATOM     23  C   UNL d   1     -41.706-122.476 -54.943  0.00  0.00     0.140 A 
ATOM     24  C   UNL d   1     -42.257-122.088 -54.472  0.00  0.00     0.030 A 
ATOM     25  F   UNL d   1     -41.706-122.360 -55.760  0.00  0.00    -0.204 F 
ATOM     26  C   UNL d   1     -42.258-122.204 -53.655  0.00  0.00     0.004 A 
ENDBRANCH   5  20
TORSDOF 2
ENDMDL
MODEL 2
REMARK VINA RESULT:      -4.0      1.894      4.462
REMARK  2 active torsions:
REMARK  status: ('A' for Active; 'I' for Inactive)
REMARK    1  A    between atoms: C_3  and  N_1 
REMARK    2  A    between atoms: C_12  and  C_9 
ROOT
ATOM      1  C   UNL d   1     -41.978-122.419 -52.417  0.00  0.00     0.187 A 
ATOM      2  N   UNL d   1     -42.230-123.179 -52.195  0.00  0.00    -0.129 NA
ATOM      3  N   UNL d   1     -42.194-123.406 -51.403  0.00  0.00    -0.147 NA
ATOM      4  C   UNL d   1     -41.694-121.895 -51.851  0.00  0.00     0.039 A 
ATOM      5  C   UNL d   1     -41.906-122.873 -50.833  0.00  0.00     0.103 A 
ATOM      6  C   UNL d   1     -41.658-122.123 -51.059  0.00  0.00     0.022 A 
ATOM      7  C   UNL d   1     -41.444-121.140 -52.075  0.00  0.00     0.003 A 
ATOM      8  C   UNL d   1     -41.372-121.595 -50.490  0.00  0.00     0.002 A 
ATOM      9  C   UNL d   1     -41.125-120.845 -50.717  0.00  0.00     0.000 A 
ATOM     10  C   UNL d   1     -41.161-120.618 -51.509  0.00  0.00     0.000 A 
ENDROOT
BRANCH   1  11
ATOM     11  N   UNL d   1     -42.014-122.191 -53.210  0.00  0.00    -0.191 N 
ATOM     12  N   UNL d   1     -42.301-121.514 -53.605  0.00  0.00    -0.058 NA
ATOM     13  N   UNL d   1     -42.191-121.590 -54.408  0.00  0.00    -0.129 NA
ATOM     14  C   UNL d   1     -41.829-122.323 -54.545  0.00  0.00     0.122 A 
ATOM     15  C   UNL d   1     -41.718-122.699 -53.799  0.00  0.00     0.105 A 
ATOM     16  C   UNL d   1     -41.586-122.699 -55.237  0.00  0.00     0.022 A 
ATOM     17  C   UNL d   1     -41.366-123.442 -53.771  0.00  0.00     0.021 A 
ATOM     18  C   UNL d   1     -41.123-123.812 -54.497  0.00  0.00     0.002 A 
ATOM     19  C   UNL d   1     -41.247-123.418 -55.201  0.00  0.00     0.002 A 
ENDBRANCH   1  11
BRANCH   5  20
ATOM     20  C   UNL d   1     -41.870-123.101 -50.041  0.00  0.00     0.020 A 
ATOM     21  C   UNL d   1     -42.546-123.033 -49.562  0.00  0.00     0.004 A 
ATOM     22  C   UNL d   1     -42.510-123.261 -48.770  0.00  0.00     0.030 A 
ATOM     23  C   UNL d   1     -41.798-123.555 -48.456  0.00  0.00     0.140 A 
ATOM     24  C   UNL d   1     -41.133-123.619 -48.935  0.00  0.00     0.030 A 
ATOM     25  F   UNL d   1     -41.762-123.782 -47.664  0.00  0.00    -0.204 F 
ATOM     26  C   UNL d   1     -41.169-123.392 -49.727  0.00  0.00     0.004 A 
ENDBRANCH   5  20
TORSDOF 2
ENDMDL
