MODEL 1
REMARK VINA RESULT:      40.5      0.000      0.000
REMARK  4 active torsions:
REMARK  status: ('A' for Active; 'I' for Inactive)
REMARK    1  A    between atoms: N_3  and  C_1 
REMARK       I    between atoms: C_5  and  N_3 
REMARK    2  A    between atoms: C_7  and  C_5 
REMARK    3  A    between atoms: C_9  and  C_12 
REMARK    4  A    between atoms: O_18  and  C_9 
ROOT
ATOM      1  C   UNL d   1     -54.771-102.485 -41.236  0.00  0.00     0.197 A 
ATOM      2  N   UNL d   1     -54.759-102.848 -41.988  0.00  0.00    -0.221 NA
ATOM      3  S   UNL d   1     -54.805-101.670 -41.351  0.00  0.00    -0.047 SA
ATOM      4  C   UNL d   1     -54.815-101.515 -42.164  0.00  0.00     0.050 A 
ATOM      5  C   UNL d   1     -54.786-102.249 -42.561  0.00  0.00     0.090 A 
ATOM      6  C   UNL d   1     -54.847-100.841 -43.412  0.00  0.00     0.064 A 
ATOM      7  C   UNL d   1     -54.845-100.813 -42.595  0.00  0.00     0.013 A 
ATOM      8  C   UNL d   1     -54.788-102.265 -43.382  0.00  0.00     0.020 A 
ATOM      9  C   UNL d   1     -54.818-101.574 -43.809  0.00  0.00     0.007 A 
ENDROOT
BRANCH   1  10
ATOM     10  N   UNL d   1     -54.752-102.879 -40.509  0.00  0.00    -0.183 NA
ATOM     11  C   UNL d   1     -54.746-102.447 -39.806  0.00  0.00     0.281 C 
ATOM     12  O   UNL d   1     -54.727-102.838 -39.083  0.00  0.00    -0.265 OA
BRANCH  11  13
ATOM     13  C   UNL d   1     -54.760-101.622 -39.830  0.00  0.00     0.058 A 
ATOM     14  C   UNL d   1     -54.739-100.918 -40.260  0.00  0.00     0.005 A 
ATOM     15  C   UNL d   1     -54.805-100.899 -39.440  0.00  0.00     0.005 A 
ENDBRANCH  11  13
ENDBRANCH   1  10
BRANCH   6  16
ATOM     16  C   UNL d   1     -54.878-100.144 -43.857  0.00  0.00     0.296 C 
ATOM     17  O   UNL d   1     -54.760 -99.418 -43.501  0.00  0.00    -0.259 OA
BRANCH  16  18
ATOM     18  O   UNL d   1     -55.031-100.194 -44.672  0.00  0.00    -0.296 OA
ATOM     19  C   UNL d   1     -55.312 -99.534 -45.072  0.00  0.00     0.185 C 
ENDBRANCH  16  18
ENDBRANCH   6  16
TORSDOF 4
ENDMDL
MODEL 2
REMARK VINA RESULT:      40.9      3.622      4.550
REMARK  4 active torsions:
REMARK  status: ('A' for Active; 'I' for Inactive)
REMARK    1  A    between atoms: N_3  and  C_1 
REMARK       I    between atoms: C_5  and  N_3 
REMARK    2  A    between atoms: C_7  and  C_5 
REMARK    3  A    between atoms: C_9  and  C_12 
REMARK    4  A    between atoms: O_18  and  C_9 
ROOT
ATOM      1  C   UNL d   1     -57.698 -99.280 -43.170  0.00  0.00     0.197 A 
ATOM      2  N   UNL d   1     -57.040 -98.766 -43.152  0.00  0.00    -0.221 NA
ATOM      3  S   UNL d   1     -57.505 -99.919 -43.652  0.00  0.00    -0.047 SA
ATOM      4  C   UNL d   1     -56.735 -99.815 -43.938  0.00  0.00     0.050 A 
ATOM      5  C   UNL d   1     -56.445 -99.096 -43.626  0.00  0.00     0.090 A 
ATOM      6  C   UNL d   1     -55.506-100.014 -44.619  0.00  0.00     0.064 A 
ATOM      7  C   UNL d   1     -56.259-100.271 -44.434  0.00  0.00     0.013 A 
ATOM      8  C   UNL d   1     -55.686 -98.848 -43.817  0.00  0.00     0.020 A 
ATOM      9  C   UNL d   1     -55.216 -99.296 -44.307  0.00  0.00     0.007 A 
ENDROOT
BRANCH   1  10
ATOM     10  N   UNL d   1     -58.414 -99.163 -42.773  0.00  0.00    -0.183 NA
ATOM     11  C   UNL d   1     -59.093 -98.963 -43.197  0.00  0.00     0.281 C 
ATOM     12  O   UNL d   1     -59.805 -98.848 -42.802  0.00  0.00    -0.265 OA
BRANCH  11  13
ATOM     13  C   UNL d   1     -59.057 -98.880 -44.017  0.00  0.00     0.058 A 
ATOM     14  C   UNL d   1     -58.616 -98.783 -44.708  0.00  0.00     0.005 A 
ATOM     15  C   UNL d   1     -59.437 -98.833 -44.745  0.00  0.00     0.005 A 
ENDBRANCH  11  13
ENDBRANCH   1  10
BRANCH   6  16
ATOM     16  C   UNL d   1     -55.019-100.461 -45.115  0.00  0.00     0.296 C 
ATOM     17  O   UNL d   1     -54.841-100.199 -45.869  0.00  0.00    -0.259 OA
BRANCH  16  18
ATOM     18  O   UNL d   1     -54.712-101.182 -44.837  0.00  0.00    -0.296 OA
ATOM     19  C   UNL d   1     -54.928-101.883 -45.205  0.00  0.00     0.185 C 
ENDBRANCH  16  18
ENDBRANCH   6  16
TORSDOF 4
ENDMDL
