MODEL 1
REMARK VINA RESULT:      -7.3      0.000      0.000
REMARK  2 active torsions:
REMARK  status: ('A' for Active; 'I' for Inactive)
REMARK    1  A    between atoms: C_4  and  C_1 
REMARK    2  A    between atoms: N_6  and  C_5 
ROOT
ATOM      1  C   UNL d   1      53.100  32.072  53.505  0.00  0.00     0.024 A 
ATOM      2  C   UNL d   1      53.128  33.670  53.925  0.00  0.00     0.064 A 
ATOM      3  C   UNL d   1      52.463  32.566  53.314  0.00  0.00     0.004 A 
ATOM      4  C   UNL d   1      53.751  32.381  53.906  0.00  0.00     0.004 A 
ATOM      5  C   UNL d   1      52.477  33.361  53.523  0.00  0.00     0.018 A 
ATOM      6  C   UNL d   1      53.766  33.183  54.117  0.00  0.00     0.018 A 
ENDROOT
BRANCH   1   7
ATOM      7  C   UNL d   1      53.089  31.278  53.297  0.00  0.00     0.111 A 
ATOM      8  N   UNL d   1      52.790  30.946  52.612  0.00  0.00    -0.237 NA
ATOM      9  C   UNL d   1      52.911  30.131  52.667  0.00  0.00     0.106 A 
ATOM     10  C   UNL d   1      53.271  29.971  53.363  0.00  0.00     0.058 A 
ATOM     11  S   UNL d   1      53.383  30.675  53.755  0.00  0.00    -0.066 SA
ENDBRANCH   1   7
BRANCH   2  12
ATOM     12  N   UNL d   1      53.118  34.471  54.123  0.00  0.00    -0.301 N 
ATOM     13  C   UNL d   1      53.362  34.697  54.873  0.00  0.00     0.100 C 
ATOM     14  C   UNL d   1      52.868  35.028  53.579  0.00  0.00     0.100 C 
ENDBRANCH   2  12
TORSDOF 2
ENDMDL
MODEL 2
REMARK VINA RESULT:      -7.2      1.082      3.394
REMARK  2 active torsions:
REMARK  status: ('A' for Active; 'I' for Inactive)
REMARK    1  A    between atoms: C_4  and  C_1 
REMARK    2  A    between atoms: N_6  and  C_5 
ROOT
ATOM      1  C   UNL d   1      53.079  32.938  53.652  0.00  0.00     0.024 A 
ATOM      2  C   UNL d   1      53.156  31.307  53.403  0.00  0.00     0.064 A 
ATOM      3  C   UNL d   1      52.498  32.556  53.202  0.00  0.00     0.004 A 
ATOM      4  C   UNL d   1      53.698  32.501  53.978  0.00  0.00     0.004 A 
ATOM      5  C   UNL d   1      52.536  31.744  53.078  0.00  0.00     0.018 A 
ATOM      6  C   UNL d   1      53.737  31.682  53.853  0.00  0.00     0.018 A 
ENDROOT
BRANCH   1   7
ATOM      7  C   UNL d   1      53.043  33.749  53.778  0.00  0.00     0.111 A 
ATOM      8  N   UNL d   1      52.773  34.322  53.260  0.00  0.00    -0.237 NA
ATOM      9  C   UNL d   1      52.851  35.048  53.644  0.00  0.00     0.106 A 
ATOM     10  C   UNL d   1      53.158  34.923  54.371  0.00  0.00     0.058 A 
ATOM     11  S   UNL d   1      53.278  34.123  54.459  0.00  0.00    -0.066 SA
ENDBRANCH   1   7
BRANCH   2  12
ATOM     12  N   UNL d   1      53.171  30.493  53.264  0.00  0.00    -0.301 N 
ATOM     13  C   UNL d   1      52.914  30.209  52.539  0.00  0.00     0.100 C 
ATOM     14  C   UNL d   1      53.440  29.981  53.843  0.00  0.00     0.100 C 
ENDBRANCH   2  12
TORSDOF 2
ENDMDL
MODEL 3
REMARK VINA RESULT:      -7.2      2.000      2.930
REMARK  2 active torsions:
REMARK  status: ('A' for Active; 'I' for Inactive)
REMARK    1  A    between atoms: C_4  and  C_1 
REMARK    2  A    between atoms: N_6  and  C_5 
ROOT
ATOM      1  C   UNL d   1      53.024  33.865  53.944  0.00  0.00     0.024 A 
ATOM      2  C   UNL d   1      51.681  34.122  53.017  0.00  0.00     0.064 A 
ATOM      3  C   UNL d   1      52.494  33.246  53.796  0.00  0.00     0.004 A 
ATOM      4  C   UNL d   1      52.880  34.613  53.627  0.00  0.00     0.004 A 
ATOM      5  C   UNL d   1      51.826  33.374  53.334  0.00  0.00     0.018 A 
ATOM      6  C   UNL d   1      52.205  34.742  53.161  0.00  0.00     0.018 A 
ENDROOT
BRANCH   1   7
ATOM      7  C   UNL d   1      53.692  33.741  54.404  0.00  0.00     0.111 A 
ATOM      8  N   UNL d   1      54.012  34.243  54.965  0.00  0.00    -0.237 NA
ATOM      9  C   UNL d   1      54.680  33.868  55.272  0.00  0.00     0.106 A 
ATOM     10  C   UNL d   1      54.764  33.159  54.912  0.00  0.00     0.058 A 
ATOM     11  S   UNL d   1      54.158  33.076  54.375  0.00  0.00    -0.066 SA
ENDBRANCH   1   7
BRANCH   2  12
ATOM     12  N   UNL d   1      51.003  34.224  52.557  0.00  0.00    -0.301 N 
ATOM     13  C   UNL d   1      51.069  34.192  51.740  0.00  0.00     0.100 C 
ATOM     14  C   UNL d   1      50.279  34.356  52.913  0.00  0.00     0.100 C 
ENDBRANCH   2  12
TORSDOF 2
ENDMDL
MODEL 4
REMARK VINA RESULT:      -6.9      2.006      2.845
REMARK  2 active torsions:
REMARK  status: ('A' for Active; 'I' for Inactive)
REMARK    1  A    between atoms: C_4  and  C_1 
REMARK    2  A    between atoms: N_6  and  C_5 
ROOT
ATOM      1  C   UNL d   1      52.358  33.772  53.441  0.00  0.00     0.024 A 
ATOM      2  C   UNL d   1      53.669  33.418  54.382  0.00  0.00     0.064 A 
ATOM      3  C   UNL d   1      52.615  34.308  54.019  0.00  0.00     0.004 A 
ATOM      4  C   UNL d   1      52.760  33.059  53.336  0.00  0.00     0.004 A 
ATOM      5  C   UNL d   1      53.267  34.132  54.487  0.00  0.00     0.018 A 
ATOM      6  C   UNL d   1      53.418  32.881  53.809  0.00  0.00     0.018 A 
ENDROOT
BRANCH   1   7
ATOM      7  C   UNL d   1      51.707  33.945  52.972  0.00  0.00     0.111 A 
ATOM      8  N   UNL d   1      51.707  34.209  52.198  0.00  0.00    -0.237 NA
ATOM      9  C   UNL d   1      50.917  34.300  51.975  0.00  0.00     0.106 A 
ATOM     10  C   UNL d   1      50.452  34.099  52.592  0.00  0.00     0.058 A 
ATOM     11  S   UNL d   1      50.934  33.878  53.210  0.00  0.00    -0.066 SA
ENDBRANCH   1   7
BRANCH   2  12
ATOM     12  N   UNL d   1      54.321  33.265  54.865  0.00  0.00    -0.301 N 
ATOM     13  C   UNL d   1      54.245  32.722  55.474  0.00  0.00     0.100 C 
ATOM     14  C   UNL d   1      55.031  33.652  54.736  0.00  0.00     0.100 C 
ENDBRANCH   2  12
TORSDOF 2
ENDMDL
