MODEL 1
REMARK VINA RESULT:       0.0      0.000      0.000
REMARK  4 active torsions:
REMARK  status: ('A' for Active; 'I' for Inactive)
REMARK    1  A    between atoms: C_8  and  N_2 
REMARK    2  A    between atoms: C_13  and  C_8 
REMARK    3  A    between atoms: O_17  and  C_13 
REMARK    4  A    between atoms: O_18  and  C_15 
ROOT
ATOM      1  C   UNL d   1      58.286   0.664  31.664  0.00  0.00     0.166 A 
ATOM      2  N   UNL d   1      57.526   0.659  31.341  0.00  0.00    -0.285 N 
ATOM      3  C   UNL d   1      58.209   0.666  32.489  0.00  0.00     0.117 A 
ATOM      4  C   UNL d   1      57.407   0.663  32.676  0.00  0.00     0.039 A 
ATOM      5  C   UNL d   1      56.986   0.658  31.967  0.00  0.00     0.067 A 
ATOM      6  N   UNL d   1      59.024   0.667  31.312  0.00  0.00    -0.225 NA
ATOM      7  N   UNL d   1      58.883   0.671  32.960  0.00  0.00    -0.241 NA
ATOM      8  C   UNL d   1      59.709   0.672  31.780  0.00  0.00     0.101 A 
ATOM      9  C   UNL d   1      59.633   0.674  32.605  0.00  0.00     0.099 A 
ATOM     10  C   UNL d   1      56.152   0.654  31.969  0.00  0.00     0.020 A 
ATOM     11  C   UNL d   1      57.004   0.663  33.385  0.00  0.00     0.027 A 
ATOM     12  C   UNL d   1      56.179   0.659  33.398  0.00  0.00     0.094 A 
ATOM     13  C   UNL d   1      55.756   0.654  32.689  0.00  0.00     0.026 A 
ATOM     14  C   UNL d   1      60.306   0.679  33.076  0.00  0.00     0.021 A 
ATOM     15  C   UNL d   1      60.450   0.674  31.440  0.00  0.00     0.021 A 
ATOM     16  C   UNL d   1      61.133   0.679  31.909  0.00  0.00     0.002 A 
ATOM     17  C   UNL d   1      61.056   0.682  32.734  0.00  0.00     0.002 A 
ENDROOT
BRANCH   2  18
ATOM     18  C   UNL d   1      57.339   0.656  30.538  0.00  0.00     0.150 C 
BRANCH  18  19
ATOM     19  C   UNL d   1      57.568   0.016  30.065  0.00  0.00     0.314 C 
ATOM     20  O   UNL d   1      57.411  -0.757  30.321  0.00  0.00    -0.257 OA
BRANCH  19  21
ATOM     21  O   UNL d   1      57.943   0.146  29.357  0.00  0.00    -0.295 OA
ATOM     22  C   UNL d   1      57.616  -0.138  28.651  0.00  0.00     0.185 C 
ENDBRANCH  19  21
ENDBRANCH  18  19
ENDBRANCH   2  18
BRANCH  12  23
ATOM     23  O   UNL d   1      55.783   0.659  34.119  0.00  0.00    -0.328 OA
ATOM     24  C   UNL d   1      54.960   0.620  34.145  0.00  0.00     0.181 C 
ENDBRANCH  12  23
TORSDOF 4
ENDMDL
MODEL 2
REMARK VINA RESULT:       0.1      2.243      2.890
REMARK  4 active torsions:
REMARK  status: ('A' for Active; 'I' for Inactive)
REMARK    1  A    between atoms: C_8  and  N_2 
REMARK    2  A    between atoms: C_13  and  C_8 
REMARK    3  A    between atoms: O_17  and  C_13 
REMARK    4  A    between atoms: O_18  and  C_15 
ROOT
ATOM      1  C   UNL d   1      58.742  -1.016  29.634  0.00  0.00     0.166 A 
ATOM      2  N   UNL d   1      58.088  -1.497  29.780  0.00  0.00    -0.285 N 
ATOM      3  C   UNL d   1      58.750  -0.419  30.209  0.00  0.00     0.117 A 
ATOM      4  C   UNL d   1      58.104  -0.530  30.708  0.00  0.00     0.039 A 
ATOM      5  C   UNL d   1      57.696  -1.195  30.443  0.00  0.00     0.067 A 
ATOM      6  N   UNL d   1      59.321  -1.049  29.057  0.00  0.00    -0.225 NA
ATOM      7  N   UNL d   1      59.346   0.147  30.200  0.00  0.00    -0.241 NA
ATOM      8  C   UNL d   1      59.926  -0.481  29.041  0.00  0.00     0.101 A 
ATOM      9  C   UNL d   1      59.934   0.115  29.616  0.00  0.00     0.099 A 
ATOM     10  C   UNL d   1      57.008  -1.456  30.836  0.00  0.00     0.020 A 
ATOM     11  C   UNL d   1      57.833  -0.123  31.361  0.00  0.00     0.027 A 
ATOM     12  C   UNL d   1      57.153  -0.372  31.757  0.00  0.00     0.094 A 
ATOM     13  C   UNL d   1      56.744  -1.038  31.493  0.00  0.00     0.026 A 
ATOM     14  C   UNL d   1      60.531   0.681  29.607  0.00  0.00     0.021 A 
ATOM     15  C   UNL d   1      60.508  -0.505  28.470  0.00  0.00     0.021 A 
ATOM     16  C   UNL d   1      61.112   0.063  28.456  0.00  0.00     0.002 A 
ATOM     17  C   UNL d   1      61.120   0.659  29.030  0.00  0.00     0.002 A 
ENDROOT
BRANCH   2  18
ATOM     18  C   UNL d   1      57.864  -2.159  29.344  0.00  0.00     0.150 C 
BRANCH  18  19
ATOM     19  C   UNL d   1      58.377  -2.808  29.288  0.00  0.00     0.314 C 
ATOM     20  O   UNL d   1      58.793  -3.056  29.961  0.00  0.00    -0.257 OA
BRANCH  19  21
ATOM     21  O   UNL d   1      58.468  -3.196  28.582  0.00  0.00    -0.295 OA
ATOM     22  C   UNL d   1      58.473  -4.024  28.556  0.00  0.00     0.185 C 
ENDBRANCH  19  21
ENDBRANCH  18  19
ENDBRANCH   2  18
BRANCH  12  23
ATOM     23  O   UNL d   1      56.889   0.046  32.414  0.00  0.00    -0.328 OA
ATOM     24  C   UNL d   1      56.095   0.019  32.636  0.00  0.00     0.181 C 
ENDBRANCH  12  23
TORSDOF 4
ENDMDL
MODEL 3
REMARK VINA RESULT:       0.5      1.559      2.787
REMARK  4 active torsions:
REMARK  status: ('A' for Active; 'I' for Inactive)
REMARK    1  A    between atoms: C_8  and  N_2 
REMARK    2  A    between atoms: C_13  and  C_8 
REMARK    3  A    between atoms: O_17  and  C_13 
REMARK    4  A    between atoms: O_18  and  C_15 
ROOT
ATOM      1  C   UNL d   1      57.252   0.622  32.156  0.00  0.00     0.166 A 
ATOM      2  N   UNL d   1      56.692   0.606  32.761  0.00  0.00    -0.285 N 
ATOM      3  C   UNL d   1      58.003   0.647  32.506  0.00  0.00     0.117 A 
ATOM      4  C   UNL d   1      57.908   0.647  33.325  0.00  0.00     0.039 A 
ATOM      5  C   UNL d   1      57.099   0.622  33.482  0.00  0.00     0.067 A 
ATOM      6  N   UNL d   1      57.171   0.617  31.342  0.00  0.00    -0.225 NA
ATOM      7  N   UNL d   1      58.674   0.667  32.031  0.00  0.00    -0.241 NA
ATOM      8  C   UNL d   1      57.843   0.636  30.855  0.00  0.00     0.101 A 
ATOM      9  C   UNL d   1      58.593   0.661  31.206  0.00  0.00     0.099 A 
ATOM     10  C   UNL d   1      56.818   0.616  34.267  0.00  0.00     0.020 A 
ATOM     11  C   UNL d   1      58.439   0.666  33.943  0.00  0.00     0.027 A 
ATOM     12  C   UNL d   1      58.172   0.661  34.725  0.00  0.00     0.094 A 
ATOM     13  C   UNL d   1      57.363   0.635  34.882  0.00  0.00     0.026 A 
ATOM     14  C   UNL d   1      59.264   0.681  30.731  0.00  0.00     0.021 A 
ATOM     15  C   UNL d   1      57.773   0.631  30.042  0.00  0.00     0.021 A 
ATOM     16  C   UNL d   1      58.445   0.651  29.559  0.00  0.00     0.002 A 
ATOM     17  C   UNL d   1      59.195   0.676  29.909  0.00  0.00     0.002 A 
ENDROOT
BRANCH   2  18
ATOM     18  C   UNL d   1      55.874   0.580  32.666  0.00  0.00     0.150 C 
BRANCH  18  19
ATOM     19  C   UNL d   1      55.447  -0.069  32.953  0.00  0.00     0.314 C 
ATOM     20  O   UNL d   1      54.930   0.034  33.593  0.00  0.00    -0.257 OA
BRANCH  19  21
ATOM     21  O   UNL d   1      55.535  -0.799  32.609  0.00  0.00    -0.295 OA
ATOM     22  C   UNL d   1      55.113  -1.452  32.897  0.00  0.00     0.185 C 
ENDBRANCH  19  21
ENDBRANCH  18  19
ENDBRANCH   2  18
BRANCH  12  23
ATOM     23  O   UNL d   1      58.716   0.680  35.340  0.00  0.00    -0.328 OA
ATOM     24  C   UNL d   1      58.462   0.676  36.125  0.00  0.00     0.181 C 
ENDBRANCH  12  23
TORSDOF 4
ENDMDL
