MODEL 1
REMARK VINA RESULT:      51.3      0.000      0.000
REMARK  1 active torsions:
REMARK  status: ('A' for Active; 'I' for Inactive)
REMARK    1  A    between atoms: C_11  and  N_5 
ROOT
ATOM      1  C   UNL d   1      14.498  14.310  -2.064  0.00  0.00     0.130 A 
ATOM      2  C   UNL d   1      14.700  13.841  -1.415  0.00  0.00     0.157 A 
ATOM      3  N   UNL d   1      14.583  13.032  -1.440  0.00  0.00    -0.210 NA
ATOM      4  C   UNL d   1      14.178  13.966  -2.741  0.00  0.00     0.272 A 
ATOM      5  N   UNL d   1      14.060  13.153  -2.768  0.00  0.00    -0.259 N 
ATOM      6  C   UNL d   1      14.617  15.126  -2.033  0.00  0.00     0.204 A 
ATOM      7  N   UNL d   1      15.018  14.190  -0.744  0.00  0.00    -0.289 N 
ATOM      8  C   UNL d   1      14.261  12.681  -2.121  0.00  0.00     0.152 A 
ATOM      9  C   UNL d   1      14.933  15.467  -1.367  0.00  0.00     0.055 A 
ATOM     10  C   UNL d   1      15.135  15.005  -0.719  0.00  0.00     0.069 A 
ATOM     11  O   UNL d   1      13.978  14.434  -3.385  0.00  0.00    -0.266 OA
ATOM     12  O   UNL d   1      14.415  15.589  -2.682  0.00  0.00    -0.286 OA
ATOM     13  C   UNL d   1      15.220  13.727  -0.095  0.00  0.00     0.101 C 
ATOM     14  C   UNL d   1      14.144  11.866  -2.146  0.00  0.00     0.041 C 
ATOM     15  C   UNL d   1      15.051  16.286  -1.341  0.00  0.00     0.005 A 
ATOM     16  C   UNL d   1      15.457  15.356  -0.038  0.00  0.00     0.018 A 
ATOM     17  C   UNL d   1      15.371  16.629  -0.664  0.00  0.00     0.000 A 
ATOM     18  C   UNL d   1      15.573  16.167  -0.016  0.00  0.00     0.002 A 
ENDROOT
BRANCH   5  19
ATOM     19  C   UNL d   1      13.739  12.811  -3.448  0.00  0.00     0.068 A 
ATOM     20  C   UNL d   1      13.876  13.148  -4.194  0.00  0.00     0.020 A 
ATOM     21  C   UNL d   1      13.555  12.806  -4.875  0.00  0.00     0.031 A 
ATOM     22  C   UNL d   1      13.094  12.125  -4.820  0.00  0.00     0.140 A 
ATOM     23  C   UNL d   1      12.952  11.781  -4.074  0.00  0.00     0.031 A 
ATOM     24  F   UNL d   1      12.771  11.781  -5.502  0.00  0.00    -0.204 F 
ATOM     25  C   UNL d   1      13.277  12.129  -3.390  0.00  0.00     0.020 A 
ENDBRANCH   5  19
TORSDOF 1
ENDMDL
