MODEL 1
REMARK VINA RESULT:      -3.1      0.000      0.000
REMARK  4 active torsions:
REMARK  status: ('A' for Active; 'I' for Inactive)
REMARK       I    between atoms: C_2  and  N_1 
REMARK    1  A    between atoms: C_6  and  C_2 
REMARK       I    between atoms: C_4  and  N_7 
REMARK    2  A    between atoms: C_5  and  C_4 
REMARK       I    between atoms: N_10  and  C_5 
REMARK    3  A    between atoms: N_7  and  C_13 
REMARK    4  A    between atoms: C_19  and  N_10 
ROOT
ATOM      1  N   UNL d   1      30.964  16.778 -24.459  0.00  0.00    -0.273 N 
ATOM      2  C   UNL d   1      30.259  17.158 -24.219  0.00  0.00     0.265 C 
ATOM      3  C   UNL d   1      31.692  17.136 -24.339  0.00  0.00     0.068 A 
ATOM      4  C   UNL d   1      31.734  17.877 -23.979  0.00  0.00     0.037 A 
ATOM      5  C   UNL d   1      32.382  16.757 -24.578  0.00  0.00     0.016 A 
ATOM      6  C   UNL d   1      32.467  18.237 -23.859  0.00  0.00     0.086 A 
ATOM      7  O   UNL d   1      30.302  17.896 -23.860  0.00  0.00    -0.267 OA
ATOM      8  C   UNL d   1      33.114  17.116 -24.458  0.00  0.00     0.003 A 
ATOM      9  C   UNL d   1      30.919  16.040 -24.817  0.00  0.00     0.083 A 
ATOM     10  C   UNL d   1      33.158  17.854 -24.099  0.00  0.00     0.019 A 
ATOM     11  C   UNL d   1      31.611  15.658 -25.058  0.00  0.00     0.019 A 
ATOM     12  C   UNL d   1      32.339  16.015 -24.939  0.00  0.00     0.003 A 
ENDROOT
BRANCH   6  13
ATOM     13  N   UNL d   1      32.507  18.981 -23.497  0.00  0.00    -0.204 NA
ATOM     14  C   UNL d   1      32.795  19.048 -22.727  0.00  0.00     0.337 C 
ATOM     15  O   UNL d   1      33.044  18.374 -22.319  0.00  0.00    -0.260 OA
BRANCH  14  16
ATOM     16  C   UNL d   1      32.836  19.784 -22.364  0.00  0.00     0.337 C 
ATOM     17  N   UNL d   1      32.497  19.899 -21.621  0.00  0.00    -0.204 NA
ATOM     18  O   UNL d   1      33.218  20.410 -22.745  0.00  0.00    -0.260 OA
BRANCH  17  19
ATOM     19  C   UNL d   1      32.540  20.640 -21.258  0.00  0.00     0.085 A 
ATOM     20  C   UNL d   1      33.191  20.832 -20.802  0.00  0.00     0.019 A 
ATOM     21  C   UNL d   1      33.238  21.578 -20.435  0.00  0.00     0.002 A 
ATOM     22  C   UNL d   1      32.624  22.121 -20.534  0.00  0.00     0.000 A 
ATOM     23  C   UNL d   1      31.964  21.918 -21.000  0.00  0.00     0.002 A 
ATOM     24  C   UNL d   1      31.927  21.183 -21.357  0.00  0.00     0.019 A 
ENDBRANCH  17  19
ENDBRANCH  14  16
ENDBRANCH   6  13
BRANCH   2  25
ATOM     25  C   UNL d   1      29.528  16.795 -24.340  0.00  0.00     0.057 A 
ATOM     26  C   UNL d   1      28.795  16.436 -24.461  0.00  0.00     0.005 A 
ATOM     27  C   UNL d   1      28.833  17.208 -24.171  0.00  0.00     0.005 A 
ENDBRANCH   2  25
TORSDOF 4
ENDMDL
MODEL 2
REMARK VINA RESULT:      -1.7      1.556      5.720
REMARK  4 active torsions:
REMARK  status: ('A' for Active; 'I' for Inactive)
REMARK       I    between atoms: C_2  and  N_1 
REMARK    1  A    between atoms: C_6  and  C_2 
REMARK       I    between atoms: C_4  and  N_7 
REMARK    2  A    between atoms: C_5  and  C_4 
REMARK       I    between atoms: N_10  and  C_5 
REMARK    3  A    between atoms: N_7  and  C_13 
REMARK    4  A    between atoms: C_19  and  N_10 
ROOT
ATOM      1  N   UNL d   1      33.009  22.441 -21.228  0.00  0.00    -0.273 N 
ATOM      2  C   UNL d   1      32.976  22.031 -20.501  0.00  0.00     0.265 C 
ATOM      3  C   UNL d   1      33.082  22.033 -21.935  0.00  0.00     0.068 A 
ATOM      4  C   UNL d   1      33.124  21.209 -21.934  0.00  0.00     0.037 A 
ATOM      5  C   UNL d   1      33.114  22.443 -22.647  0.00  0.00     0.016 A 
ATOM      6  C   UNL d   1      33.198  20.798 -22.646  0.00  0.00     0.086 A 
ATOM      7  O   UNL d   1      33.018  21.210 -20.501  0.00  0.00    -0.267 OA
ATOM      8  C   UNL d   1      33.188  22.033 -23.359  0.00  0.00     0.003 A 
ATOM      9  C   UNL d   1      32.966  23.263 -21.227  0.00  0.00     0.083 A 
ATOM     10  C   UNL d   1      33.230  21.212 -23.359  0.00  0.00     0.019 A 
ATOM     11  C   UNL d   1      32.998  23.676 -21.941  0.00  0.00     0.019 A 
ATOM     12  C   UNL d   1      33.072  23.268 -22.649  0.00  0.00     0.003 A 
ENDROOT
BRANCH   6  13
ATOM     13  N   UNL d   1      33.241  19.970 -22.641  0.00  0.00    -0.204 NA
ATOM     14  C   UNL d   1      32.675  19.529 -23.049  0.00  0.00     0.337 C 
ATOM     15  O   UNL d   1      32.070  19.911 -23.460  0.00  0.00    -0.260 OA
BRANCH  14  16
ATOM     16  C   UNL d   1      32.713  18.707 -23.047  0.00  0.00     0.337 C 
ATOM     17  N   UNL d   1      32.349  18.275 -23.648  0.00  0.00    -0.204 NA
ATOM     18  O   UNL d   1      33.117  18.316 -22.443  0.00  0.00    -0.260 OA
BRANCH  17  19
ATOM     19  C   UNL d   1      32.388  17.450 -23.644  0.00  0.00     0.085 A 
ATOM     20  C   UNL d   1      32.997  17.071 -24.037  0.00  0.00     0.019 A 
ATOM     21  C   UNL d   1      33.040  16.239 -24.035  0.00  0.00     0.002 A 
ATOM     22  C   UNL d   1      32.467  15.801 -23.636  0.00  0.00     0.000 A 
ATOM     23  C   UNL d   1      31.849  16.195 -23.238  0.00  0.00     0.002 A 
ATOM     24  C   UNL d   1      31.815  17.012 -23.244  0.00  0.00     0.019 A 
ENDBRANCH  17  19
ENDBRANCH  14  16
ENDBRANCH   6  13
BRANCH   2  25
ATOM     25  C   UNL d   1      32.902  22.445 -19.791  0.00  0.00     0.057 A 
ATOM     26  C   UNL d   1      32.829  22.856 -19.079  0.00  0.00     0.005 A 
ATOM     27  C   UNL d   1      32.955  22.040 -19.073  0.00  0.00     0.005 A 
ENDBRANCH   2  25
TORSDOF 4
ENDMDL
