MODEL 1
REMARK VINA RESULT:      76.0      0.000      0.000
REMARK  9 active torsions:
REMARK  status: ('A' for Active; 'I' for Inactive)
REMARK    1  A    between atoms: P_4  and  C_1 
REMARK    2  A    between atoms: N_7  and  C_3 
REMARK    3  A    between atoms: O_10  and  P_4 
REMARK    4  A    between atoms: O_11  and  P_4 
REMARK    5  A    between atoms: C_8  and  C_5 
REMARK    6  A    between atoms: C_14  and  N_7 
REMARK    7  A    between atoms: C_21  and  O_10 
REMARK    8  A    between atoms: C_20  and  O_11 
REMARK    9  A    between atoms: C_19  and  C_14 
ROOT
ATOM      1  C   UNL d   1     -48.233  29.221  35.050  0.00  0.00     0.205 A 
ATOM      2  N   UNL d   1     -48.611  28.502  34.954  0.00  0.00    -0.211 NA
ATOM      3  C   UNL d   1     -48.492  29.743  34.469  0.00  0.00     0.209 A 
ATOM      4  C   UNL d   1     -49.098  28.570  34.327  0.00  0.00     0.184 A 
ATOM      5  O   UNL d   1     -49.044  29.322  34.012  0.00  0.00    -0.270 OA
ENDROOT
BRANCH   1   6
ATOM      6  P   UNL d   1     -47.663  29.412  35.646  0.00  0.00     0.395 P 
ATOM      7  O   UNL d   1     -48.211  29.887  36.037  0.00  0.00    -0.251 OA
BRANCH   6   8
ATOM      8  O   UNL d   1     -47.100  29.590  36.220  0.00  0.00    -0.263 OA
BRANCH   8   9
ATOM      9  C   UNL d   1     -47.305  29.939  36.919  0.00  0.00     0.126 C 
ATOM     10  C   UNL d   1     -46.856  30.537  37.214  0.00  0.00     0.029 C 
ENDBRANCH   8   9
ENDBRANCH   6   8
BRANCH   6  11
ATOM     11  O   UNL d   1     -47.115  28.921  35.233  0.00  0.00    -0.263 OA
BRANCH  11  12
ATOM     12  C   UNL d   1     -46.320  29.078  35.311  0.00  0.00     0.126 C 
ATOM     13  C   UNL d   1     -45.811  28.670  34.811  0.00  0.00     0.029 C 
ENDBRANCH  11  12
ENDBRANCH   6  11
ENDBRANCH   1   6
BRANCH   3  14
ATOM     14  N   UNL d   1     -48.187  30.526  34.444  0.00  0.00    -0.219 NA
BRANCH  14  15
ATOM     15  C   UNL d   1     -48.452  31.051  33.860  0.00  0.00     0.101 C 
BRANCH  15  16
ATOM     16  C   UNL d   1     -48.171  31.829  33.852  0.00  0.00     0.019 A 
ATOM     17  C   UNL d   1     -47.380  31.994  33.617  0.00  0.00     0.002 A 
ATOM     18  C   UNL d   1     -47.112  32.766  33.613  0.00  0.00     0.000 A 
ATOM     19  C   UNL d   1     -47.609  33.401  33.838  0.00  0.00     0.000 A 
ATOM     20  C   UNL d   1     -48.409  33.232  34.076  0.00  0.00     0.000 A 
ATOM     21  C   UNL d   1     -48.665  32.442  34.074  0.00  0.00     0.002 A 
ENDBRANCH  15  16
ENDBRANCH  14  15
ENDBRANCH   3  14
BRANCH   4  22
ATOM     22  C   UNL d   1     -49.574  27.949  34.064  0.00  0.00     0.042 A 
ATOM     23  C   UNL d   1     -50.255  28.087  33.631  0.00  0.00     0.006 A 
ATOM     24  C   UNL d   1     -50.717  27.461  33.377  0.00  0.00     0.030 A 
ATOM     25  C   UNL d   1     -50.511  26.677  33.548  0.00  0.00     0.140 A 
ATOM     26  C   UNL d   1     -49.806  26.526  33.996  0.00  0.00     0.030 A 
ATOM     27  F   UNL d   1     -50.954  26.030  33.307  0.00  0.00    -0.204 F 
ATOM     28  C   UNL d   1     -49.348  27.162  34.247  0.00  0.00     0.006 A 
ENDBRANCH   4  22
TORSDOF 9
ENDMDL
MODEL 2
REMARK VINA RESULT:      77.6      2.877      5.557
REMARK  9 active torsions:
REMARK  status: ('A' for Active; 'I' for Inactive)
REMARK    1  A    between atoms: P_4  and  C_1 
REMARK    2  A    between atoms: N_7  and  C_3 
REMARK    3  A    between atoms: O_10  and  P_4 
REMARK    4  A    between atoms: O_11  and  P_4 
REMARK    5  A    between atoms: C_8  and  C_5 
REMARK    6  A    between atoms: C_14  and  N_7 
REMARK    7  A    between atoms: C_21  and  O_10 
REMARK    8  A    between atoms: C_20  and  O_11 
REMARK    9  A    between atoms: C_19  and  C_14 
ROOT
ATOM      1  C   UNL d   1     -49.748  27.257  34.794  0.00  0.00     0.205 A 
ATOM      2  N   UNL d   1     -49.169  27.803  34.603  0.00  0.00    -0.211 NA
ATOM      3  C   UNL d   1     -49.913  27.307  35.599  0.00  0.00     0.209 A 
ATOM      4  C   UNL d   1     -48.975  28.189  35.273  0.00  0.00     0.184 A 
ATOM      5  O   UNL d   1     -49.417  27.902  35.898  0.00  0.00    -0.270 OA
ENDROOT
BRANCH   1   6
ATOM      6  P   UNL d   1     -50.125  26.720  34.260  0.00  0.00     0.395 P 
ATOM      7  O   UNL d   1     -49.571  26.135  34.435  0.00  0.00    -0.251 OA
BRANCH   6   8
ATOM      8  O   UNL d   1     -50.501  26.206  33.736  0.00  0.00    -0.263 OA
BRANCH   8   9
ATOM      9  C   UNL d   1     -50.105  25.596  33.386  0.00  0.00     0.126 C 
ATOM     10  C   UNL d   1     -50.461  24.880  33.306  0.00  0.00     0.029 C 
ENDBRANCH   8   9
ENDBRANCH   6   8
BRANCH   6  11
ATOM     11  O   UNL d   1     -50.683  27.329  34.092  0.00  0.00    -0.263 OA
BRANCH  11  12
ATOM     12  C   UNL d   1     -51.091  27.298  33.388  0.00  0.00     0.126 C 
ATOM     13  C   UNL d   1     -51.734  27.804  33.309  0.00  0.00     0.029 C 
ENDBRANCH  11  12
ENDBRANCH   6  11
ENDBRANCH   1   6
BRANCH   3  14
ATOM     14  N   UNL d   1     -50.492  26.801  35.939  0.00  0.00    -0.219 NA
BRANCH  14  15
ATOM     15  C   UNL d   1     -51.059  27.115  36.455  0.00  0.00     0.101 C 
BRANCH  15  16
ATOM     16  C   UNL d   1     -51.273  26.693  37.133  0.00  0.00     0.019 A 
ATOM     17  C   UNL d   1     -50.881  26.834  37.865  0.00  0.00     0.002 A 
ATOM     18  C   UNL d   1     -51.100  26.411  38.529  0.00  0.00     0.000 A 
ATOM     19  C   UNL d   1     -51.709  25.838  38.499  0.00  0.00     0.000 A 
ATOM     20  C   UNL d   1     -52.104  25.696  37.759  0.00  0.00     0.000 A 
ATOM     21  C   UNL d   1     -51.869  26.134  37.094  0.00  0.00     0.002 A 
ENDBRANCH  15  16
ENDBRANCH  14  15
ENDBRANCH   3  14
BRANCH   4  22
ATOM     22  C   UNL d   1     -48.404  28.785  35.294  0.00  0.00     0.042 A 
ATOM     23  C   UNL d   1     -48.299  29.296  34.663  0.00  0.00     0.006 A 
ATOM     24  C   UNL d   1     -47.729  29.883  34.697  0.00  0.00     0.030 A 
ATOM     25  C   UNL d   1     -47.247  29.975  35.365  0.00  0.00     0.140 A 
ATOM     26  C   UNL d   1     -47.350  29.448  36.022  0.00  0.00     0.030 A 
ATOM     27  F   UNL d   1     -46.668  30.553  35.428  0.00  0.00    -0.204 F 
ATOM     28  C   UNL d   1     -47.925  28.862  35.978  0.00  0.00     0.006 A 
ENDBRANCH   4  22
TORSDOF 9
ENDMDL
