MODEL 1
REMARK VINA RESULT:      73.0      0.000      0.000
REMARK  3 active torsions:
REMARK  status: ('A' for Active; 'I' for Inactive)
REMARK    1  A    between atoms: C_11  and  C_3 
REMARK       I    between atoms: C_7  and  N_9 
REMARK    2  A    between atoms: C_8  and  C_7 
REMARK    3  A    between atoms: N_9  and  C_13 
ROOT
ATOM      1  C   UNL d   1     -50.730  24.951  33.476  0.00  0.00     0.021 A 
ATOM      2  C   UNL d   1     -49.838  26.041  33.718  0.00  0.00     0.085 A 
ATOM      3  C   UNL d   1     -50.606  25.741  33.681  0.00  0.00     0.021 A 
ATOM      4  C   UNL d   1     -50.087  24.462  33.308  0.00  0.00     0.002 A 
ATOM      5  C   UNL d   1     -49.319  24.763  33.344  0.00  0.00     0.002 A 
ATOM      6  C   UNL d   1     -49.194  25.553  33.549  0.00  0.00     0.019 A 
ENDROOT
BRANCH   2   7
ATOM      7  N   UNL d   1     -49.714  26.826  33.922  0.00  0.00    -0.207 NA
ATOM      8  C   UNL d   1     -48.955  27.111  34.022  0.00  0.00     0.297 C 
ATOM      9  O   UNL d   1     -48.302  26.605  33.918  0.00  0.00    -0.264 OA
BRANCH   8  10
ATOM     10  C   UNL d   1     -48.830  27.901  34.227  0.00  0.00     0.139 A 
ATOM     11  N   UNL d   1     -48.227  28.104  34.741  0.00  0.00    -0.241 NA
ATOM     12  C   UNL d   1     -48.103  28.893  34.946  0.00  0.00     0.082 A 
ATOM     13  C   UNL d   1     -47.493  29.093  35.464  0.00  0.00     0.019 A 
ATOM     14  C   UNL d   1     -48.582  29.479  34.637  0.00  0.00     0.018 A 
ATOM     15  C   UNL d   1     -47.369  29.883  35.669  0.00  0.00     0.002 A 
ATOM     16  C   UNL d   1     -47.854  30.472  35.356  0.00  0.00     0.000 A 
ATOM     17  C   UNL d   1     -48.458  30.269  34.842  0.00  0.00     0.002 A 
ATOM     18  C   UNL d   1     -49.199  29.282  34.113  0.00  0.00     0.003 A 
ATOM     19  C   UNL d   1     -49.323  28.493  33.908  0.00  0.00     0.024 A 
ENDBRANCH   8  10
ENDBRANCH   2   7
BRANCH   1  20
ATOM     20  C   UNL d   1     -51.498  24.650  33.440  0.00  0.00     0.101 A 
ATOM     21  N   UNL d   1     -51.739  23.862  33.370  0.00  0.00    -0.221 NA
ATOM     22  C   UNL d   1     -52.552  23.857  33.358  0.00  0.00     0.179 A 
ATOM     23  N   UNL d   1     -52.823  24.632  33.419  0.00  0.00    -0.282 N 
ATOM     24  S   UNL d   1     -53.206  23.367  33.307  0.00  0.00    -0.048 SA
ATOM     25  C   UNL d   1     -52.166  25.127  33.470  0.00  0.00     0.101 A 
ATOM     26  C   UNL d   1     -53.655  24.610  33.405  0.00  0.00     0.089 A 
ATOM     27  C   UNL d   1     -53.882  23.833  33.337  0.00  0.00     0.057 A 
ENDBRANCH   1  20
TORSDOF 3
ENDMDL
MODEL 2
REMARK VINA RESULT:      73.5      1.262      1.978
REMARK  3 active torsions:
REMARK  status: ('A' for Active; 'I' for Inactive)
REMARK    1  A    between atoms: C_11  and  C_3 
REMARK       I    between atoms: C_7  and  N_9 
REMARK    2  A    between atoms: C_8  and  C_7 
REMARK    3  A    between atoms: N_9  and  C_13 
ROOT
ATOM      1  C   UNL d   1     -50.933  26.530  33.493  0.00  0.00     0.021 A 
ATOM      2  C   UNL d   1     -50.288  27.774  33.772  0.00  0.00     0.085 A 
ATOM      3  C   UNL d   1     -50.263  26.951  33.725  0.00  0.00     0.021 A 
ATOM      4  C   UNL d   1     -51.630  26.934  33.308  0.00  0.00     0.002 A 
ATOM      5  C   UNL d   1     -51.655  27.758  33.355  0.00  0.00     0.002 A 
ATOM      6  C   UNL d   1     -50.984  28.178  33.587  0.00  0.00     0.019 A 
ENDROOT
BRANCH   2   7
ATOM      7  N   UNL d   1     -49.620  28.193  34.003  0.00  0.00    -0.207 NA
ATOM      8  C   UNL d   1     -49.171  27.934  34.635  0.00  0.00     0.297 C 
ATOM      9  O   UNL d   1     -49.388  27.244  35.048  0.00  0.00    -0.264 OA
BRANCH   8  10
ATOM     10  C   UNL d   1     -48.500  28.355  34.867  0.00  0.00     0.139 A 
ATOM     11  N   UNL d   1     -48.574  29.089  35.219  0.00  0.00    -0.241 NA
ATOM     12  C   UNL d   1     -47.903  29.510  35.451  0.00  0.00     0.082 A 
ATOM     13  C   UNL d   1     -47.983  30.250  35.806  0.00  0.00     0.019 A 
ATOM     14  C   UNL d   1     -47.158  29.195  35.331  0.00  0.00     0.018 A 
ATOM     15  C   UNL d   1     -47.312  30.671  36.038  0.00  0.00     0.002 A 
ATOM     16  C   UNL d   1     -46.561  30.350  35.915  0.00  0.00     0.000 A 
ATOM     17  C   UNL d   1     -46.487  29.616  35.563  0.00  0.00     0.002 A 
ATOM     18  C   UNL d   1     -47.073  28.448  34.973  0.00  0.00     0.003 A 
ATOM     19  C   UNL d   1     -47.743  28.028  34.741  0.00  0.00     0.024 A 
ENDBRANCH   8  10
ENDBRANCH   2   7
BRANCH   1  20
ATOM     20  C   UNL d   1     -50.909  25.706  33.446  0.00  0.00     0.101 A 
ATOM     21  N   UNL d   1     -50.246  25.213  33.391  0.00  0.00    -0.221 NA
ATOM     22  C   UNL d   1     -50.517  24.448  33.359  0.00  0.00     0.179 A 
ATOM     23  N   UNL d   1     -51.340  24.454  33.393  0.00  0.00    -0.282 N 
ATOM     24  S   UNL d   1     -50.275  23.667  33.306  0.00  0.00    -0.048 SA
ATOM     25  C   UNL d   1     -51.584  25.239  33.447  0.00  0.00     0.101 A 
ATOM     26  C   UNL d   1     -51.599  23.664  33.359  0.00  0.00     0.089 A 
ATOM     27  C   UNL d   1     -50.943  23.188  33.306  0.00  0.00     0.057 A 
ENDBRANCH   1  20
TORSDOF 3
ENDMDL
MODEL 3
REMARK VINA RESULT:      74.6      2.783      6.410
REMARK  3 active torsions:
REMARK  status: ('A' for Active; 'I' for Inactive)
REMARK    1  A    between atoms: C_11  and  C_3 
REMARK       I    between atoms: C_7  and  N_9 
REMARK    2  A    between atoms: C_8  and  C_7 
REMARK    3  A    between atoms: N_9  and  C_13 
ROOT
ATOM      1  C   UNL d   1     -47.766  30.485  35.015  0.00  0.00     0.021 A 
ATOM      2  C   UNL d   1     -48.404  29.208  35.059  0.00  0.00     0.085 A 
ATOM      3  C   UNL d   1     -48.361  29.975  34.758  0.00  0.00     0.021 A 
ATOM      4  C   UNL d   1     -47.214  30.229  35.573  0.00  0.00     0.002 A 
ATOM      5  C   UNL d   1     -47.258  29.461  35.873  0.00  0.00     0.002 A 
ATOM      6  C   UNL d   1     -47.853  28.950  35.617  0.00  0.00     0.019 A 
ENDROOT
BRANCH   2   7
ATOM      7  N   UNL d   1     -48.996  28.700  34.804  0.00  0.00    -0.207 NA
ATOM      8  C   UNL d   1     -48.812  28.049  34.345  0.00  0.00     0.297 C 
ATOM      9  O   UNL d   1     -48.020  27.898  34.134  0.00  0.00    -0.264 OA
BRANCH   8  10
ATOM     10  C   UNL d   1     -49.407  27.539  34.088  0.00  0.00     0.139 A 
ATOM     11  N   UNL d   1     -49.281  26.731  34.076  0.00  0.00    -0.241 NA
ATOM     12  C   UNL d   1     -49.876  26.220  33.819  0.00  0.00     0.082 A 
ATOM     13  C   UNL d   1     -49.744  25.406  33.808  0.00  0.00     0.019 A 
ATOM     14  C   UNL d   1     -50.597  26.518  33.575  0.00  0.00     0.018 A 
ATOM     15  C   UNL d   1     -50.339  24.895  33.551  0.00  0.00     0.002 A 
ATOM     16  C   UNL d   1     -51.067  25.200  33.306  0.00  0.00     0.000 A 
ATOM     17  C   UNL d   1     -51.192  26.008  33.318  0.00  0.00     0.002 A 
ATOM     18  C   UNL d   1     -50.735  27.340  33.585  0.00  0.00     0.003 A 
ATOM     19  C   UNL d   1     -50.139  27.850  33.841  0.00  0.00     0.024 A 
ENDBRANCH   8  10
ENDBRANCH   2   7
BRANCH   1  20
ATOM     20  C   UNL d   1     -47.722  31.253  34.714  0.00  0.00     0.101 A 
ATOM     21  N   UNL d   1     -47.248  31.881  34.971  0.00  0.00    -0.221 NA
ATOM     22  C   UNL d   1     -47.410  32.517  34.494  0.00  0.00     0.179 A 
ATOM     23  N   UNL d   1     -47.980  32.298  33.941  0.00  0.00    -0.282 N 
ATOM     24  S   UNL d   1     -47.217  33.302  34.356  0.00  0.00    -0.048 SA
ATOM     25  C   UNL d   1     -48.174  31.509  34.079  0.00  0.00     0.101 A 
ATOM     26  C   UNL d   1     -48.134  32.961  33.461  0.00  0.00     0.089 A 
ATOM     27  C   UNL d   1     -47.664  33.571  33.721  0.00  0.00     0.057 A 
ENDBRANCH   1  20
TORSDOF 3
ENDMDL
