MODEL 1
REMARK VINA RESULT:      -1.6      0.000      0.000
REMARK  5 active torsions:
REMARK  status: ('A' for Active; 'I' for Inactive)
REMARK    1  A    between atoms: N_9  and  C_3 
REMARK    2  A    between atoms: C_13  and  C_5 
REMARK    3  A    between atoms: C_12  and  N_10 
REMARK    4  A    between atoms: C_20  and  C_11 
REMARK    5  A    between atoms: C_25  and  C_20 
ROOT
ATOM      1  N   UNL d   1      33.226  20.768 -21.371  0.00  0.00    -0.196 N 
ATOM      2  C   UNL d   1      33.228  21.501 -20.992  0.00  0.00     0.167 A 
ATOM      3  C   UNL d   1      33.226  20.754 -22.177  0.00  0.00     0.152 A 
ATOM      4  N   UNL d   1      33.227  20.125 -20.126  0.00  0.00    -0.163 NA
ATOM      5  C   UNL d   1      33.228  21.538 -20.194  0.00  0.00     0.055 A 
ATOM      6  C   UNL d   1      33.228  20.858 -19.748  0.00  0.00     0.104 A 
ATOM      7  N   UNL d   1      33.228  22.181 -21.439  0.00  0.00    -0.227 NA
ATOM      8  C   UNL d   1      33.226  21.415 -22.623  0.00  0.00     0.057 A 
ATOM      9  C   UNL d   1      33.227  22.148 -22.244  0.00  0.00     0.086 A 
ATOM     10  C   UNL d   1      33.229  20.888 -18.944  0.00  0.00     0.023 C 
ENDROOT
BRANCH   3  11
ATOM     11  N   UNL d   1      33.225  19.998 -22.567  0.00  0.00    -0.286 N 
ATOM     12  C   UNL d   1      33.241  19.953 -23.407  0.00  0.00     0.101 A 
ATOM     13  C   UNL d   1      33.240  19.197 -23.798  0.00  0.00     0.101 A 
ATOM     14  N   UNL d   1      33.222  18.487 -23.348  0.00  0.00    -0.286 N 
ATOM     15  C   UNL d   1      33.206  18.523 -22.493  0.00  0.00     0.101 A 
ATOM     16  C   UNL d   1      33.207  19.279 -22.103  0.00  0.00     0.101 A 
BRANCH  14  17
ATOM     17  C   UNL d   1      33.221  17.734 -23.737  0.00  0.00     0.148 A 
ATOM     18  N   UNL d   1      33.208  17.705 -24.589  0.00  0.00    -0.227 NA
ATOM     19  C   UNL d   1      33.207  16.953 -24.977  0.00  0.00     0.101 A 
ATOM     20  C   UNL d   1      33.219  16.235 -24.512  0.00  0.00     0.021 A 
ATOM     21  C   UNL d   1      33.231  16.275 -23.674  0.00  0.00     0.005 A 
ATOM     22  C   UNL d   1      33.233  17.030 -23.284  0.00  0.00     0.037 A 
ENDBRANCH  14  17
ENDBRANCH   3  11
BRANCH   9  23
ATOM     23  C   UNL d   1      33.228  22.860 -22.704  0.00  0.00     0.019 C 
BRANCH  23  24
ATOM     24  C   UNL d   1      32.784  22.908 -23.432  0.00  0.00     0.002 C 
ATOM     25  C   UNL d   1      32.702  23.642 -23.831  0.00  0.00     0.000 C 
ENDBRANCH  23  24
ENDBRANCH   9  23
BRANCH   5  26
ATOM     26  C   UNL d   1      33.229  22.260 -19.822  0.00  0.00     0.004 A 
ATOM     27  C   UNL d   1      33.220  22.289 -19.008  0.00  0.00     0.000 A 
ATOM     28  C   UNL d   1      33.221  23.022 -18.629  0.00  0.00     0.000 A 
ATOM     29  C   UNL d   1      33.232  23.702 -19.076  0.00  0.00     0.000 A 
ATOM     30  C   UNL d   1      33.241  23.660 -19.891  0.00  0.00     0.000 A 
ATOM     31  C   UNL d   1      33.240  22.939 -20.264  0.00  0.00     0.000 A 
ENDBRANCH   5  26
TORSDOF 5
ENDMDL
MODEL 2
REMARK VINA RESULT:      -1.5      0.846      1.004
REMARK  5 active torsions:
REMARK  status: ('A' for Active; 'I' for Inactive)
REMARK    1  A    between atoms: N_9  and  C_3 
REMARK    2  A    between atoms: C_13  and  C_5 
REMARK    3  A    between atoms: C_12  and  N_10 
REMARK    4  A    between atoms: C_20  and  C_11 
REMARK    5  A    between atoms: C_25  and  C_20 
ROOT
ATOM      1  N   UNL d   1      32.591  20.584 -21.753  0.00  0.00    -0.196 N 
ATOM      2  C   UNL d   1      32.559  21.346 -21.439  0.00  0.00     0.167 A 
ATOM      3  C   UNL d   1      32.567  20.500 -22.554  0.00  0.00     0.152 A 
ATOM      4  N   UNL d   1      32.669  20.053 -20.459  0.00  0.00    -0.163 NA
ATOM      5  C   UNL d   1      32.582  21.452 -20.647  0.00  0.00     0.055 A 
ATOM      6  C   UNL d   1      32.637  20.815 -20.145  0.00  0.00     0.104 A 
ATOM      7  N   UNL d   1      32.504  21.984 -21.941  0.00  0.00    -0.227 NA
ATOM      8  C   UNL d   1      32.513  21.119 -23.055  0.00  0.00     0.057 A 
ATOM      9  C   UNL d   1      32.481  21.881 -22.740  0.00  0.00     0.086 A 
ATOM     10  C   UNL d   1      32.660  20.914 -19.347  0.00  0.00     0.023 C 
ENDROOT
BRANCH   3  11
ATOM     11  N   UNL d   1      32.600  19.714 -22.879  0.00  0.00    -0.286 N 
ATOM     12  C   UNL d   1      32.751  19.598 -23.699  0.00  0.00     0.101 A 
ATOM     13  C   UNL d   1      32.785  18.812 -24.023  0.00  0.00     0.101 A 
ATOM     14  N   UNL d   1      32.667  18.143 -23.528  0.00  0.00    -0.286 N 
ATOM     15  C   UNL d   1      32.513  18.251 -22.693  0.00  0.00     0.101 A 
ATOM     16  C   UNL d   1      32.479  19.037 -22.368  0.00  0.00     0.101 A 
BRANCH  14  17
ATOM     17  C   UNL d   1      32.700  17.360 -23.851  0.00  0.00     0.148 A 
ATOM     18  N   UNL d   1      33.146  16.760 -23.444  0.00  0.00    -0.227 NA
ATOM     19  C   UNL d   1      33.179  15.978 -23.767  0.00  0.00     0.101 A 
ATOM     20  C   UNL d   1      32.766  15.802 -24.495  0.00  0.00     0.021 A 
ATOM     21  C   UNL d   1      32.330  16.401 -24.888  0.00  0.00     0.005 A 
ATOM     22  C   UNL d   1      32.297  17.186 -24.564  0.00  0.00     0.037 A 
ENDBRANCH  14  17
ENDBRANCH   3  11
BRANCH   9  23
ATOM     23  C   UNL d   1      32.424  22.548 -23.258  0.00  0.00     0.019 C 
BRANCH  23  24
ATOM     24  C   UNL d   1      33.108  22.827 -23.687  0.00  0.00     0.002 C 
ATOM     25  C   UNL d   1      33.148  22.743 -24.521  0.00  0.00     0.000 C 
ENDBRANCH  23  24
ENDBRANCH   9  23
BRANCH   5  26
ATOM     26  C   UNL d   1      32.550  22.202 -20.338  0.00  0.00     0.004 A 
ATOM     27  C   UNL d   1      33.238  22.566 -20.098  0.00  0.00     0.000 A 
ATOM     28  C   UNL d   1      33.206  23.328 -19.783  0.00  0.00     0.000 A 
ATOM     29  C   UNL d   1      32.487  23.702 -19.718  0.00  0.00     0.000 A 
ATOM     30  C   UNL d   1      31.803  23.328 -19.962  0.00  0.00     0.000 A 
ATOM     31  C   UNL d   1      31.835  22.578 -20.271  0.00  0.00     0.000 A 
ENDBRANCH   5  26
TORSDOF 5
ENDMDL
