MODEL 1
REMARK VINA RESULT:      -6.6      0.000      0.000
REMARK  1 active torsions:
REMARK  status: ('A' for Active; 'I' for Inactive)
REMARK    1  A    between atoms: C_5  and  C_8 
ROOT
ATOM      1  C   UNL d   1     -41.607-121.943 -53.352  0.00  0.00     0.084 A 
ATOM      2  C   UNL d   1     -41.484-122.745 -53.215  0.00  0.00     0.057 A 
ATOM      3  N   UNL d   1     -41.489-121.399 -52.747  0.00  0.00    -0.245 NA
ATOM      4  C   UNL d   1     -41.244-123.013 -52.477  0.00  0.00     0.199 A 
ATOM      5  C   UNL d   1     -41.124-122.469 -51.867  0.00  0.00     0.061 A 
ATOM      6  C   UNL d   1     -41.247-121.667 -52.004  0.00  0.00     0.085 A 
ATOM      7  C   UNL d   1     -41.967-122.223 -54.703  0.00  0.00     0.073 A 
ATOM      8  C   UNL d   1     -41.849-121.680 -54.098  0.00  0.00     0.023 A 
ATOM      9  C   UNL d   1     -41.603-123.289 -53.824  0.00  0.00     0.005 A 
ATOM     10  O   UNL d   1     -41.123-123.817 -52.348  0.00  0.00    -0.286 OA
ATOM     11  C   UNL d   1     -41.844-123.030 -54.565  0.00  0.00     0.004 A 
ATOM     12  C   UNL d   1     -41.127-121.122 -51.392  0.00  0.00     0.021 C 
ENDROOT
BRANCH   7  13
ATOM     13  C   UNL d   1     -42.209-121.966 -55.452  0.00  0.00     0.419 C 
ATOM     14  F   UNL d   1     -42.426-121.732 -56.130  0.00  0.00    -0.166 F 
ATOM     15  F   UNL d   1     -42.979-122.046 -55.829  0.00  0.00    -0.166 F 
ATOM     16  F   UNL d   1     -41.757-121.550 -56.052  0.00  0.00    -0.166 F 
ENDBRANCH   7  13
TORSDOF 1
ENDMDL
MODEL 2
REMARK VINA RESULT:      -5.7      2.370      3.210
REMARK  1 active torsions:
REMARK  status: ('A' for Active; 'I' for Inactive)
REMARK    1  A    between atoms: C_5  and  C_8 
ROOT
ATOM      1  C   UNL d   1     -41.864-122.034 -53.618  0.00  0.00     0.084 A 
ATOM      2  C   UNL d   1     -41.498-122.759 -53.753  0.00  0.00     0.057 A 
ATOM      3  N   UNL d   1     -42.229-121.635 -54.237  0.00  0.00    -0.245 NA
ATOM      4  C   UNL d   1     -41.492-123.091 -54.504  0.00  0.00     0.199 A 
ATOM      5  C   UNL d   1     -41.858-122.693 -55.128  0.00  0.00     0.061 A 
ATOM      6  C   UNL d   1     -42.223-121.968 -54.992  0.00  0.00     0.085 A 
ATOM      7  C   UNL d   1     -41.502-122.104 -52.240  0.00  0.00     0.073 A 
ATOM      8  C   UNL d   1     -41.866-121.705 -52.859  0.00  0.00     0.023 A 
ATOM      9  C   UNL d   1     -41.133-123.158 -53.131  0.00  0.00     0.005 A 
ATOM     10  O   UNL d   1     -41.124-123.817 -54.632  0.00  0.00    -0.286 OA
ATOM     11  C   UNL d   1     -41.134-122.833 -52.377  0.00  0.00     0.004 A 
ATOM     12  C   UNL d   1     -42.590-121.568 -55.619  0.00  0.00     0.021 C 
ENDROOT
BRANCH   7  13
ATOM     13  C   UNL d   1     -41.501-121.779 -51.478  0.00  0.00     0.419 C 
ATOM     14  F   UNL d   1     -41.499-121.483 -50.790  0.00  0.00    -0.166 F 
ATOM     15  F   UNL d   1     -41.813-122.111 -50.748  0.00  0.00    -0.166 F 
ATOM     16  F   UNL d   1     -41.189-121.023 -51.214  0.00  0.00    -0.166 F 
ENDBRANCH   7  13
TORSDOF 1
ENDMDL
MODEL 3
REMARK VINA RESULT:      -4.8      3.460      4.401
REMARK  1 active torsions:
REMARK  status: ('A' for Active; 'I' for Inactive)
REMARK    1  A    between atoms: C_5  and  C_8 
ROOT
ATOM      1  C   UNL d   1     -41.522-123.249 -51.501  0.00  0.00     0.084 A 
ATOM      2  C   UNL d   1     -41.420-122.434 -51.545  0.00  0.00     0.057 A 
ATOM      3  N   UNL d   1     -41.425-123.713 -52.172  0.00  0.00    -0.245 NA
ATOM      4  C   UNL d   1     -41.222-122.074 -52.256  0.00  0.00     0.199 A 
ATOM      5  C   UNL d   1     -41.125-122.537 -52.932  0.00  0.00     0.061 A 
ATOM      6  C   UNL d   1     -41.226-123.353 -52.888  0.00  0.00     0.085 A 
ATOM      7  C   UNL d   1     -41.817-123.142 -50.110  0.00  0.00     0.073 A 
ATOM      8  C   UNL d   1     -41.721-123.605 -50.781  0.00  0.00     0.023 A 
ATOM      9  C   UNL d   1     -41.518-121.970 -50.870  0.00  0.00     0.005 A 
ATOM     10  O   UNL d   1     -41.123-121.257 -52.292  0.00  0.00    -0.286 OA
ATOM     11  C   UNL d   1     -41.715-122.322 -50.154  0.00  0.00     0.004 A 
ATOM     12  C   UNL d   1     -41.128-123.818 -53.567  0.00  0.00     0.021 C 
ENDROOT
BRANCH   7  13
ATOM     13  C   UNL d   1     -42.017-123.493 -49.387  0.00  0.00     0.419 C 
ATOM     14  F   UNL d   1     -42.195-123.810 -48.732  0.00  0.00    -0.166 F 
ATOM     15  F   UNL d   1     -42.796-123.675 -49.070  0.00  0.00    -0.166 F 
ATOM     16  F   UNL d   1     -41.499-123.768 -48.759  0.00  0.00    -0.166 F 
ENDBRANCH   7  13
TORSDOF 1
ENDMDL
MODEL 4
REMARK VINA RESULT:      -4.8      1.496      1.948
REMARK  1 active torsions:
REMARK  status: ('A' for Active; 'I' for Inactive)
REMARK    1  A    between atoms: C_5  and  C_8 
ROOT
ATOM      1  C   UNL d   1     -41.428-123.037 -52.353  0.00  0.00     0.084 A 
ATOM      2  C   UNL d   1     -41.304-122.237 -52.201  0.00  0.00     0.057 A 
ATOM      3  N   UNL d   1     -41.515-123.566 -51.730  0.00  0.00    -0.245 NA
ATOM      4  C   UNL d   1     -41.265-121.958 -51.430  0.00  0.00     0.199 A 
ATOM      5  C   UNL d   1     -41.352-122.488 -50.802  0.00  0.00     0.061 A 
ATOM      6  C   UNL d   1     -41.476-123.287 -50.954  0.00  0.00     0.085 A 
ATOM      7  C   UNL d   1     -41.378-122.783 -53.755  0.00  0.00     0.073 A 
ATOM      8  C   UNL d   1     -41.465-123.311 -53.132  0.00  0.00     0.023 A 
ATOM      9  C   UNL d   1     -41.217-121.708 -52.828  0.00  0.00     0.005 A 
ATOM     10  O   UNL d   1     -41.141-121.157 -51.285  0.00  0.00    -0.286 OA
ATOM     11  C   UNL d   1     -41.253-121.979 -53.602  0.00  0.00     0.004 A 
ATOM     12  C   UNL d   1     -41.564-123.817 -50.323  0.00  0.00     0.021 C 
ENDROOT
BRANCH   7  13
ATOM     13  C   UNL d   1     -41.415-123.052 -54.538  0.00  0.00     0.419 C 
ATOM     14  F   UNL d   1     -41.449-123.292 -55.246  0.00  0.00    -0.166 F 
ATOM     15  F   UNL d   1     -41.134-123.795 -54.869  0.00  0.00    -0.166 F 
ATOM     16  F   UNL d   1     -41.743-122.660 -55.228  0.00  0.00    -0.166 F 
ENDBRANCH   7  13
TORSDOF 1
ENDMDL
MODEL 5
REMARK VINA RESULT:      -4.0      3.862      4.701
REMARK  1 active torsions:
REMARK  status: ('A' for Active; 'I' for Inactive)
REMARK    1  A    between atoms: C_5  and  C_8 
ROOT
ATOM      1  C   UNL d   1     -41.812-122.382 -50.438  0.00  0.00     0.084 A 
ATOM      2  C   UNL d   1     -41.637-123.093 -50.813  0.00  0.00     0.057 A 
ATOM      3  N   UNL d   1     -41.642-121.668 -50.809  0.00  0.00    -0.245 NA
ATOM      4  C   UNL d   1     -41.294-123.101 -51.558  0.00  0.00     0.199 A 
ATOM      5  C   UNL d   1     -41.123-122.386 -51.934  0.00  0.00     0.061 A 
ATOM      6  C   UNL d   1     -41.297-121.674 -51.559  0.00  0.00     0.085 A 
ATOM      7  C   UNL d   1     -42.327-123.094 -49.315  0.00  0.00     0.073 A 
ATOM      8  C   UNL d   1     -42.157-122.381 -49.686  0.00  0.00     0.023 A 
ATOM      9  C   UNL d   1     -41.808-123.808 -50.438  0.00  0.00     0.005 A 
ATOM     10  O   UNL d   1     -41.123-123.817 -51.928  0.00  0.00    -0.286 OA
ATOM     11  C   UNL d   1     -42.151-123.810 -49.692  0.00  0.00     0.004 A 
ATOM     12  C   UNL d   1     -41.125-120.957 -51.936  0.00  0.00     0.021 C 
ENDROOT
BRANCH   7  13
ATOM     13  C   UNL d   1     -42.673-123.099 -48.562  0.00  0.00     0.419 C 
ATOM     14  F   UNL d   1     -42.984-123.104 -47.881  0.00  0.00    -0.166 F 
ATOM     15  F   UNL d   1     -43.454-123.374 -48.328  0.00  0.00    -0.166 F 
ATOM     16  F   UNL d   1     -42.344-122.833 -47.815  0.00  0.00    -0.166 F 
ENDBRANCH   7  13
TORSDOF 1
ENDMDL
MODEL 6
REMARK VINA RESULT:      -3.8      3.367      4.136
REMARK  1 active torsions:
REMARK  status: ('A' for Active; 'I' for Inactive)
REMARK    1  A    between atoms: C_5  and  C_8 
ROOT
ATOM      1  C   UNL d   1     -41.691-122.879 -49.520  0.00  0.00     0.084 A 
ATOM      2  C   UNL d   1     -42.508-122.975 -49.496  0.00  0.00     0.057 A 
ATOM      3  N   UNL d   1     -41.228-123.132 -48.890  0.00  0.00    -0.245 NA
ATOM      4  C   UNL d   1     -42.870-123.323 -48.846  0.00  0.00     0.199 A 
ATOM      5  C   UNL d   1     -42.407-123.577 -48.212  0.00  0.00     0.061 A 
ATOM      6  C   UNL d   1     -41.590-123.481 -48.236  0.00  0.00     0.085 A 
ATOM      7  C   UNL d   1     -41.795-122.276 -50.808  0.00  0.00     0.073 A 
ATOM      8  C   UNL d   1     -41.333-122.529 -50.178  0.00  0.00     0.023 A 
ATOM      9  C   UNL d   1     -42.971-122.721 -50.130  0.00  0.00     0.005 A 
ATOM     10  O   UNL d   1     -43.689-123.416 -48.829  0.00  0.00    -0.286 OA
ATOM     11  C   UNL d   1     -42.617-122.373 -50.784  0.00  0.00     0.004 A 
ATOM     12  C   UNL d   1     -41.126-123.737 -47.599  0.00  0.00     0.021 C 
ENDROOT
BRANCH   7  13
ATOM     13  C   UNL d   1     -41.442-121.924 -51.469  0.00  0.00     0.419 C 
ATOM     14  F   UNL d   1     -41.123-121.608 -52.069  0.00  0.00    -0.166 F 
ATOM     15  F   UNL d   1     -41.143-121.123 -51.561  0.00  0.00    -0.166 F 
ATOM     16  F   UNL d   1     -41.280-122.266 -52.241  0.00  0.00    -0.166 F 
ENDBRANCH   7  13
TORSDOF 1
ENDMDL
