MODEL 1
REMARK VINA RESULT:      -0.4      0.000      0.000
REMARK  6 active torsions:
REMARK  status: ('A' for Active; 'I' for Inactive)
REMARK    1  A    between atoms: N_2  and  S_1 
REMARK    2  A    between atoms: C_8  and  S_1 
REMARK    3  A    between atoms: C_4  and  C_3 
REMARK    4  A    between atoms: O_18  and  C_5 
REMARK    5  A    between atoms: O_20  and  C_12 
REMARK    6  A    between atoms: O_21  and  C_13 
ROOT
ATOM      1  N   UNL d   1      32.033  17.788 -24.241  0.00  0.00    -0.127 NA
ATOM      2  C   UNL d   1      31.652  17.072 -24.373  0.00  0.00     0.086 A 
ATOM      3  S   UNL d   1      32.027  16.481 -24.801  0.00  0.00    -0.073 SA
ATOM      4  C   UNL d   1      33.169  17.329 -24.964  0.00  0.00     0.074 A 
ATOM      5  C   UNL d   1      32.788  16.613 -25.096  0.00  0.00     0.050 A 
ENDROOT
BRANCH   2   6
ATOM      6  C   UNL d   1      30.892  16.943 -24.077  0.00  0.00     0.042 A 
ATOM      7  C   UNL d   1      30.771  16.347 -23.524  0.00  0.00     0.098 A 
ATOM      8  C   UNL d   1      30.012  16.223 -23.234  0.00  0.00     0.050 A 
ATOM      9  C   UNL d   1      29.385  16.681 -23.486  0.00  0.00     0.118 A 
ATOM     10  C   UNL d   1      29.512  17.278 -24.041  0.00  0.00     0.117 A 
ATOM     11  C   UNL d   1      30.268  17.412 -24.340  0.00  0.00     0.030 A 
BRANCH   7  12
ATOM     12  O   UNL d   1      31.396  15.880 -23.264  0.00  0.00    -0.328 OA
ATOM     13  C   UNL d   1      31.327  15.457 -22.560  0.00  0.00     0.181 C 
ENDBRANCH   7  12
BRANCH   9  14
ATOM     14  O   UNL d   1      28.633  16.554 -23.193  0.00  0.00    -0.326 OA
ATOM     15  C   UNL d   1      28.151  15.971 -23.520  0.00  0.00     0.181 C 
ENDBRANCH   9  14
BRANCH  10  16
ATOM     16  O   UNL d   1      28.885  17.744 -24.299  0.00  0.00    -0.326 OA
ATOM     17  C   UNL d   1      28.976  18.238 -24.950  0.00  0.00     0.181 C 
ENDBRANCH  10  16
ENDBRANCH   2   6
BRANCH   1  18
ATOM     18  S   UNL d   1      32.627  18.484 -24.216  0.00  0.00     0.255 S 
ATOM     19  O   UNL d   1      33.240  19.114 -24.430  0.00  0.00    -0.205 OA
ATOM     20  O   UNL d   1      32.803  18.362 -25.097  0.00  0.00    -0.205 OA
BRANCH  18  21
ATOM     21  C   UNL d   1      32.647  18.816 -23.381  0.00  0.00     0.099 A 
ATOM     22  C   UNL d   1      32.127  19.519 -23.155  0.00  0.00     0.015 A 
ATOM     23  C   UNL d   1      32.143  19.852 -22.328  0.00  0.00     0.030 A 
ATOM     24  C   UNL d   1      32.682  19.485 -21.710  0.00  0.00     0.140 A 
ATOM     25  C   UNL d   1      33.208  18.781 -21.926  0.00  0.00     0.030 A 
ATOM     26  F   UNL d   1      32.708  19.815 -20.863  0.00  0.00    -0.204 F 
ATOM     27  C   UNL d   1      33.193  18.441 -22.765  0.00  0.00     0.015 A 
ENDBRANCH  18  21
ENDBRANCH   1  18
TORSDOF 6
ENDMDL
MODEL 2
REMARK VINA RESULT:       1.2      1.747      3.744
REMARK  6 active torsions:
REMARK  status: ('A' for Active; 'I' for Inactive)
REMARK    1  A    between atoms: N_2  and  S_1 
REMARK    2  A    between atoms: C_8  and  S_1 
REMARK    3  A    between atoms: C_4  and  C_3 
REMARK    4  A    between atoms: O_18  and  C_5 
REMARK    5  A    between atoms: O_20  and  C_12 
REMARK    6  A    between atoms: O_21  and  C_13 
ROOT
ATOM      1  N   UNL d   1      31.844  16.844 -24.567  0.00  0.00    -0.127 NA
ATOM      2  C   UNL d   1      32.618  17.095 -24.451  0.00  0.00     0.086 A 
ATOM      3  S   UNL d   1      33.241  16.572 -24.560  0.00  0.00    -0.073 SA
ATOM      4  C   UNL d   1      32.307  15.541 -24.904  0.00  0.00     0.074 A 
ATOM      5  C   UNL d   1      33.081  15.792 -24.788  0.00  0.00     0.050 A 
ENDROOT
BRANCH   2   6
ATOM      6  C   UNL d   1      32.775  17.873 -24.224  0.00  0.00     0.042 A 
ATOM      7  C   UNL d   1      32.987  18.031 -23.445  0.00  0.00     0.098 A 
ATOM      8  C   UNL d   1      33.142  18.808 -23.226  0.00  0.00     0.050 A 
ATOM      9  C   UNL d   1      33.086  19.417 -23.766  0.00  0.00     0.118 A 
ATOM     10  C   UNL d   1      32.873  19.254 -24.546  0.00  0.00     0.117 A 
ATOM     11  C   UNL d   1      32.715  18.479 -24.779  0.00  0.00     0.030 A 
BRANCH   7  12
ATOM     12  O   UNL d   1      33.046  17.424 -22.894  0.00  0.00    -0.328 OA
ATOM     13  C   UNL d   1      33.198  17.602 -22.103  0.00  0.00     0.181 C 
ENDBRANCH   7  12
BRANCH   9  14
ATOM     14  O   UNL d   1      33.241  20.188 -23.542  0.00  0.00    -0.326 OA
ATOM     15  C   UNL d   1      32.885  20.507 -22.872  0.00  0.00     0.181 C 
ENDBRANCH   9  14
BRANCH  10  16
ATOM     16  O   UNL d   1      32.815  19.863 -25.096  0.00  0.00    -0.326 OA
ATOM     17  C   UNL d   1      32.204  20.410 -25.046  0.00  0.00     0.181 C 
ENDBRANCH  10  16
ENDBRANCH   2   6
BRANCH   1  18
ATOM     18  S   UNL d   1      31.087  16.363 -24.747  0.00  0.00     0.255 S 
ATOM     19  O   UNL d   1      30.504  15.709 -24.971  0.00  0.00    -0.205 OA
ATOM     20  O   UNL d   1      31.597  15.638 -24.940  0.00  0.00    -0.205 OA
BRANCH  18  21
ATOM     21  C   UNL d   1      30.372  16.893 -24.622  0.00  0.00     0.099 A 
ATOM     22  C   UNL d   1      30.278  17.655 -25.097  0.00  0.00     0.015 A 
ATOM     23  C   UNL d   1      29.571  18.184 -24.977  0.00  0.00     0.030 A 
ATOM     24  C   UNL d   1      28.943  17.958 -24.376  0.00  0.00     0.140 A 
ATOM     25  C   UNL d   1      29.026  17.197 -23.895  0.00  0.00     0.030 A 
ATOM     26  F   UNL d   1      28.216  18.489 -24.244  0.00  0.00    -0.204 F 
ATOM     27  C   UNL d   1      29.745  16.658 -24.016  0.00  0.00     0.015 A 
ENDBRANCH  18  21
ENDBRANCH   1  18
TORSDOF 6
ENDMDL
