MODEL 1
REMARK VINA RESULT:      -3.9      0.000      0.000
REMARK  3 active torsions:
REMARK  status: ('A' for Active; 'I' for Inactive)
REMARK    1  A    between atoms: N_5  and  C_2 
REMARK    2  A    between atoms: C_8  and  C_3 
REMARK       I    between atoms: C_7  and  N_5 
REMARK    3  A    between atoms: C_10  and  C_7 
ROOT
ATOM      1  N   UNL d   1      32.922  20.151 -22.710  0.00  0.00    -0.200 NA
ATOM      2  C   UNL d   1      33.079  20.371 -21.939  0.00  0.00     0.216 A 
ATOM      3  C   UNL d   1      32.983  19.324 -22.764  0.00  0.00     0.172 A 
ATOM      4  N   UNL d   1      33.180  19.040 -22.015  0.00  0.00    -0.187 NA
ATOM      5  S   UNL d   1      33.241  19.686 -21.498  0.00  0.00     0.054 SA
ENDROOT
BRANCH   2   6
ATOM      6  N   UNL d   1      33.078  21.142 -21.646  0.00  0.00    -0.181 NA
ATOM      7  C   UNL d   1      32.463  21.396 -21.165  0.00  0.00     0.281 C 
ATOM      8  O   UNL d   1      31.848  20.881 -20.976  0.00  0.00    -0.265 OA
BRANCH   7   9
ATOM      9  C   UNL d   1      32.462  22.159 -20.876  0.00  0.00     0.058 A 
ATOM     10  C   UNL d   1      32.836  22.337 -20.159  0.00  0.00     0.005 A 
ATOM     11  C   UNL d   1      32.834  23.109 -19.866  0.00  0.00     0.000 A 
ATOM     12  C   UNL d   1      32.460  23.701 -20.290  0.00  0.00     0.000 A 
ATOM     13  C   UNL d   1      32.087  23.538 -21.000  0.00  0.00     0.000 A 
ATOM     14  C   UNL d   1      32.088  22.760 -21.296  0.00  0.00     0.005 A 
ENDBRANCH   7   9
ENDBRANCH   2   6
BRANCH   3  15
ATOM     15  C   UNL d   1      32.869  18.871 -23.435  0.00  0.00     0.036 A 
ATOM     16  C   UNL d   1      32.473  18.150 -23.381  0.00  0.00     0.003 A 
ATOM     17  C   UNL d   1      32.357  17.689 -24.060  0.00  0.00     0.000 A 
ATOM     18  C   UNL d   1      32.640  17.954 -24.791  0.00  0.00     0.000 A 
ATOM     19  C   UNL d   1      33.039  18.679 -24.845  0.00  0.00     0.000 A 
ATOM     20  C   UNL d   1      33.152  19.136 -24.161  0.00  0.00     0.003 A 
ENDBRANCH   3  15
TORSDOF 3
ENDMDL
MODEL 2
REMARK VINA RESULT:      -3.1      1.424      5.018
REMARK  3 active torsions:
REMARK  status: ('A' for Active; 'I' for Inactive)
REMARK    1  A    between atoms: N_5  and  C_2 
REMARK    2  A    between atoms: C_8  and  C_3 
REMARK       I    between atoms: C_7  and  N_5 
REMARK    3  A    between atoms: C_10  and  C_7 
ROOT
ATOM      1  N   UNL d   1      32.864  19.564 -22.113  0.00  0.00    -0.200 NA
ATOM      2  C   UNL d   1      33.007  19.121 -22.784  0.00  0.00     0.216 A 
ATOM      3  C   UNL d   1      33.006  20.362 -22.291  0.00  0.00     0.172 A 
ATOM      4  N   UNL d   1      33.239  20.403 -23.081  0.00  0.00    -0.187 NA
ATOM      5  S   UNL d   1      33.241  19.633 -23.393  0.00  0.00     0.054 SA
ENDROOT
BRANCH   2   6
ATOM      6  N   UNL d   1      32.932  18.302 -22.848  0.00  0.00    -0.181 NA
ATOM      7  C   UNL d   1      32.470  17.979 -23.445  0.00  0.00     0.281 C 
ATOM      8  O   UNL d   1      32.082  18.472 -23.979  0.00  0.00    -0.265 OA
BRANCH   7   9
ATOM      9  C   UNL d   1      32.396  17.168 -23.509  0.00  0.00     0.058 A 
ATOM     10  C   UNL d   1      33.068  16.687 -23.555  0.00  0.00     0.005 A 
ATOM     11  C   UNL d   1      32.993  15.867 -23.619  0.00  0.00     0.000 A 
ATOM     12  C   UNL d   1      32.246  15.530 -23.637  0.00  0.00     0.000 A 
ATOM     13  C   UNL d   1      31.574  15.995 -23.592  0.00  0.00     0.000 A 
ATOM     14  C   UNL d   1      31.649  16.822 -23.527  0.00  0.00     0.005 A 
ENDBRANCH   7   9
ENDBRANCH   2   6
BRANCH   3  15
ATOM     15  C   UNL d   1      32.931  20.996 -21.779  0.00  0.00     0.036 A 
ATOM     16  C   UNL d   1      33.240  21.731 -21.988  0.00  0.00     0.003 A 
ATOM     17  C   UNL d   1      33.165  22.375 -21.471  0.00  0.00     0.000 A 
ATOM     18  C   UNL d   1      32.779  22.277 -20.746  0.00  0.00     0.000 A 
ATOM     19  C   UNL d   1      32.467  21.537 -20.537  0.00  0.00     0.000 A 
ATOM     20  C   UNL d   1      32.546  20.896 -21.059  0.00  0.00     0.003 A 
ENDBRANCH   3  15
TORSDOF 3
ENDMDL
MODEL 3
REMARK VINA RESULT:      -3.0      0.908      1.309
REMARK  3 active torsions:
REMARK  status: ('A' for Active; 'I' for Inactive)
REMARK    1  A    between atoms: N_5  and  C_2 
REMARK    2  A    between atoms: C_8  and  C_3 
REMARK       I    between atoms: C_7  and  N_5 
REMARK    3  A    between atoms: C_10  and  C_7 
ROOT
ATOM      1  N   UNL d   1      32.917  19.166 -22.465  0.00  0.00    -0.200 NA
ATOM      2  C   UNL d   1      33.116  19.951 -22.570  0.00  0.00     0.216 A 
ATOM      3  C   UNL d   1      32.850  18.811 -23.213  0.00  0.00     0.172 A 
ATOM      4  N   UNL d   1      33.011  19.391 -23.778  0.00  0.00    -0.187 NA
ATOM      5  S   UNL d   1      33.177  20.102 -23.383  0.00  0.00     0.054 SA
ENDROOT
BRANCH   2   6
ATOM      6  N   UNL d   1      33.236  20.504 -21.969  0.00  0.00    -0.181 NA
ATOM      7  C   UNL d   1      32.592  20.852 -21.598  0.00  0.00     0.281 C 
ATOM      8  O   UNL d   1      31.826  20.651 -21.827  0.00  0.00    -0.265 OA
BRANCH   7   9
ATOM      9  C   UNL d   1      32.711  21.399 -21.004  0.00  0.00     0.058 A 
ATOM     10  C   UNL d   1      33.120  21.189 -20.316  0.00  0.00     0.005 A 
ATOM     11  C   UNL d   1      33.241  21.742 -19.715  0.00  0.00     0.000 A 
ATOM     12  C   UNL d   1      32.951  22.503 -19.802  0.00  0.00     0.000 A 
ATOM     13  C   UNL d   1      32.545  22.723 -20.478  0.00  0.00     0.000 A 
ATOM     14  C   UNL d   1      32.423  22.166 -21.084  0.00  0.00     0.005 A 
ENDBRANCH   7   9
ENDBRANCH   2   6
BRANCH   3  15
ATOM     15  C   UNL d   1      32.661  18.031 -23.367  0.00  0.00     0.036 A 
ATOM     16  C   UNL d   1      33.146  17.427 -23.085  0.00  0.00     0.003 A 
ATOM     17  C   UNL d   1      32.955  16.635 -23.240  0.00  0.00     0.000 A 
ATOM     18  C   UNL d   1      32.277  16.454 -23.677  0.00  0.00     0.000 A 
ATOM     19  C   UNL d   1      31.789  17.062 -23.960  0.00  0.00     0.000 A 
ATOM     20  C   UNL d   1      31.986  17.852 -23.802  0.00  0.00     0.003 A 
ENDBRANCH   3  15
TORSDOF 3
ENDMDL
MODEL 4
REMARK VINA RESULT:      -3.0      1.479      2.285
REMARK  3 active torsions:
REMARK  status: ('A' for Active; 'I' for Inactive)
REMARK    1  A    between atoms: N_5  and  C_2 
REMARK    2  A    between atoms: C_8  and  C_3 
REMARK       I    between atoms: C_7  and  N_5 
REMARK    3  A    between atoms: C_10  and  C_7 
ROOT
ATOM      1  N   UNL d   1      32.179  18.431 -23.330  0.00  0.00    -0.200 NA
ATOM      2  C   UNL d   1      32.663  19.077 -23.460  0.00  0.00     0.216 A 
ATOM      3  C   UNL d   1      32.408  17.824 -23.848  0.00  0.00     0.172 A 
ATOM      4  N   UNL d   1      33.038  18.106 -24.299  0.00  0.00    -0.187 NA
ATOM      5  S   UNL d   1      33.201  18.885 -24.062  0.00  0.00     0.054 SA
ENDROOT
BRANCH   2   6
ATOM      6  N   UNL d   1      32.624  19.798 -23.062  0.00  0.00    -0.181 NA
ATOM      7  C   UNL d   1      32.913  19.859 -22.296  0.00  0.00     0.281 C 
ATOM      8  O   UNL d   1      33.241  19.200 -21.925  0.00  0.00    -0.265 OA
BRANCH   7   9
ATOM      9  C   UNL d   1      32.874  20.572 -21.902  0.00  0.00     0.058 A 
ATOM     10  C   UNL d   1      33.241  21.246 -22.215  0.00  0.00     0.005 A 
ATOM     11  C   UNL d   1      33.202  21.967 -21.817  0.00  0.00     0.000 A 
ATOM     12  C   UNL d   1      32.797  22.015 -21.106  0.00  0.00     0.000 A 
ATOM     13  C   UNL d   1      32.430  21.357 -20.786  0.00  0.00     0.000 A 
ATOM     14  C   UNL d   1      32.469  20.628 -21.188  0.00  0.00     0.005 A 
ENDBRANCH   7   9
ENDBRANCH   2   6
BRANCH   3  15
ATOM     15  C   UNL d   1      32.072  17.080 -23.906  0.00  0.00     0.036 A 
ATOM     16  C   UNL d   1      31.264  17.005 -24.052  0.00  0.00     0.003 A 
ATOM     17  C   UNL d   1      30.922  16.252 -24.111  0.00  0.00     0.000 A 
ATOM     18  C   UNL d   1      31.393  15.578 -24.021  0.00  0.00     0.000 A 
ATOM     19  C   UNL d   1      32.206  15.655 -23.874  0.00  0.00     0.000 A 
ATOM     20  C   UNL d   1      32.542  16.411 -23.817  0.00  0.00     0.003 A 
ENDBRANCH   3  15
TORSDOF 3
ENDMDL
MODEL 5
REMARK VINA RESULT:      -2.5      0.715      4.775
REMARK  3 active torsions:
REMARK  status: ('A' for Active; 'I' for Inactive)
REMARK    1  A    between atoms: N_5  and  C_2 
REMARK    2  A    between atoms: C_8  and  C_3 
REMARK       I    between atoms: C_7  and  N_5 
REMARK    3  A    between atoms: C_10  and  C_7 
ROOT
ATOM      1  N   UNL d   1      32.995  21.200 -22.026  0.00  0.00    -0.200 NA
ATOM      2  C   UNL d   1      33.163  20.403 -22.090  0.00  0.00     0.216 A 
ATOM      3  C   UNL d   1      32.966  21.398 -21.219  0.00  0.00     0.172 A 
ATOM      4  N   UNL d   1      33.118  20.710 -20.790  0.00  0.00    -0.187 NA
ATOM      5  S   UNL d   1      33.241  20.088 -21.326  0.00  0.00     0.054 SA
ENDROOT
BRANCH   2   6
ATOM      6  N   UNL d   1      33.241  19.981 -22.794  0.00  0.00    -0.181 NA
ATOM      7  C   UNL d   1      32.902  19.236 -22.864  0.00  0.00     0.281 C 
ATOM      8  O   UNL d   1      32.484  18.912 -22.233  0.00  0.00    -0.265 OA
BRANCH   7   9
ATOM      9  C   UNL d   1      32.979  18.819 -23.561  0.00  0.00     0.058 A 
ATOM     10  C   UNL d   1      32.916  19.203 -24.292  0.00  0.00     0.005 A 
ATOM     11  C   UNL d   1      32.994  18.780 -24.996  0.00  0.00     0.000 A 
ATOM     12  C   UNL d   1      33.136  17.974 -24.970  0.00  0.00     0.000 A 
ATOM     13  C   UNL d   1      33.201  17.582 -24.254  0.00  0.00     0.000 A 
ATOM     14  C   UNL d   1      33.122  18.008 -23.543  0.00  0.00     0.005 A 
ENDBRANCH   7   9
ENDBRANCH   2   6
BRANCH   3  15
ATOM     15  C   UNL d   1      32.814  22.137 -20.904  0.00  0.00     0.036 A 
ATOM     16  C   UNL d   1      33.221  22.388 -20.233  0.00  0.00     0.003 A 
ATOM     17  C   UNL d   1      33.069  23.137 -19.912  0.00  0.00     0.000 A 
ATOM     18  C   UNL d   1      32.508  23.631 -20.267  0.00  0.00     0.000 A 
ATOM     19  C   UNL d   1      32.099  23.377 -20.943  0.00  0.00     0.000 A 
ATOM     20  C   UNL d   1      32.256  22.626 -21.259  0.00  0.00     0.003 A 
ENDBRANCH   3  15
TORSDOF 3
ENDMDL
MODEL 6
REMARK VINA RESULT:      -1.7      3.531      5.072
REMARK  3 active torsions:
REMARK  status: ('A' for Active; 'I' for Inactive)
REMARK    1  A    between atoms: N_5  and  C_2 
REMARK    2  A    between atoms: C_8  and  C_3 
REMARK       I    between atoms: C_7  and  N_5 
REMARK    3  A    between atoms: C_10  and  C_7 
ROOT
ATOM      1  N   UNL d   1      30.150  17.025 -24.341  0.00  0.00    -0.200 NA
ATOM      2  C   UNL d   1      30.868  17.042 -24.732  0.00  0.00     0.216 A 
ATOM      3  C   UNL d   1      29.849  16.252 -24.381  0.00  0.00     0.172 A 
ATOM      4  N   UNL d   1      30.392  15.795 -24.802  0.00  0.00    -0.187 NA
ATOM      5  S   UNL d   1      31.028  16.281 -25.022  0.00  0.00     0.054 SA
ENDROOT
BRANCH   2   6
ATOM      6  N   UNL d   1      31.353  17.703 -24.823  0.00  0.00    -0.181 NA
ATOM      7  C   UNL d   1      31.790  17.980 -24.185  0.00  0.00     0.281 C 
ATOM      8  O   UNL d   1      31.744  17.599 -23.456  0.00  0.00    -0.265 OA
BRANCH   7   9
ATOM      9  C   UNL d   1      32.270  18.634 -24.275  0.00  0.00     0.058 A 
ATOM     10  C   UNL d   1      32.716  18.920 -23.639  0.00  0.00     0.005 A 
ATOM     11  C   UNL d   1      33.202  19.580 -23.730  0.00  0.00     0.000 A 
ATOM     12  C   UNL d   1      33.241  19.956 -24.457  0.00  0.00     0.000 A 
ATOM     13  C   UNL d   1      32.805  19.684 -25.095  0.00  0.00     0.000 A 
ATOM     14  C   UNL d   1      32.315  19.016 -25.003  0.00  0.00     0.005 A 
ENDBRANCH   7   9
ENDBRANCH   2   6
BRANCH   3  15
ATOM     15  C   UNL d   1      29.143  15.987 -24.063  0.00  0.00     0.036 A 
ATOM     16  C   UNL d   1      29.090  15.831 -23.256  0.00  0.00     0.003 A 
ATOM     17  C   UNL d   1      28.375  15.563 -22.932  0.00  0.00     0.000 A 
ATOM     18  C   UNL d   1      27.718  15.453 -23.421  0.00  0.00     0.000 A 
ATOM     19  C   UNL d   1      27.772  15.610 -24.234  0.00  0.00     0.000 A 
ATOM     20  C   UNL d   1      28.490  15.878 -24.552  0.00  0.00     0.003 A 
ENDBRANCH   3  15
TORSDOF 3
ENDMDL
MODEL 7
REMARK VINA RESULT:      -1.7      1.049      4.858
REMARK  3 active torsions:
REMARK  status: ('A' for Active; 'I' for Inactive)
REMARK    1  A    between atoms: N_5  and  C_2 
REMARK    2  A    between atoms: C_8  and  C_3 
REMARK       I    between atoms: C_7  and  N_5 
REMARK    3  A    between atoms: C_10  and  C_7 
ROOT
ATOM      1  N   UNL d   1      33.196  21.529 -20.964  0.00  0.00    -0.200 NA
ATOM      2  C   UNL d   1      33.054  21.445 -21.765  0.00  0.00     0.216 A 
ATOM      3  C   UNL d   1      32.927  22.279 -20.728  0.00  0.00     0.172 A 
ATOM      4  N   UNL d   1      32.618  22.653 -21.395  0.00  0.00    -0.187 NA
ATOM      5  S   UNL d   1      32.695  22.140 -22.043  0.00  0.00     0.054 SA
ENDROOT
BRANCH   2   6
ATOM      6  N   UNL d   1      33.237  20.783 -22.221  0.00  0.00    -0.181 NA
ATOM      7  C   UNL d   1      32.649  20.244 -22.414  0.00  0.00     0.281 C 
ATOM      8  O   UNL d   1      31.877  20.364 -22.151  0.00  0.00    -0.265 OA
BRANCH   7   9
ATOM      9  C   UNL d   1      32.830  19.589 -22.865  0.00  0.00     0.058 A 
ATOM     10  C   UNL d   1      32.933  18.848 -22.510  0.00  0.00     0.005 A 
ATOM     11  C   UNL d   1      33.116  18.185 -22.966  0.00  0.00     0.000 A 
ATOM     12  C   UNL d   1      33.195  18.264 -23.778  0.00  0.00     0.000 A 
ATOM     13  C   UNL d   1      33.096  18.990 -24.142  0.00  0.00     0.000 A 
ATOM     14  C   UNL d   1      32.911  19.659 -23.681  0.00  0.00     0.005 A 
ENDBRANCH   7   9
ENDBRANCH   2   6
BRANCH   3  15
ATOM     15  C   UNL d   1      32.959  22.592 -19.974  0.00  0.00     0.036 A 
ATOM     16  C   UNL d   1      33.206  22.122 -19.343  0.00  0.00     0.003 A 
ATOM     17  C   UNL d   1      33.240  22.438 -18.578  0.00  0.00     0.000 A 
ATOM     18  C   UNL d   1      33.026  23.226 -18.449  0.00  0.00     0.000 A 
ATOM     19  C   UNL d   1      32.777  23.700 -19.083  0.00  0.00     0.000 A 
ATOM     20  C   UNL d   1      32.746  23.377 -19.847  0.00  0.00     0.003 A 
ENDBRANCH   3  15
TORSDOF 3
ENDMDL
