MODEL 1
REMARK VINA RESULT:      56.2      0.000      0.000
REMARK  5 active torsions:
REMARK  status: ('A' for Active; 'I' for Inactive)
REMARK    1  A    between atoms: C_10  and  C_3 
REMARK    2  A    between atoms: S_11  and  C_4 
REMARK    3  A    between atoms: C_17  and  S_11 
REMARK    4  A    between atoms: C_13  and  C_17 
REMARK       I    between atoms: N_14  and  C_13 
REMARK    5  A    between atoms: C_15  and  N_14 
ROOT
ATOM      1  C   UNL d   1      13.797  12.878  -2.933  0.00  0.00     0.150 A 
ATOM      2  N   UNL d   1      14.034  13.660  -2.791  0.00  0.00    -0.285 N 
ATOM      3  C   UNL d   1      13.420  12.691  -3.628  0.00  0.00     0.056 A 
ATOM      4  C   UNL d   1      13.886  14.229  -3.349  0.00  0.00     0.096 A 
ATOM      5  N   UNL d   1      13.942  12.295  -2.373  0.00  0.00    -0.227 NA
ATOM      6  C   UNL d   1      13.272  13.275  -4.191  0.00  0.00     0.006 A 
ATOM      7  C   UNL d   1      13.509  14.042  -4.044  0.00  0.00     0.025 A 
ATOM      8  C   UNL d   1      14.559  13.262  -1.529  0.00  0.00     0.084 A 
ATOM      9  C   UNL d   1      14.322  12.480  -1.670  0.00  0.00     0.099 A 
ATOM     10  C   UNL d   1      12.899  13.085  -4.879  0.00  0.00     0.000 C 
ATOM     11  C   UNL d   1      14.937  13.449  -0.833  0.00  0.00     0.019 A 
ATOM     12  C   UNL d   1      14.470  11.911  -1.112  0.00  0.00     0.021 A 
ATOM     13  C   UNL d   1      15.081  12.867  -0.277  0.00  0.00     0.002 A 
ATOM     14  C   UNL d   1      14.847  12.098  -0.416  0.00  0.00     0.002 A 
ENDROOT
BRANCH   4  15
ATOM     15  S   UNL d   1      14.128  15.027  -3.204  0.00  0.00    -0.064 SA
BRANCH  15  16
ATOM     16  C   UNL d   1      14.645  15.665  -3.429  0.00  0.00     0.099 C 
BRANCH  16  17
ATOM     17  C   UNL d   1      14.488  16.109  -4.129  0.00  0.00     0.286 C 
ATOM     18  N   UNL d   1      14.629  16.948  -4.141  0.00  0.00    -0.208 NA
ATOM     19  O   UNL d   1      14.188  15.722  -4.827  0.00  0.00    -0.265 OA
BRANCH  18  20
ATOM     20  C   UNL d   1      14.470  17.400  -4.852  0.00  0.00     0.085 A 
ATOM     21  C   UNL d   1      14.612  18.228  -4.856  0.00  0.00     0.019 A 
ATOM     22  C   UNL d   1      14.455  18.676  -5.558  0.00  0.00     0.002 A 
ATOM     23  C   UNL d   1      14.596  19.512  -5.568  0.00  0.00     0.000 C 
ATOM     24  C   UNL d   1      14.154  18.296  -6.262  0.00  0.00     0.000 A 
ATOM     25  C   UNL d   1      14.017  17.454  -6.238  0.00  0.00     0.002 A 
ATOM     26  C   UNL d   1      14.174  17.007  -5.536  0.00  0.00     0.019 A 
ENDBRANCH  18  20
ENDBRANCH  16  17
ENDBRANCH  15  16
ENDBRANCH   4  15
BRANCH   3  27
ATOM     27  C   UNL d   1      13.183  11.924  -3.775  0.00  0.00     0.125 C 
ATOM     28  N   UNL d   1      12.805  11.781  -4.484  0.00  0.00    -0.146 N 
ENDBRANCH   3  27
TORSDOF 5
ENDMDL
MODEL 2
REMARK VINA RESULT:      59.2      1.492      5.015
REMARK  5 active torsions:
REMARK  status: ('A' for Active; 'I' for Inactive)
REMARK    1  A    between atoms: C_10  and  C_3 
REMARK    2  A    between atoms: S_11  and  C_4 
REMARK    3  A    between atoms: C_17  and  S_11 
REMARK    4  A    between atoms: C_13  and  C_17 
REMARK       I    between atoms: N_14  and  C_13 
REMARK    5  A    between atoms: C_15  and  N_14 
ROOT
ATOM      1  C   UNL d   1      14.392  15.875  -4.108  0.00  0.00     0.150 A 
ATOM      2  N   UNL d   1      14.099  15.200  -3.726  0.00  0.00    -0.285 N 
ATOM      3  C   UNL d   1      14.326  15.942  -4.915  0.00  0.00     0.056 A 
ATOM      4  C   UNL d   1      13.750  14.614  -4.164  0.00  0.00     0.096 A 
ATOM      5  N   UNL d   1      14.747  16.473  -3.672  0.00  0.00    -0.227 NA
ATOM      6  C   UNL d   1      13.970  15.342  -5.354  0.00  0.00     0.006 A 
ATOM      7  C   UNL d   1      13.684  14.681  -4.971  0.00  0.00     0.025 A 
ATOM      8  C   UNL d   1      14.523  15.734  -2.476  0.00  0.00     0.084 A 
ATOM      9  C   UNL d   1      14.816  16.410  -2.858  0.00  0.00     0.099 A 
ATOM     10  C   UNL d   1      13.906  15.412  -6.154  0.00  0.00     0.000 C 
ATOM     11  C   UNL d   1      14.589  15.668  -1.668  0.00  0.00     0.019 A 
ATOM     12  C   UNL d   1      15.165  16.996  -2.420  0.00  0.00     0.021 A 
ATOM     13  C   UNL d   1      14.943  16.264  -1.236  0.00  0.00     0.002 A 
ATOM     14  C   UNL d   1      15.232  16.929  -1.612  0.00  0.00     0.002 A 
ENDROOT
BRANCH   4  15
ATOM     15  S   UNL d   1      13.451  13.925  -3.774  0.00  0.00    -0.064 SA
BRANCH  15  16
ATOM     16  C   UNL d   1      13.461  13.075  -3.725  0.00  0.00     0.099 C 
BRANCH  16  17
ATOM     17  C   UNL d   1      13.556  12.696  -2.976  0.00  0.00     0.286 C 
ATOM     18  N   UNL d   1      14.197  12.922  -2.464  0.00  0.00    -0.208 NA
ATOM     19  O   UNL d   1      13.013  12.088  -2.728  0.00  0.00    -0.265 OA
BRANCH  18  20
ATOM     20  C   UNL d   1      14.295  12.539  -1.704  0.00  0.00     0.085 A 
ATOM     21  C   UNL d   1      13.618  12.359  -1.240  0.00  0.00     0.019 A 
ATOM     22  C   UNL d   1      13.714  11.981  -0.488  0.00  0.00     0.002 A 
ATOM     23  C   UNL d   1      13.035  11.798  -0.016  0.00  0.00     0.000 C 
ATOM     24  C   UNL d   1      14.491  11.779  -0.195  0.00  0.00     0.000 A 
ATOM     25  C   UNL d   1      15.167  11.969  -0.680  0.00  0.00     0.002 A 
ATOM     26  C   UNL d   1      15.070  12.348  -1.432  0.00  0.00     0.019 A 
ENDBRANCH  18  20
ENDBRANCH  16  17
ENDBRANCH  15  16
ENDBRANCH   4  15
BRANCH   3  27
ATOM     27  C   UNL d   1      14.612  16.603  -5.298  0.00  0.00     0.125 C 
ATOM     28  N   UNL d   1      14.136  16.934  -5.873  0.00  0.00    -0.146 N 
ENDBRANCH   3  27
TORSDOF 5
ENDMDL
