MODEL 1
REMARK VINA RESULT:      -1.5      0.000      0.000
REMARK  6 active torsions:
REMARK  status: ('A' for Active; 'I' for Inactive)
REMARK    1  A    between atoms: N_8  and  S_1 
REMARK    2  A    between atoms: C_12  and  S_1 
REMARK    3  A    between atoms: N_5  and  C_2 
REMARK    4  A    between atoms: C_4  and  O_9 
REMARK    5  A    between atoms: O_9  and  C_10 
REMARK    6  A    between atoms: C_10  and  C_16 
ROOT
ATOM      1  C   UNL d   1      58.127  -0.389  30.136  0.00  0.00     0.104 A 
ATOM      2  C   UNL d   1      57.190   0.100  31.390  0.00  0.00     0.064 A 
ATOM      3  C   UNL d   1      57.809  -0.938  30.650  0.00  0.00     0.013 A 
ATOM      4  C   UNL d   1      57.975   0.414  30.251  0.00  0.00     0.013 A 
ATOM      5  C   UNL d   1      57.333  -0.693  31.287  0.00  0.00     0.006 A 
ATOM      6  C   UNL d   1      57.505   0.661  30.879  0.00  0.00     0.006 A 
ENDROOT
BRANCH   2   7
ATOM      7  C   UNL d   1      56.716   0.353  32.023  0.00  0.00     0.300 C 
ATOM      8  O   UNL d   1      55.913   0.457  31.913  0.00  0.00    -0.259 OA
BRANCH   7   9
ATOM      9  O   UNL d   1      57.062   0.498  32.760  0.00  0.00    -0.271 OA
BRANCH   9  10
ATOM     10  C   UNL d   1      56.600   0.525  33.443  0.00  0.00     0.132 A 
ATOM     11  C   UNL d   1      56.956   0.590  34.186  0.00  0.00     0.207 A 
ATOM     12  C   UNL d   1      56.494   0.616  34.869  0.00  0.00     0.303 A 
ATOM     13  O   UNL d   1      56.856   0.682  35.610  0.00  0.00    -0.263 OA
ATOM     14  N   UNL d   1      55.675   0.578  34.810  0.00  0.00    -0.206 NA
ATOM     15  C   UNL d   1      55.318   0.513  34.077  0.00  0.00     0.087 A 
ATOM     16  C   UNL d   1      55.780   0.487  33.394  0.00  0.00     0.046 A 
ATOM     17  C   UNL d   1      54.487   0.474  34.015  0.00  0.00     0.021 C 
BRANCH  11  18
ATOM     18  N   UNL d   1      57.783   0.628  34.240  0.00  0.00    -0.107 N 
ATOM     19  O   UNL d   1      58.141   0.653  34.984  0.00  0.00    -0.531 OA
ATOM     20  O   UNL d   1      58.243   0.642  33.555  0.00  0.00    -0.531 OA
ENDBRANCH  11  18
ENDBRANCH   9  10
ENDBRANCH   7   9
ENDBRANCH   2   7
BRANCH   1  21
ATOM     21  S   UNL d   1      58.595  -0.621  29.509  0.00  0.00     0.271 S 
ATOM     22  O   UNL d   1      58.896  -0.860  28.794  0.00  0.00    -0.200 OA
ATOM     23  O   UNL d   1      57.837  -0.624  29.214  0.00  0.00    -0.200 OA
BRANCH  21  24
ATOM     24  N   UNL d   1      59.403  -0.677  29.622  0.00  0.00    -0.229 N 
ATOM     25  C   UNL d   1      59.782  -1.407  29.568  0.00  0.00     0.092 A 
ATOM     26  C   UNL d   1      60.588  -1.444  29.684  0.00  0.00     0.020 A 
ATOM     27  C   UNL d   1      61.031  -0.765  29.855  0.00  0.00     0.003 A 
ATOM     28  C   UNL d   1      60.648  -0.046  29.907  0.00  0.00     0.020 A 
ATOM     29  C   UNL d   1      59.831   0.004  29.791  0.00  0.00     0.092 A 
ENDBRANCH  21  24
ENDBRANCH   1  21
TORSDOF 6
ENDMDL
MODEL 2
REMARK VINA RESULT:      -0.8      8.869     10.627
REMARK  6 active torsions:
REMARK  status: ('A' for Active; 'I' for Inactive)
REMARK    1  A    between atoms: N_8  and  S_1 
REMARK    2  A    between atoms: C_12  and  S_1 
REMARK    3  A    between atoms: N_5  and  C_2 
REMARK    4  A    between atoms: C_4  and  O_9 
REMARK    5  A    between atoms: O_9  and  C_10 
REMARK    6  A    between atoms: C_10  and  C_16 
ROOT
ATOM      1  C   UNL d   1      59.565  -9.241  34.164  0.00  0.00     0.104 A 
ATOM      2  C   UNL d   1      59.858  -9.562  32.583  0.00  0.00     0.064 A 
ATOM      3  C   UNL d   1      60.290  -9.058  33.835  0.00  0.00     0.013 A 
ATOM      4  C   UNL d   1      58.981  -9.588  33.696  0.00  0.00     0.013 A 
ATOM      5  C   UNL d   1      60.441  -9.220  33.033  0.00  0.00     0.006 A 
ATOM      6  C   UNL d   1      59.125  -9.750  32.903  0.00  0.00     0.006 A 
ENDROOT
BRANCH   2   7
ATOM      7  C   UNL d   1      60.001  -9.728  31.781  0.00  0.00     0.300 C 
ATOM      8  O   UNL d   1      60.768  -9.817  31.516  0.00  0.00    -0.259 OA
BRANCH   7   9
ATOM      9  O   UNL d   1      59.363  -9.800  31.259  0.00  0.00    -0.271 OA
BRANCH   9  10
ATOM     10  C   UNL d   1      59.469  -9.683  30.449  0.00  0.00     0.132 A 
ATOM     11  C   UNL d   1      58.832  -9.457  29.974  0.00  0.00     0.207 A 
ATOM     12  C   UNL d   1      58.938  -9.341  29.164  0.00  0.00     0.303 A 
ATOM     13  O   UNL d   1      58.296  -9.115  28.692  0.00  0.00    -0.263 OA
ATOM     14  N   UNL d   1      59.680  -9.449  28.828  0.00  0.00    -0.206 NA
ATOM     15  C   UNL d   1      60.313  -9.673  29.295  0.00  0.00     0.087 A 
ATOM     16  C   UNL d   1      60.207  -9.789  30.105  0.00  0.00     0.046 A 
ATOM     17  C   UNL d   1      61.067  -9.784  28.957  0.00  0.00     0.021 C 
BRANCH  11  18
ATOM     18  N   UNL d   1      58.085  -9.349  30.317  0.00  0.00    -0.107 N 
ATOM     19  O   UNL d   1      57.984  -8.769  30.896  0.00  0.00    -0.531 OA
ATOM     20  O   UNL d   1      57.448  -9.817  30.081  0.00  0.00    -0.531 OA
ENDBRANCH  11  18
ENDBRANCH   9  10
ENDBRANCH   7   9
ENDBRANCH   2   7
BRANCH   1  21
ATOM     21  S   UNL d   1      59.408  -9.085  34.950  0.00  0.00     0.271 S 
ATOM     22  O   UNL d   1      59.165  -9.097  35.724  0.00  0.00    -0.200 OA
ATOM     23  O   UNL d   1      59.062  -9.807  34.809  0.00  0.00    -0.200 OA
BRANCH  21  24
ATOM     24  N   UNL d   1      59.686  -8.388  35.274  0.00  0.00    -0.229 N 
ATOM     25  C   UNL d   1      59.342  -7.667  35.069  0.00  0.00     0.092 A 
ATOM     26  C   UNL d   1      59.631  -6.981  35.401  0.00  0.00     0.020 A 
ATOM     27  C   UNL d   1      60.261  -6.995  35.938  0.00  0.00     0.003 A 
ATOM     28  C   UNL d   1      60.597  -7.712  36.136  0.00  0.00     0.020 A 
ATOM     29  C   UNL d   1      60.312  -8.415  35.805  0.00  0.00     0.092 A 
ENDBRANCH  21  24
ENDBRANCH   1  21
TORSDOF 6
ENDMDL
MODEL 3
REMARK VINA RESULT:       1.1      2.080      3.377
REMARK  6 active torsions:
REMARK  status: ('A' for Active; 'I' for Inactive)
REMARK    1  A    between atoms: N_8  and  S_1 
REMARK    2  A    between atoms: C_12  and  S_1 
REMARK    3  A    between atoms: N_5  and  C_2 
REMARK    4  A    between atoms: C_4  and  O_9 
REMARK    5  A    between atoms: O_9  and  C_10 
REMARK    6  A    between atoms: C_10  and  C_16 
ROOT
ATOM      1  C   UNL d   1      58.730  -2.636  28.987  0.00  0.00     0.104 A 
ATOM      2  C   UNL d   1      58.557  -1.078  29.467  0.00  0.00     0.064 A 
ATOM      3  C   UNL d   1      58.951  -2.412  29.741  0.00  0.00     0.013 A 
ATOM      4  C   UNL d   1      58.419  -2.075  28.469  0.00  0.00     0.013 A 
ATOM      5  C   UNL d   1      58.865  -1.622  29.987  0.00  0.00     0.006 A 
ATOM      6  C   UNL d   1      58.331  -1.293  28.708  0.00  0.00     0.006 A 
ENDROOT
BRANCH   2   7
ATOM      7  C   UNL d   1      58.467  -0.287  29.706  0.00  0.00     0.300 C 
ATOM      8  O   UNL d   1      58.935   0.293  29.372  0.00  0.00    -0.259 OA
BRANCH   7   9
ATOM      9  O   UNL d   1      57.904  -0.095  30.280  0.00  0.00    -0.271 OA
BRANCH   9  10
ATOM     10  C   UNL d   1      58.137   0.163  31.027  0.00  0.00     0.132 A 
ATOM     11  C   UNL d   1      57.575   0.294  31.618  0.00  0.00     0.207 A 
ATOM     12  C   UNL d   1      57.808   0.553  32.366  0.00  0.00     0.303 A 
ATOM     13  O   UNL d   1      57.241   0.682  32.954  0.00  0.00    -0.263 OA
ATOM     14  N   UNL d   1      58.604   0.681  32.524  0.00  0.00    -0.206 NA
ATOM     15  C   UNL d   1      59.164   0.553  31.942  0.00  0.00     0.087 A 
ATOM     16  C   UNL d   1      58.931   0.294  31.194  0.00  0.00     0.046 A 
ATOM     17  C   UNL d   1      59.973   0.682  32.100  0.00  0.00     0.021 C 
BRANCH  11  18
ATOM     18  N   UNL d   1      56.772   0.163  31.454  0.00  0.00    -0.107 N 
ATOM     19  O   UNL d   1      56.371   0.679  30.948  0.00  0.00    -0.531 OA
ATOM     20  O   UNL d   1      56.378  -0.477  31.793  0.00  0.00    -0.531 OA
ENDBRANCH  11  18
ENDBRANCH   9  10
ENDBRANCH   7   9
ENDBRANCH   2   7
BRANCH   1  21
ATOM     21  S   UNL d   1      58.812  -3.410  28.737  0.00  0.00     0.271 S 
ATOM     22  O   UNL d   1      58.706  -4.168  28.468  0.00  0.00    -0.200 OA
ATOM     23  O   UNL d   1      58.015  -3.257  28.682  0.00  0.00    -0.200 OA
BRANCH  21  24
ATOM     24  N   UNL d   1      59.559  -3.741  28.726  0.00  0.00    -0.229 N 
ATOM     25  C   UNL d   1      60.226  -3.261  28.653  0.00  0.00     0.092 A 
ATOM     26  C   UNL d   1      60.963  -3.607  28.644  0.00  0.00     0.020 A 
ATOM     27  C   UNL d   1      61.055  -4.429  28.705  0.00  0.00     0.003 A 
ATOM     28  C   UNL d   1      60.390  -4.897  28.777  0.00  0.00     0.020 A 
ATOM     29  C   UNL d   1      59.636  -4.556  28.788  0.00  0.00     0.092 A 
ENDBRANCH  21  24
ENDBRANCH   1  21
TORSDOF 6
ENDMDL
