MODEL 1
REMARK VINA RESULT:      71.0      0.000      0.000
REMARK  4 active torsions:
REMARK  status: ('A' for Active; 'I' for Inactive)
REMARK    1  A    between atoms: N_2  and  C_1 
REMARK       I    between atoms: C_5  and  N_2 
REMARK    2  A    between atoms: C_8  and  C_5 
REMARK    3  A    between atoms: O_16  and  C_10 
REMARK    4  A    between atoms: O_17  and  C_12 
ROOT
ATOM      1  N   UNL d   1      58.888  49.698  52.993  0.00  0.00    -0.184 NA
ATOM      2  C   UNL d   1      59.597  49.285  52.897  0.00  0.00     0.281 C 
ATOM      3  O   UNL d   1      59.907  48.883  53.546  0.00  0.00    -0.265 OA
ENDROOT
BRANCH   2   4
ATOM      4  C   UNL d   1      59.998  49.260  52.196  0.00  0.00     0.060 A 
ATOM      5  C   UNL d   1      59.584  49.264  51.497  0.00  0.00     0.031 A 
ATOM      6  C   UNL d   1      59.996  49.238  50.785  0.00  0.00     0.116 A 
ATOM      7  C   UNL d   1      60.810  49.209  50.782  0.00  0.00     0.116 A 
ATOM      8  C   UNL d   1      61.224  49.204  51.481  0.00  0.00     0.026 A 
ATOM      9  C   UNL d   1      60.826  49.230  52.222  0.00  0.00     0.007 A 
BRANCH   6  10
ATOM     10  O   UNL d   1      59.568  49.242  50.058  0.00  0.00    -0.326 OA
ATOM     11  C   UNL d   1      58.748  49.696  50.170  0.00  0.00     0.181 C 
ENDBRANCH   6  10
BRANCH   7  12
ATOM     12  O   UNL d   1      61.218  49.183  50.060  0.00  0.00    -0.326 OA
ATOM     13  C   UNL d   1      60.961  49.540  49.300  0.00  0.00     0.181 C 
ENDBRANCH   7  12
ENDBRANCH   2   4
BRANCH   1  14
ATOM     14  C   UNL d   1      58.517  49.692  53.733  0.00  0.00     0.182 A 
ATOM     15  N   UNL d   1      58.869  49.690  54.495  0.00  0.00    -0.283 N 
ATOM     16  C   UNL d   1      58.215  49.684  55.043  0.00  0.00     0.072 A 
ATOM     17  C   UNL d   1      59.646  49.694  54.656  0.00  0.00     0.101 C 
ATOM     18  C   UNL d   1      58.183  49.679  55.883  0.00  0.00     0.018 A 
ATOM     19  C   UNL d   1      57.547  49.682  54.611  0.00  0.00     0.048 A 
ATOM     20  C   UNL d   1      57.430  49.673  56.267  0.00  0.00     0.002 A 
ATOM     21  C   UNL d   1      56.757  49.671  55.820  0.00  0.00     0.001 A 
ATOM     22  C   UNL d   1      56.787  49.675  54.986  0.00  0.00     0.008 A 
ATOM     23  S   UNL d   1      57.710  49.687  53.828  0.00  0.00    -0.048 SA
ENDBRANCH   1  14
TORSDOF 4
ENDMDL
