MODEL 1
REMARK VINA RESULT:      -7.6      0.000      0.000
REMARK  2 active torsions:
REMARK  status: ('A' for Active; 'I' for Inactive)
REMARK    1  A    between atoms: N_7  and  C_2 
REMARK    2  A    between atoms: C_10  and  N_7 
ROOT
ATOM      1  N   UNL d   1     -47.342  12.234  23.332  0.00  0.00     0.002 N 
ATOM      2  C   UNL d   1     -48.065  12.447  22.996  0.00  0.00     0.773 A 
ATOM      3  C   UNL d   1     -46.715  12.765  23.306  0.00  0.00     0.317 A 
ATOM      4  N   UNL d   1     -48.157  13.192  22.634  0.00  0.00     0.046 NA
ATOM      5  N   UNL d   1     -47.526  13.713  22.614  0.00  0.00    -0.127 NA
ATOM      6  C   UNL d   1     -46.808  13.510  22.944  0.00  0.00     0.162 A 
ATOM      7  O   UNL d   1     -45.976  12.534  23.655  0.00  0.00    -0.263 OA
ATOM      8  N   UNL d   1     -47.252  11.502  23.687  0.00  0.00    -0.023 N 
ATOM      9  C   UNL d   1     -46.164  14.048  22.921  0.00  0.00     0.028 C 
ENDROOT
BRANCH   2  10
ATOM     10  N   UNL d   1     -48.707  11.891  23.028  0.00  0.00    -0.058 NA
BRANCH  10  11
ATOM     11  C   UNL d   1     -49.499  12.145  23.002  0.00  0.00     0.100 A 
ATOM     12  C   UNL d   1     -49.866  12.232  22.279  0.00  0.00     0.020 A 
ATOM     13  C   UNL d   1     -50.663  12.488  22.253  0.00  0.00     0.002 A 
ATOM     14  C   UNL d   1     -51.057  12.645  22.952  0.00  0.00     0.000 A 
ATOM     15  C   UNL d   1     -50.687  12.557  23.671  0.00  0.00     0.002 A 
ATOM     16  C   UNL d   1     -49.890  12.301  23.697  0.00  0.00     0.020 A 
ENDBRANCH  10  11
ENDBRANCH   2  10
TORSDOF 2
ENDMDL
MODEL 2
REMARK VINA RESULT:      -7.6      1.632      2.075
REMARK  2 active torsions:
REMARK  status: ('A' for Active; 'I' for Inactive)
REMARK    1  A    between atoms: N_7  and  C_2 
REMARK    2  A    between atoms: C_10  and  N_7 
ROOT
ATOM      1  N   UNL d   1     -46.959  13.545  23.043  0.00  0.00     0.002 N 
ATOM      2  C   UNL d   1     -47.761  13.624  22.865  0.00  0.00     0.773 A 
ATOM      3  C   UNL d   1     -46.679  12.823  23.318  0.00  0.00     0.317 A 
ATOM      4  N   UNL d   1     -48.280  12.980  22.963  0.00  0.00     0.046 NA
ATOM      5  N   UNL d   1     -47.990  12.265  23.238  0.00  0.00    -0.127 NA
ATOM      6  C   UNL d   1     -47.197  12.178  23.416  0.00  0.00     0.162 A 
ATOM      7  O   UNL d   1     -45.851  12.753  23.498  0.00  0.00    -0.263 OA
ATOM      8  N   UNL d   1     -46.450  14.178  22.946  0.00  0.00    -0.023 N 
ATOM      9  C   UNL d   1     -46.905  11.443  23.698  0.00  0.00     0.028 C 
ENDROOT
BRANCH   2  10
ATOM     10  N   UNL d   1     -48.041  14.375  22.581  0.00  0.00    -0.058 NA
BRANCH  10  11
ATOM     11  C   UNL d   1     -48.849  14.573  22.610  0.00  0.00     0.100 A 
ATOM     12  C   UNL d   1     -49.333  14.363  21.988  0.00  0.00     0.020 A 
ATOM     13  C   UNL d   1     -50.146  14.562  22.017  0.00  0.00     0.002 A 
ATOM     14  C   UNL d   1     -50.438  14.962  22.668  0.00  0.00     0.000 A 
ATOM     15  C   UNL d   1     -49.951  15.169  23.286  0.00  0.00     0.002 A 
ATOM     16  C   UNL d   1     -49.139  14.970  23.257  0.00  0.00     0.020 A 
ENDBRANCH  10  11
ENDBRANCH   2  10
TORSDOF 2
ENDMDL
MODEL 3
REMARK VINA RESULT:      -7.2      2.190      3.427
REMARK  2 active torsions:
REMARK  status: ('A' for Active; 'I' for Inactive)
REMARK    1  A    between atoms: N_7  and  C_2 
REMARK    2  A    between atoms: C_10  and  N_7 
ROOT
ATOM      1  N   UNL d   1     -49.466  14.030  22.006  0.00  0.00     0.002 N 
ATOM      2  C   UNL d   1     -48.713  13.961  22.336  0.00  0.00     0.773 A 
ATOM      3  C   UNL d   1     -49.985  14.593  22.305  0.00  0.00     0.317 A 
ATOM      4  N   UNL d   1     -48.482  14.456  22.965  0.00  0.00     0.046 NA
ATOM      5  N   UNL d   1     -49.007  15.013  23.255  0.00  0.00    -0.127 NA
ATOM      6  C   UNL d   1     -49.754  15.088  22.934  0.00  0.00     0.162 A 
ATOM      7  O   UNL d   1     -50.758  14.654  21.957  0.00  0.00    -0.263 OA
ATOM      8  N   UNL d   1     -49.692  13.543  21.388  0.00  0.00    -0.023 N 
ATOM      9  C   UNL d   1     -50.289  15.661  23.236  0.00  0.00     0.028 C 
ENDROOT
BRANCH   2  10
ATOM     10  N   UNL d   1     -48.184  13.376  22.019  0.00  0.00    -0.058 NA
BRANCH  10  11
ATOM     11  C   UNL d   1     -47.599  13.021  22.495  0.00  0.00     0.100 A 
ATOM     12  C   UNL d   1     -46.841  13.323  22.487  0.00  0.00     0.020 A 
ATOM     13  C   UNL d   1     -46.254  12.967  22.964  0.00  0.00     0.002 A 
ATOM     14  C   UNL d   1     -46.451  12.324  23.429  0.00  0.00     0.000 A 
ATOM     15  C   UNL d   1     -47.208  12.025  23.434  0.00  0.00     0.002 A 
ATOM     16  C   UNL d   1     -47.795  12.382  22.956  0.00  0.00     0.020 A 
ENDBRANCH  10  11
ENDBRANCH   2  10
TORSDOF 2
ENDMDL
MODEL 4
REMARK VINA RESULT:      -7.0      1.632      3.577
REMARK  2 active torsions:
REMARK  status: ('A' for Active; 'I' for Inactive)
REMARK    1  A    between atoms: N_7  and  C_2 
REMARK    2  A    between atoms: C_10  and  N_7 
ROOT
ATOM      1  N   UNL d   1     -49.654  12.814  22.090  0.00  0.00     0.002 N 
ATOM      2  C   UNL d   1     -48.880  12.733  22.364  0.00  0.00     0.773 A 
ATOM      3  C   UNL d   1     -50.272  12.499  22.533  0.00  0.00     0.317 A 
ATOM      4  N   UNL d   1     -48.727  12.337  23.081  0.00  0.00     0.046 NA
ATOM      5  N   UNL d   1     -49.349  12.027  23.514  0.00  0.00    -0.127 NA
ATOM      6  C   UNL d   1     -50.118  12.103  23.250  0.00  0.00     0.162 A 
ATOM      7  O   UNL d   1     -51.064  12.588  22.240  0.00  0.00    -0.263 OA
ATOM      8  N   UNL d   1     -49.805  13.203  21.386  0.00  0.00    -0.023 N 
ATOM      9  C   UNL d   1     -50.753  11.784  23.697  0.00  0.00     0.028 C 
ENDROOT
BRANCH   2  10
ATOM     10  N   UNL d   1     -48.249  13.062  21.900  0.00  0.00    -0.058 NA
BRANCH  10  11
ATOM     11  C   UNL d   1     -47.560  13.361  22.259  0.00  0.00     0.100 A 
ATOM     12  C   UNL d   1     -46.898  12.886  22.308  0.00  0.00     0.020 A 
ATOM     13  C   UNL d   1     -46.206  13.187  22.668  0.00  0.00     0.002 A 
ATOM     14  C   UNL d   1     -46.206  13.949  22.964  0.00  0.00     0.000 A 
ATOM     15  C   UNL d   1     -46.868  14.419  22.913  0.00  0.00     0.002 A 
ATOM     16  C   UNL d   1     -47.560  14.118  22.552  0.00  0.00     0.020 A 
ENDBRANCH  10  11
ENDBRANCH   2  10
TORSDOF 2
ENDMDL
