MODEL 1
REMARK VINA RESULT:       3.9      0.000      0.000
REMARK  3 active torsions:
REMARK  status: ('A' for Active; 'I' for Inactive)
REMARK    1  A    between atoms: N_8  and  C_1 
REMARK    2  A    between atoms: N_7  and  C_2 
REMARK    3  A    between atoms: C_11  and  N_8 
ROOT
ATOM      1  C   UNL d   1     -41.193-122.309 -51.762  0.00  0.00     0.139 A 
ATOM      2  C   UNL d   1     -41.215-121.612 -52.196  0.00  0.00     0.124 A 
ATOM      3  C   UNL d   1     -41.268-121.623 -53.031  0.00  0.00     0.213 A 
ATOM      4  C   UNL d   1     -41.223-123.039 -52.149  0.00  0.00     0.215 A 
ATOM      5  C   UNL d   1     -41.296-122.365 -53.401  0.00  0.00     0.044 A 
ATOM      6  C   UNL d   1     -41.274-123.062 -52.967  0.00  0.00     0.044 A 
ATOM      7  O   UNL d   1     -41.290-120.919 -53.469  0.00  0.00    -0.285 OA
ATOM      8  O   UNL d   1     -41.201-123.742 -51.710  0.00  0.00    -0.285 OA
ATOM      9  C   UNL d   1     -41.349-122.376 -54.236  0.00  0.00     0.003 A 
ATOM     10  C   UNL d   1     -41.304-123.792 -53.354  0.00  0.00     0.003 A 
ATOM     11  C   UNL d   1     -41.378-123.121 -54.609  0.00  0.00     0.000 A 
ATOM     12  C   UNL d   1     -41.356-123.817 -54.175  0.00  0.00     0.000 A 
ENDROOT
BRANCH   1  13
ATOM     13  N   UNL d   1     -41.140-122.271 -50.921  0.00  0.00    -0.241 NA
BRANCH  13  14
ATOM     14  C   UNL d   1     -41.687-122.690 -50.460  0.00  0.00     0.082 A 
ATOM     15  C   UNL d   1     -41.425-123.274 -49.940  0.00  0.00     0.019 A 
ATOM     16  C   UNL d   1     -41.969-123.690 -49.480  0.00  0.00     0.002 A 
ATOM     17  C   UNL d   1     -42.768-123.517 -49.548  0.00  0.00     0.000 A 
ATOM     18  C   UNL d   1     -43.031-122.941 -50.060  0.00  0.00     0.002 A 
ATOM     19  C   UNL d   1     -42.487-122.524 -50.519  0.00  0.00     0.019 A 
ENDBRANCH  13  14
ENDBRANCH   1  13
BRANCH   2  20
ATOM     20  N   UNL d   1     -41.186-120.865 -51.819  0.00  0.00    -0.300 N 
ATOM     21  C   UNL d   1     -41.152-120.801 -50.994  0.00  0.00     0.080 A 
ATOM     22  C   UNL d   1     -41.124-120.061 -50.640  0.00  0.00     0.019 A 
ATOM     23  C   UNL d   1     -41.129-119.364 -51.106  0.00  0.00     0.003 A 
ATOM     24  C   UNL d   1     -41.162-119.428 -51.931  0.00  0.00     0.019 A 
ATOM     25  C   UNL d   1     -41.191-120.190 -52.307  0.00  0.00     0.080 A 
ENDBRANCH   2  20
TORSDOF 3
ENDMDL
