MODEL 1
REMARK VINA RESULT:      -4.6      0.000      0.000
REMARK  1 active torsions:
REMARK  status: ('A' for Active; 'I' for Inactive)
REMARK    1  A    between atoms: C_5  and  C_1 
ROOT
ATOM      1  C   UNL d   1      56.528  -0.795  32.135  0.00  0.00     0.169 A 
ATOM      2  N   UNL d   1      56.283  -1.490  32.493  0.00  0.00    -0.142 NA
ATOM      3  C   UNL d   1      56.152  -0.173  32.512  0.00  0.00     0.048 A 
ATOM      4  N   UNL d   1      55.752  -1.301  33.096  0.00  0.00    -0.148 NA
ATOM      5  C   UNL d   1      55.670  -0.481  33.108  0.00  0.00     0.105 A 
ATOM      6  C   UNL d   1      55.193  -0.047  33.622  0.00  0.00     0.023 C 
ENDROOT
BRANCH   1   7
ATOM      7  C   UNL d   1      57.061  -0.733  31.504  0.00  0.00     0.231 C 
ATOM      8  O   UNL d   1      57.187  -1.381  31.011  0.00  0.00    -0.643 OA
ATOM      9  O   UNL d   1      57.462  -0.027  31.371  0.00  0.00    -0.643 OA
ENDBRANCH   1   7
TORSDOF 1
ENDMDL
MODEL 2
REMARK VINA RESULT:      -4.4      1.746      2.378
REMARK  1 active torsions:
REMARK  status: ('A' for Active; 'I' for Inactive)
REMARK    1  A    between atoms: C_5  and  C_1 
ROOT
ATOM      1  C   UNL d   1      55.813  -0.422  33.125  0.00  0.00     0.169 A 
ATOM      2  N   UNL d   1      55.815  -1.240  33.088  0.00  0.00    -0.142 NA
ATOM      3  C   UNL d   1      56.282  -0.142  32.516  0.00  0.00     0.048 A 
ATOM      4  N   UNL d   1      56.288  -1.472  32.452  0.00  0.00    -0.148 NA
ATOM      5  C   UNL d   1      56.579  -0.788  32.096  0.00  0.00     0.105 A 
ATOM      6  C   UNL d   1      57.077  -0.755  31.439  0.00  0.00     0.023 C 
ENDROOT
BRANCH   1   7
ATOM      7  C   UNL d   1      55.407   0.040  33.681  0.00  0.00     0.231 C 
ATOM      8  O   UNL d   1      55.819   0.372  34.313  0.00  0.00    -0.643 OA
ATOM      9  O   UNL d   1      54.598   0.166  33.601  0.00  0.00    -0.643 OA
ENDBRANCH   1   7
TORSDOF 1
ENDMDL
MODEL 3
REMARK VINA RESULT:      -4.3      1.021      1.267
REMARK  1 active torsions:
REMARK  status: ('A' for Active; 'I' for Inactive)
REMARK    1  A    between atoms: C_5  and  C_1 
ROOT
ATOM      1  C   UNL d   1      57.042  -0.328  31.557  0.00  0.00     0.169 A 
ATOM      2  N   UNL d   1      57.007  -1.132  31.404  0.00  0.00    -0.142 NA
ATOM      3  C   UNL d   1      56.586  -0.178  32.220  0.00  0.00     0.048 A 
ATOM      4  N   UNL d   1      56.526  -1.485  31.976  0.00  0.00    -0.148 NA
ATOM      5  C   UNL d   1      56.264  -0.891  32.483  0.00  0.00     0.105 A 
ATOM      6  C   UNL d   1      55.770  -0.991  33.136  0.00  0.00     0.023 C 
ENDROOT
BRANCH   1   7
ATOM      7  C   UNL d   1      57.465   0.233  31.117  0.00  0.00     0.231 C 
ATOM      8  O   UNL d   1      58.196   0.497  31.389  0.00  0.00    -0.643 OA
ATOM      9  O   UNL d   1      57.154   0.525  30.413  0.00  0.00    -0.643 OA
ENDBRANCH   1   7
TORSDOF 1
ENDMDL
MODEL 4
REMARK VINA RESULT:      -3.9      7.908      8.184
REMARK  1 active torsions:
REMARK  status: ('A' for Active; 'I' for Inactive)
REMARK    1  A    between atoms: C_5  and  C_1 
ROOT
ATOM      1  C   UNL d   1      59.669  -7.055  35.927  0.00  0.00     0.169 A 
ATOM      2  N   UNL d   1      59.332  -6.403  35.563  0.00  0.00    -0.142 NA
ATOM      3  C   UNL d   1      60.380  -6.819  36.257  0.00  0.00     0.048 A 
ATOM      4  N   UNL d   1      59.836  -5.757  35.666  0.00  0.00    -0.148 NA
ATOM      5  C   UNL d   1      60.489  -6.016  36.098  0.00  0.00     0.105 A 
ATOM      6  C   UNL d   1      61.133  -5.556  36.330  0.00  0.00     0.023 C 
ENDROOT
BRANCH   1   7
ATOM      7  C   UNL d   1      59.346  -7.818  35.956  0.00  0.00     0.231 C 
ATOM      8  O   UNL d   1      59.774  -8.454  35.653  0.00  0.00    -0.643 OA
ATOM      9  O   UNL d   1      58.603  -7.939  36.286  0.00  0.00    -0.643 OA
ENDBRANCH   1   7
TORSDOF 1
ENDMDL
MODEL 5
REMARK VINA RESULT:      -3.2      8.637      8.949
REMARK  1 active torsions:
REMARK  status: ('A' for Active; 'I' for Inactive)
REMARK    1  A    between atoms: C_5  and  C_1 
ROOT
ATOM      1  C   UNL d   1      59.647  -8.317  35.662  0.00  0.00     0.169 A 
ATOM      2  N   UNL d   1      60.270  -8.091  35.181  0.00  0.00    -0.142 NA
ATOM      3  C   UNL d   1      59.452  -7.680  36.138  0.00  0.00     0.048 A 
ATOM      4  N   UNL d   1      60.465  -7.308  35.359  0.00  0.00    -0.148 NA
ATOM      5  C   UNL d   1      59.956  -7.053  35.954  0.00  0.00     0.105 A 
ATOM      6  C   UNL d   1      59.951  -6.305  36.303  0.00  0.00     0.023 C 
ENDROOT
BRANCH   1   7
ATOM      7  C   UNL d   1      59.278  -9.060  35.666  0.00  0.00     0.231 C 
ATOM      8  O   UNL d   1      58.847  -9.298  36.326  0.00  0.00    -0.643 OA
ATOM      9  O   UNL d   1      59.344  -9.555  35.012  0.00  0.00    -0.643 OA
ENDBRANCH   1   7
TORSDOF 1
ENDMDL
MODEL 6
REMARK VINA RESULT:      -3.1      8.499      8.896
REMARK  1 active torsions:
REMARK  status: ('A' for Active; 'I' for Inactive)
REMARK    1  A    between atoms: C_5  and  C_1 
ROOT
ATOM      1  C   UNL d   1      59.998  -7.665  35.437  0.00  0.00     0.169 A 
ATOM      2  N   UNL d   1      60.782  -7.542  35.237  0.00  0.00    -0.142 NA
ATOM      3  C   UNL d   1      59.775  -8.395  35.139  0.00  0.00     0.048 A 
ATOM      4  N   UNL d   1      61.050  -8.198  34.813  0.00  0.00    -0.148 NA
ATOM      5  C   UNL d   1      60.423  -8.729  34.752  0.00  0.00     0.105 A 
ATOM      6  C   UNL d   1      60.441  -9.461  34.373  0.00  0.00     0.023 C 
ENDROOT
BRANCH   1   7
ATOM      7  C   UNL d   1      59.515  -7.144  35.864  0.00  0.00     0.231 C 
ATOM      8  O   UNL d   1      59.654  -6.333  35.824  0.00  0.00    -0.643 OA
ATOM      9  O   UNL d   1      58.899  -7.437  36.324  0.00  0.00    -0.643 OA
ENDBRANCH   1   7
TORSDOF 1
ENDMDL
MODEL 7
REMARK VINA RESULT:      -2.9      1.813      2.738
REMARK  1 active torsions:
REMARK  status: ('A' for Active; 'I' for Inactive)
REMARK    1  A    between atoms: C_5  and  C_1 
ROOT
ATOM      1  C   UNL d   1      57.274  -0.228  31.353  0.00  0.00     0.169 A 
ATOM      2  N   UNL d   1      57.423  -0.883  30.885  0.00  0.00    -0.142 NA
ATOM      3  C   UNL d   1      57.544   0.434  30.954  0.00  0.00     0.048 A 
ATOM      4  N   UNL d   1      57.787  -0.629  30.189  0.00  0.00    -0.148 NA
ATOM      5  C   UNL d   1      57.862   0.191  30.232  0.00  0.00     0.105 A 
ATOM      6  C   UNL d   1      58.196   0.680  29.657  0.00  0.00     0.023 C 
ENDROOT
BRANCH   1   7
ATOM      7  C   UNL d   1      56.914  -0.235  32.100  0.00  0.00     0.231 C 
ATOM      8  O   UNL d   1      56.353  -0.811  32.278  0.00  0.00    -0.643 OA
ATOM      9  O   UNL d   1      57.117   0.333  32.660  0.00  0.00    -0.643 OA
ENDBRANCH   1   7
TORSDOF 1
ENDMDL
MODEL 8
REMARK VINA RESULT:      -2.9      8.955      9.241
REMARK  1 active torsions:
REMARK  status: ('A' for Active; 'I' for Inactive)
REMARK    1  A    between atoms: C_5  and  C_1 
ROOT
ATOM      1  C   UNL d   1      59.505  -9.034  35.156  0.00  0.00     0.169 A 
ATOM      2  N   UNL d   1      59.094  -9.317  35.805  0.00  0.00    -0.142 NA
ATOM      3  C   UNL d   1      59.639  -8.235  35.272  0.00  0.00     0.048 A 
ATOM      4  N   UNL d   1      58.970  -8.691  36.329  0.00  0.00    -0.148 NA
ATOM      5  C   UNL d   1      59.309  -8.017  35.997  0.00  0.00     0.105 A 
ATOM      6  C   UNL d   1      59.318  -7.262  36.330  0.00  0.00     0.023 C 
ENDROOT
BRANCH   1   7
ATOM      7  C   UNL d   1      59.744  -9.478  34.498  0.00  0.00     0.231 C 
ATOM      8  O   UNL d   1      60.510  -9.780  34.466  0.00  0.00    -0.643 OA
ATOM      9  O   UNL d   1      59.218  -9.616  33.881  0.00  0.00    -0.643 OA
ENDBRANCH   1   7
TORSDOF 1
ENDMDL
MODEL 9
REMARK VINA RESULT:      -2.3      9.317      9.579
REMARK  1 active torsions:
REMARK  status: ('A' for Active; 'I' for Inactive)
REMARK    1  A    between atoms: C_5  and  C_1 
ROOT
ATOM      1  C   UNL d   1      60.003  -9.069  34.505  0.00  0.00     0.169 A 
ATOM      2  N   UNL d   1      59.279  -9.418  34.664  0.00  0.00    -0.142 NA
ATOM      3  C   UNL d   1      60.164  -9.176  33.709  0.00  0.00     0.048 A 
ATOM      4  N   UNL d   1      58.987  -9.743  33.964  0.00  0.00    -0.148 NA
ATOM      5  C   UNL d   1      59.538  -9.593  33.370  0.00  0.00     0.105 A 
ATOM      6  C   UNL d   1      59.474  -9.818  32.578  0.00  0.00     0.023 C 
ENDROOT
BRANCH   1   7
ATOM      7  C   UNL d   1      60.487  -8.678  35.053  0.00  0.00     0.231 C 
ATOM      8  O   UNL d   1      60.751  -7.914  34.892  0.00  0.00    -0.643 OA
ATOM      9  O   UNL d   1      60.703  -9.052  35.753  0.00  0.00    -0.643 OA
ENDBRANCH   1   7
TORSDOF 1
ENDMDL
