MODEL 1
REMARK VINA RESULT:      -9.3      0.000      0.000
REMARK  2 active torsions:
REMARK  status: ('A' for Active; 'I' for Inactive)
REMARK    1  A    between atoms: C_9  and  N_1 
REMARK    2  A    between atoms: C_2  and  C_10 
ROOT
ATOM      1  C   UNL d   1      52.596  33.635  53.608  0.00  0.00     0.070 A 
ATOM      2  C   UNL d   1      51.174  34.082  52.857  0.00  0.00     0.024 A 
ATOM      3  C   UNL d   1      51.930  33.164  53.678  0.00  0.00     0.018 A 
ATOM      4  C   UNL d   1      52.583  34.327  53.174  0.00  0.00     0.018 A 
ATOM      5  C   UNL d   1      51.207  33.392  53.296  0.00  0.00     0.004 A 
ATOM      6  C   UNL d   1      51.864  34.554  52.794  0.00  0.00     0.004 A 
ENDROOT
BRANCH   2   7
ATOM      7  C   UNL d   1      50.587  34.267  52.546  0.00  0.00     0.111 A 
ATOM      8  N   UNL d   1      49.929  34.758  52.949  0.00  0.00    -0.239 NA
ATOM      9  C   UNL d   1      49.331  34.836  52.343  0.00  0.00     0.088 A 
ATOM     10  C   UNL d   1      48.655  35.206  52.401  0.00  0.00     0.020 A 
ATOM     11  C   UNL d   1      49.574  34.451  51.655  0.00  0.00     0.049 A 
ATOM     12  C   UNL d   1      48.145  35.210  51.716  0.00  0.00     0.002 A 
ATOM     13  C   UNL d   1      48.381  34.835  51.047  0.00  0.00     0.001 A 
ATOM     14  C   UNL d   1      49.098  34.443  50.988  0.00  0.00     0.008 A 
ATOM     15  S   UNL d   1      50.399  34.095  51.836  0.00  0.00    -0.066 SA
ENDBRANCH   2   7
BRANCH   1  16
ATOM     16  N   UNL d   1      53.307  33.411  53.984  0.00  0.00    -0.242 N 
ATOM     17  C   UNL d   1      53.790  32.830  53.656  0.00  0.00     0.267 A 
ATOM     18  C   UNL d   1      54.440  32.741  54.155  0.00  0.00     0.066 A 
ATOM     19  O   UNL d   1      53.672  32.378  52.930  0.00  0.00    -0.267 OA
ATOM     20  C   UNL d   1      54.345  33.281  54.798  0.00  0.00     0.066 A 
ATOM     21  C   UNL d   1      53.626  33.693  54.671  0.00  0.00     0.267 A 
ATOM     22  O   UNL d   1      53.319  34.274  55.166  0.00  0.00    -0.267 OA
ENDBRANCH   1  16
TORSDOF 2
ENDMDL
MODEL 2
REMARK VINA RESULT:      -8.7      1.657      4.808
REMARK  2 active torsions:
REMARK  status: ('A' for Active; 'I' for Inactive)
REMARK    1  A    between atoms: C_9  and  N_1 
REMARK    2  A    between atoms: C_2  and  C_10 
ROOT
ATOM      1  C   UNL d   1      50.191  34.393  52.479  0.00  0.00     0.070 A 
ATOM      2  C   UNL d   1      51.611  33.833  53.154  0.00  0.00     0.024 A 
ATOM      3  C   UNL d   1      50.906  34.731  52.268  0.00  0.00     0.018 A 
ATOM      4  C   UNL d   1      50.154  33.781  53.019  0.00  0.00     0.018 A 
ATOM      5  C   UNL d   1      51.628  34.447  52.611  0.00  0.00     0.004 A 
ATOM      6  C   UNL d   1      50.872  33.498  53.360  0.00  0.00     0.004 A 
ENDROOT
BRANCH   2   7
ATOM      7  C   UNL d   1      52.199  33.602  53.433  0.00  0.00     0.111 A 
ATOM      8  N   UNL d   1      52.590  33.967  54.173  0.00  0.00    -0.239 NA
ATOM      9  C   UNL d   1      53.290  33.491  54.291  0.00  0.00     0.088 A 
ATOM     10  C   UNL d   1      53.819  33.570  54.850  0.00  0.00     0.020 A 
ATOM     11  C   UNL d   1      53.336  32.907  53.710  0.00  0.00     0.049 A 
ATOM     12  C   UNL d   1      54.475  33.024  54.854  0.00  0.00     0.002 A 
ATOM     13  C   UNL d   1      54.520  32.456  54.288  0.00  0.00     0.001 A 
ATOM     14  C   UNL d   1      53.958  32.375  53.698  0.00  0.00     0.008 A 
ATOM     15  S   UNL d   1      52.602  33.020  53.172  0.00  0.00    -0.066 SA
ENDBRANCH   2   7
BRANCH   1  16
ATOM     16  N   UNL d   1      49.480  34.673  52.142  0.00  0.00    -0.242 N 
ATOM     17  C   UNL d   1      48.991  35.186  52.561  0.00  0.00     0.267 A 
ATOM     18  C   UNL d   1      48.343  35.355  52.079  0.00  0.00     0.066 A 
ATOM     19  O   UNL d   1      49.101  35.508  53.354  0.00  0.00    -0.267 OA
ATOM     20  C   UNL d   1      48.448  34.933  51.354  0.00  0.00     0.066 A 
ATOM     21  C   UNL d   1      49.169  34.511  51.414  0.00  0.00     0.267 A 
ATOM     22  O   UNL d   1      49.483  34.026  50.829  0.00  0.00    -0.267 OA
ENDBRANCH   1  16
TORSDOF 2
ENDMDL
MODEL 3
REMARK VINA RESULT:      -7.0      2.842      4.420
REMARK  2 active torsions:
REMARK  status: ('A' for Active; 'I' for Inactive)
REMARK    1  A    between atoms: C_9  and  N_1 
REMARK    2  A    between atoms: C_2  and  C_10 
ROOT
ATOM      1  C   UNL d   1      53.155  33.867  54.077  0.00  0.00     0.070 A 
ATOM      2  C   UNL d   1      53.137  32.214  53.845  0.00  0.00     0.024 A 
ATOM      3  C   UNL d   1      53.857  33.445  54.075  0.00  0.00     0.018 A 
ATOM      4  C   UNL d   1      52.436  33.494  53.968  0.00  0.00     0.018 A 
ATOM      5  C   UNL d   1      53.848  32.605  53.957  0.00  0.00     0.004 A 
ATOM      6  C   UNL d   1      52.427  32.658  53.850  0.00  0.00     0.004 A 
ENDROOT
BRANCH   2   7
ATOM      7  C   UNL d   1      53.129  31.531  53.749  0.00  0.00     0.111 A 
ATOM      8  N   UNL d   1      53.408  30.925  54.373  0.00  0.00    -0.239 NA
ATOM      9  C   UNL d   1      53.289  30.169  53.993  0.00  0.00     0.088 A 
ATOM     10  C   UNL d   1      53.439  29.470  54.288  0.00  0.00     0.020 A 
ATOM     11  C   UNL d   1      52.979  30.278  53.236  0.00  0.00     0.049 A 
ATOM     12  C   UNL d   1      53.273  28.789  53.799  0.00  0.00     0.002 A 
ATOM     13  C   UNL d   1      52.972  28.896  53.062  0.00  0.00     0.001 A 
ATOM     14  C   UNL d   1      52.814  29.638  52.753  0.00  0.00     0.008 A 
ATOM     15  S   UNL d   1      52.892  31.184  53.122  0.00  0.00    -0.066 SA
ENDBRANCH   2   7
BRANCH   1  16
ATOM     16  N   UNL d   1      53.165  34.693  54.194  0.00  0.00    -0.242 N 
ATOM     17  C   UNL d   1      53.041  35.207  53.562  0.00  0.00     0.267 A 
ATOM     18  C   UNL d   1      53.084  35.975  53.858  0.00  0.00     0.066 A 
ATOM     19  O   UNL d   1      52.892  35.016  52.733  0.00  0.00    -0.267 OA
ATOM     20  C   UNL d   1      53.237  35.921  54.688  0.00  0.00     0.066 A 
ATOM     21  C   UNL d   1      53.284  35.106  54.878  0.00  0.00     0.267 A 
ATOM     22  O   UNL d   1      53.426  34.803  55.629  0.00  0.00    -0.267 OA
ENDBRANCH   1  16
TORSDOF 2
ENDMDL
MODEL 4
REMARK VINA RESULT:      -6.3     10.394     11.126
REMARK  2 active torsions:
REMARK  status: ('A' for Active; 'I' for Inactive)
REMARK    1  A    between atoms: C_9  and  N_1 
REMARK    2  A    between atoms: C_2  and  C_10 
ROOT
ATOM      1  C   UNL d   1      44.911  28.886  58.647  0.00  0.00     0.070 A 
ATOM      2  C   UNL d   1      44.719  29.689  60.097  0.00  0.00     0.024 A 
ATOM      3  C   UNL d   1      44.445  28.560  59.237  0.00  0.00     0.018 A 
ATOM      4  C   UNL d   1      45.288  29.603  58.751  0.00  0.00     0.018 A 
ATOM      5  C   UNL d   1      44.348  28.968  59.974  0.00  0.00     0.004 A 
ATOM      6  C   UNL d   1      45.191  30.009  59.484  0.00  0.00     0.004 A 
ENDROOT
BRANCH   2   7
ATOM      7  C   UNL d   1      44.639  30.021  60.697  0.00  0.00     0.111 A 
ATOM      8  N   UNL d   1      44.609  30.930  60.776  0.00  0.00    -0.239 NA
ATOM      9  C   UNL d   1      44.505  31.060  61.615  0.00  0.00     0.088 A 
ATOM     10  C   UNL d   1      44.446  31.740  61.977  0.00  0.00     0.020 A 
ATOM     11  C   UNL d   1      44.475  30.337  62.011  0.00  0.00     0.049 A 
ATOM     12  C   UNL d   1      44.345  31.730  62.825  0.00  0.00     0.002 A 
ATOM     13  C   UNL d   1      44.315  31.027  63.211  0.00  0.00     0.001 A 
ATOM     14  C   UNL d   1      44.378  30.307  62.824  0.00  0.00     0.008 A 
ATOM     15  S   UNL d   1      44.566  29.688  61.370  0.00  0.00    -0.066 SA
ENDBRANCH   2   7
BRANCH   1  16
ATOM     16  N   UNL d   1      45.007  28.484  57.921  0.00  0.00    -0.242 N 
ATOM     17  C   UNL d   1      45.396  27.758  57.892  0.00  0.00     0.267 A 
ATOM     18  C   UNL d   1      45.397  27.512  57.105  0.00  0.00     0.066 A 
ATOM     19  O   UNL d   1      45.748  27.309  58.540  0.00  0.00    -0.267 OA
ATOM     20  C   UNL d   1      44.999  28.105  56.651  0.00  0.00     0.066 A 
ATOM     21  C   UNL d   1      44.762  28.707  57.184  0.00  0.00     0.267 A 
ATOM     22  O   UNL d   1      44.356  29.391  56.975  0.00  0.00    -0.267 OA
ENDBRANCH   1  16
TORSDOF 2
ENDMDL
