MODEL 1
REMARK VINA RESULT:      -5.9      0.000      0.000
REMARK  5 active torsions:
REMARK  status: ('A' for Active; 'I' for Inactive)
REMARK    1  A    between atoms: C_6  and  C_1 
REMARK    2  A    between atoms: C_7  and  C_6 
REMARK    3  A    between atoms: C_10  and  O_14 
REMARK    4  A    between atoms: C_20  and  C_10 
REMARK    5  A    between atoms: O_14  and  C_12 
ROOT
ATOM      1  C   UNL d   1     -41.293-123.173 -50.771  0.00  0.00     0.141 A 
ATOM      2  C   UNL d   1     -41.197-122.401 -51.851  0.00  0.00     0.064 A 
ATOM      3  C   UNL d   1     -41.201-122.398 -51.032  0.00  0.00     0.220 A 
ATOM      4  C   UNL d   1     -41.286-123.180 -52.105  0.00  0.00     0.105 A 
ATOM      5  O   UNL d   1     -41.346-123.664 -51.435  0.00  0.00    -0.304 OA
ATOM      6  C   UNL d   1     -41.302-123.350 -52.904  0.00  0.00     0.050 A 
ATOM      7  C   UNL d   1     -41.123-121.794 -52.402  0.00  0.00     0.007 A 
ATOM      8  C   UNL d   1     -41.228-122.743 -53.456  0.00  0.00     0.105 A 
ATOM      9  O   UNL d   1     -41.126-121.732 -50.544  0.00  0.00    -0.284 OA
ATOM     10  C   UNL d   1     -41.138-121.967 -53.203  0.00  0.00     0.025 A 
ENDROOT
BRANCH   1  11
ATOM     11  C   UNL d   1     -41.327-123.425 -49.986  0.00  0.00     0.053 C 
BRANCH  11  12
ATOM     12  C   UNL d   1     -42.056-123.542 -49.613  0.00  0.00     0.102 A 
ATOM     13  O   UNL d   1     -42.759-123.768 -49.971  0.00  0.00    -0.305 OA
ATOM     14  C   UNL d   1     -43.342-123.817 -49.390  0.00  0.00     0.123 A 
ATOM     15  C   UNL d   1     -43.001-123.620 -48.664  0.00  0.00     0.029 A 
ATOM     16  C   UNL d   1     -42.204-123.448 -48.797  0.00  0.00     0.027 A 
ENDBRANCH  11  12
ENDBRANCH   1  11
BRANCH   8  17
ATOM     17  O   UNL d   1     -41.243-122.915 -54.260  0.00  0.00    -0.273 OA
BRANCH  17  18
ATOM     18  C   UNL d   1     -41.899-122.715 -54.712  0.00  0.00     0.300 C 
ATOM     19  O   UNL d   1     -42.618-123.099 -54.585  0.00  0.00    -0.259 OA
BRANCH  18  20
ATOM     20  C   UNL d   1     -41.832-122.128 -55.292  0.00  0.00     0.069 C 
ATOM     21  C   UNL d   1     -42.486-121.947 -55.764  0.00  0.00     0.006 C 
ENDBRANCH  18  20
ENDBRANCH  17  18
ENDBRANCH   8  17
TORSDOF 5
ENDMDL
