MODEL 1
REMARK VINA RESULT:      -9.1      0.000      0.000
REMARK  4 active torsions:
REMARK  status: ('A' for Active; 'I' for Inactive)
REMARK    1  A    between atoms: S_7  and  C_1 
REMARK       I    between atoms: N_5  and  C_9 
REMARK    2  A    between atoms: C_10  and  S_7 
REMARK    3  A    between atoms: C_15  and  N_8 
REMARK    4  A    between atoms: C_9  and  C_10 
ROOT
ATOM      1  N   UNL d   1      50.450  34.494  52.470  0.00  0.00    -0.269 N 
ATOM      2  N   UNL d   1      48.926  35.140  52.443  0.00  0.00    -0.301 N 
ATOM      3  C   UNL d   1      51.216  34.168  52.479  0.00  0.00     0.271 C 
ATOM      4  C   UNL d   1      50.150  34.880  53.139  0.00  0.00     0.102 A 
ATOM      5  C   UNL d   1      49.991  34.429  51.787  0.00  0.00     0.102 A 
ATOM      6  C   UNL d   1      49.230  34.753  51.777  0.00  0.00     0.100 A 
ATOM      7  C   UNL d   1      49.395  35.201  53.126  0.00  0.00     0.100 A 
ATOM      8  O   UNL d   1      51.511  33.783  51.808  0.00  0.00    -0.266 OA
ENDROOT
BRANCH   3   9
ATOM      9  C   UNL d   1      51.673  34.235  53.166  0.00  0.00     0.097 C 
BRANCH   9  10
ATOM     10  S   UNL d   1      52.496  34.196  53.106  0.00  0.00    -0.080 SA
BRANCH  10  11
ATOM     11  C   UNL d   1      52.953  34.144  53.799  0.00  0.00     0.049 A 
ATOM     12  C   UNL d   1      53.139  34.763  54.306  0.00  0.00     0.087 A 
ATOM     13  N   UNL d   1      53.602  34.466  54.921  0.00  0.00    -0.245 NA
ATOM     14  C   UNL d   1      52.900  35.546  54.209  0.00  0.00     0.021 C 
ATOM     15  C   UNL d   1      53.697  33.651  54.783  0.00  0.00     0.082 A 
ATOM     16  C   UNL d   1      53.296  33.458  54.090  0.00  0.00     0.025 A 
ATOM     17  C   UNL d   1      54.101  33.068  55.206  0.00  0.00     0.019 A 
ATOM     18  C   UNL d   1      53.298  32.682  53.822  0.00  0.00     0.002 A 
ATOM     19  C   UNL d   1      53.697  32.092  54.236  0.00  0.00     0.000 A 
ATOM     20  C   UNL d   1      54.102  32.296  54.936  0.00  0.00     0.002 A 
ENDBRANCH  10  11
ENDBRANCH   9  10
ENDBRANCH   3   9
BRANCH   2  21
ATOM     21  C   UNL d   1      48.169  35.459  52.425  0.00  0.00     0.064 A 
ATOM     22  C   UNL d   1      47.877  35.867  53.081  0.00  0.00     0.018 A 
ATOM     23  C   UNL d   1      47.108  36.190  53.059  0.00  0.00     0.002 A 
ATOM     24  C   UNL d   1      46.643  36.099  52.380  0.00  0.00     0.000 A 
ATOM     25  C   UNL d   1      46.937  35.691  51.729  0.00  0.00     0.002 A 
ATOM     26  C   UNL d   1      47.694  35.375  51.751  0.00  0.00     0.018 A 
ENDBRANCH   2  21
TORSDOF 4
ENDMDL
MODEL 2
REMARK VINA RESULT:      -8.3      1.153      1.616
REMARK  4 active torsions:
REMARK  status: ('A' for Active; 'I' for Inactive)
REMARK    1  A    between atoms: S_7  and  C_1 
REMARK       I    between atoms: N_5  and  C_9 
REMARK    2  A    between atoms: C_10  and  S_7 
REMARK    3  A    between atoms: C_15  and  N_8 
REMARK    4  A    between atoms: C_9  and  C_10 
ROOT
ATOM      1  N   UNL d   1      51.032  34.067  52.499  0.00  0.00    -0.269 N 
ATOM      2  N   UNL d   1      49.607  34.871  52.749  0.00  0.00    -0.301 N 
ATOM      3  C   UNL d   1      51.749  33.664  52.367  0.00  0.00     0.271 C 
ATOM      4  C   UNL d   1      50.695  34.092  53.255  0.00  0.00     0.102 A 
ATOM      5  C   UNL d   1      50.659  34.444  51.865  0.00  0.00     0.102 A 
ATOM      6  C   UNL d   1      49.947  34.844  51.993  0.00  0.00     0.100 A 
ATOM      7  C   UNL d   1      49.989  34.490  53.379  0.00  0.00     0.100 A 
ATOM      8  O   UNL d   1      52.081  33.643  51.609  0.00  0.00    -0.266 OA
ENDROOT
BRANCH   3   9
ATOM      9  C   UNL d   1      52.119  33.288  53.005  0.00  0.00     0.097 C 
BRANCH   9  10
ATOM     10  S   UNL d   1      52.867  32.955  52.895  0.00  0.00    -0.080 SA
BRANCH  10  11
ATOM     11  C   UNL d   1      53.169  32.431  53.467  0.00  0.00     0.049 A 
ATOM     12  C   UNL d   1      53.548  32.641  54.165  0.00  0.00     0.087 A 
ATOM     13  N   UNL d   1      53.755  31.951  54.566  0.00  0.00    -0.245 NA
ATOM     14  C   UNL d   1      53.692  33.413  54.415  0.00  0.00     0.021 C 
ATOM     15  C   UNL d   1      53.496  31.311  54.101  0.00  0.00     0.082 A 
ATOM     16  C   UNL d   1      53.136  31.613  53.425  0.00  0.00     0.025 A 
ATOM     17  C   UNL d   1      53.548  30.494  54.215  0.00  0.00     0.019 A 
ATOM     18  C   UNL d   1      52.827  31.098  52.864  0.00  0.00     0.002 A 
ATOM     19  C   UNL d   1      52.873  30.282  52.968  0.00  0.00     0.000 A 
ATOM     20  C   UNL d   1      53.239  29.984  53.655  0.00  0.00     0.002 A 
ENDBRANCH  10  11
ENDBRANCH   9  10
ENDBRANCH   3   9
BRANCH   2  21
ATOM     21  C   UNL d   1      48.899  35.272  52.868  0.00  0.00     0.064 A 
ATOM     22  C   UNL d   1      48.770  35.680  53.575  0.00  0.00     0.018 A 
ATOM     23  C   UNL d   1      48.050  36.085  53.692  0.00  0.00     0.002 A 
ATOM     24  C   UNL d   1      47.471  36.076  53.100  0.00  0.00     0.000 A 
ATOM     25  C   UNL d   1      47.604  35.668  52.397  0.00  0.00     0.002 A 
ATOM     26  C   UNL d   1      48.312  35.270  52.283  0.00  0.00     0.018 A 
ENDBRANCH   2  21
TORSDOF 4
ENDMDL
MODEL 3
REMARK VINA RESULT:      -7.1      1.656      5.998
REMARK  4 active torsions:
REMARK  status: ('A' for Active; 'I' for Inactive)
REMARK    1  A    between atoms: S_7  and  C_1 
REMARK       I    between atoms: N_5  and  C_9 
REMARK    2  A    between atoms: C_10  and  S_7 
REMARK    3  A    between atoms: C_15  and  N_8 
REMARK    4  A    between atoms: C_9  and  C_10 
ROOT
ATOM      1  N   UNL d   1      49.538  34.652  51.952  0.00  0.00    -0.269 N 
ATOM      2  N   UNL d   1      50.970  34.142  52.604  0.00  0.00    -0.301 N 
ATOM      3  C   UNL d   1      48.818  34.907  51.619  0.00  0.00     0.271 C 
ATOM      4  C   UNL d   1      49.672  34.723  52.766  0.00  0.00     0.102 A 
ATOM      5  C   UNL d   1      50.117  34.327  51.462  0.00  0.00     0.102 A 
ATOM      6  C   UNL d   1      50.831  34.073  51.790  0.00  0.00     0.100 A 
ATOM      7  C   UNL d   1      50.383  34.470  53.090  0.00  0.00     0.100 A 
ATOM      8  O   UNL d   1      48.688  34.835  50.805  0.00  0.00    -0.266 OA
ENDROOT
BRANCH   3   9
ATOM      9  C   UNL d   1      48.240  35.233  52.114  0.00  0.00     0.097 C 
BRANCH   9  10
ATOM     10  S   UNL d   1      47.682  35.751  51.795  0.00  0.00    -0.080 SA
BRANCH  10  11
ATOM     11  C   UNL d   1      47.015  35.961  52.245  0.00  0.00     0.049 A 
ATOM     12  C   UNL d   1      47.016  36.401  52.938  0.00  0.00     0.087 A 
ATOM     13  N   UNL d   1      46.237  36.478  53.199  0.00  0.00    -0.245 NA
ATOM     14  C   UNL d   1      47.687  36.709  53.305  0.00  0.00     0.021 C 
ATOM     15  C   UNL d   1      45.756  36.077  52.651  0.00  0.00     0.082 A 
ATOM     16  C   UNL d   1      46.240  35.760  52.066  0.00  0.00     0.025 A 
ATOM     17  C   UNL d   1      44.938  35.964  52.621  0.00  0.00     0.019 A 
ATOM     18  C   UNL d   1      45.906  35.332  51.450  0.00  0.00     0.002 A 
ATOM     19  C   UNL d   1      45.092  35.213  51.409  0.00  0.00     0.000 A 
ATOM     20  C   UNL d   1      44.608  35.538  52.006  0.00  0.00     0.002 A 
ENDBRANCH  10  11
ENDBRANCH   9  10
ENDBRANCH   3   9
BRANCH   2  21
ATOM     21  C   UNL d   1      51.684  33.887  52.923  0.00  0.00     0.064 A 
ATOM     22  C   UNL d   1      52.258  34.438  53.144  0.00  0.00     0.018 A 
ATOM     23  C   UNL d   1      52.981  34.175  53.467  0.00  0.00     0.002 A 
ATOM     24  C   UNL d   1      53.117  33.364  53.566  0.00  0.00     0.000 A 
ATOM     25  C   UNL d   1      52.543  32.818  53.345  0.00  0.00     0.002 A 
ATOM     26  C   UNL d   1      51.832  33.078  53.027  0.00  0.00     0.018 A 
ENDBRANCH   2  21
TORSDOF 4
ENDMDL
MODEL 4
REMARK VINA RESULT:      -7.0      1.425      5.694
REMARK  4 active torsions:
REMARK  status: ('A' for Active; 'I' for Inactive)
REMARK    1  A    between atoms: S_7  and  C_1 
REMARK       I    between atoms: N_5  and  C_9 
REMARK    2  A    between atoms: C_10  and  S_7 
REMARK    3  A    between atoms: C_15  and  N_8 
REMARK    4  A    between atoms: C_9  and  C_10 
ROOT
ATOM      1  N   UNL d   1      51.390  33.731  53.076  0.00  0.00    -0.269 N 
ATOM      2  N   UNL d   1      52.276  32.340  53.215  0.00  0.00    -0.301 N 
ATOM      3  C   UNL d   1      50.949  34.434  53.008  0.00  0.00     0.271 C 
ATOM      4  C   UNL d   1      51.080  33.012  52.806  0.00  0.00     0.102 A 
ATOM      5  C   UNL d   1      52.143  33.758  53.415  0.00  0.00     0.102 A 
ATOM      6  C   UNL d   1      52.582  33.062  53.483  0.00  0.00     0.100 A 
ATOM      7  C   UNL d   1      51.519  32.322  52.875  0.00  0.00     0.100 A 
ATOM      8  O   UNL d   1      51.263  35.150  53.279  0.00  0.00    -0.266 OA
ENDROOT
BRANCH   3   9
ATOM      9  C   UNL d   1      50.195  34.402  52.668  0.00  0.00     0.097 C 
BRANCH   9  10
ATOM     10  S   UNL d   1      49.858  35.097  52.373  0.00  0.00    -0.080 SA
BRANCH  10  11
ATOM     11  C   UNL d   1      49.063  35.092  52.127  0.00  0.00     0.049 A 
ATOM     12  C   UNL d   1      48.769  34.749  51.442  0.00  0.00     0.087 A 
ATOM     13  N   UNL d   1      47.954  34.875  51.417  0.00  0.00    -0.245 NA
ATOM     14  C   UNL d   1      49.218  34.348  50.879  0.00  0.00     0.021 C 
ATOM     15  C   UNL d   1      47.752  35.303  52.101  0.00  0.00     0.082 A 
ATOM     16  C   UNL d   1      48.439  35.435  52.535  0.00  0.00     0.025 A 
ATOM     17  C   UNL d   1      47.025  35.586  52.376  0.00  0.00     0.019 A 
ATOM     18  C   UNL d   1      48.400  35.849  53.243  0.00  0.00     0.002 A 
ATOM     19  C   UNL d   1      47.682  36.136  53.527  0.00  0.00     0.000 A 
ATOM     20  C   UNL d   1      46.990  35.998  53.081  0.00  0.00     0.002 A 
ENDBRANCH  10  11
ENDBRANCH   9  10
ENDBRANCH   3   9
BRANCH   2  21
ATOM     21  C   UNL d   1      52.720  31.652  53.286  0.00  0.00     0.064 A 
ATOM     22  C   UNL d   1      53.441  31.665  53.687  0.00  0.00     0.018 A 
ATOM     23  C   UNL d   1      53.889  30.964  53.757  0.00  0.00     0.002 A 
ATOM     24  C   UNL d   1      53.606  30.261  53.424  0.00  0.00     0.000 A 
ATOM     25  C   UNL d   1      52.887  30.251  53.025  0.00  0.00     0.002 A 
ATOM     26  C   UNL d   1      52.448  30.941  52.957  0.00  0.00     0.018 A 
ENDBRANCH   2  21
TORSDOF 4
ENDMDL
