MODEL 1
REMARK VINA RESULT:      -6.9      0.000      0.000
REMARK  5 active torsions:
REMARK  status: ('A' for Active; 'I' for Inactive)
REMARK    1  A    between atoms: C_7  and  S_1 
REMARK    2  A    between atoms: N_8  and  S_1 
REMARK    3  A    between atoms: S_2  and  N_4 
REMARK    4  A    between atoms: C_12  and  S_2 
REMARK    5  A    between atoms: N_4  and  C_3 
ROOT
ATOM      1  C   UNL d   1     -46.157  12.860  22.769  0.00  0.00     0.206 A 
ATOM      2  N   UNL d   1     -45.967  13.657  22.645  0.00  0.00    -0.220 NA
ATOM      3  S   UNL d   1     -46.978  12.811  22.867  0.00  0.00    -0.046 SA
ATOM      4  C   UNL d   1     -48.212  14.672  22.763  0.00  0.00     0.105 A 
ATOM      5  C   UNL d   1     -47.289  13.578  22.802  0.00  0.00     0.051 A 
ATOM      6  C   UNL d   1     -46.665  14.098  22.665  0.00  0.00     0.090 A 
ATOM      7  C   UNL d   1     -48.066  13.865  22.851  0.00  0.00     0.021 A 
ATOM      8  C   UNL d   1     -47.576  15.191  22.625  0.00  0.00     0.015 A 
ATOM      9  C   UNL d   1     -46.811  14.905  22.577  0.00  0.00     0.020 A 
ENDROOT
BRANCH   1  10
ATOM     10  N   UNL d   1     -45.627  12.229  22.792  0.00  0.00    -0.132 NA
BRANCH  10  11
ATOM     11  S   UNL d   1     -45.363  11.530  23.137  0.00  0.00     0.287 S 
ATOM     12  O   UNL d   1     -46.109  11.408  23.462  0.00  0.00    -0.198 OA
ATOM     13  O   UNL d   1     -44.709  11.833  22.731  0.00  0.00    -0.198 OA
BRANCH  11  14
ATOM     14  C   UNL d   1     -44.760  10.985  23.273  0.00  0.00     0.105 A 
ATOM     15  C   UNL d   1     -44.951  10.226  23.551  0.00  0.00     0.015 A 
ATOM     16  C   UNL d   1     -44.356   9.672  23.691  0.00  0.00     0.030 A 
ATOM     17  C   UNL d   1     -43.568   9.867  23.556  0.00  0.00     0.140 A 
ATOM     18  C   UNL d   1     -43.371  10.622  23.279  0.00  0.00     0.030 A 
ATOM     19  F   UNL d   1     -42.973   9.315  23.696  0.00  0.00    -0.204 F 
ATOM     20  C   UNL d   1     -43.975  11.178  23.139  0.00  0.00     0.015 A 
ENDBRANCH  11  14
ENDBRANCH  10  11
ENDBRANCH   1  10
BRANCH   4  21
ATOM     21  S   UNL d   1     -48.975  14.960  22.811  0.00  0.00     0.271 S 
ATOM     22  O   UNL d   1     -49.013  15.536  22.006  0.00  0.00    -0.200 OA
ATOM     23  O   UNL d   1     -49.021  14.394  23.652  0.00  0.00    -0.200 OA
BRANCH  21  24
ATOM     24  N   UNL d   1     -49.761  15.131  23.042  0.00  0.00    -0.229 N 
ATOM     25  C   UNL d   1     -50.406  14.615  23.008  0.00  0.00     0.092 A 
ATOM     26  C   UNL d   1     -51.064  15.023  23.292  0.00  0.00     0.021 A 
ATOM     27  C   UNL d   1     -50.833  15.786  23.502  0.00  0.00     0.021 A 
ATOM     28  C   UNL d   1     -50.024  15.856  23.348  0.00  0.00     0.092 A 
ENDBRANCH  21  24
ENDBRANCH   4  21
TORSDOF 5
ENDMDL
MODEL 2
REMARK VINA RESULT:      -6.3      2.464      3.017
REMARK  5 active torsions:
REMARK  status: ('A' for Active; 'I' for Inactive)
REMARK    1  A    between atoms: C_7  and  S_1 
REMARK    2  A    between atoms: N_8  and  S_1 
REMARK    3  A    between atoms: S_2  and  N_4 
REMARK    4  A    between atoms: C_12  and  S_2 
REMARK    5  A    between atoms: N_4  and  C_3 
ROOT
ATOM      1  C   UNL d   1     -45.583  12.835  22.502  0.00  0.00     0.206 A 
ATOM      2  N   UNL d   1     -45.740  12.313  23.125  0.00  0.00    -0.220 NA
ATOM      3  S   UNL d   1     -46.310  13.061  22.175  0.00  0.00    -0.046 SA
ATOM      4  C   UNL d   1     -48.204  12.241  23.032  0.00  0.00     0.105 A 
ATOM      5  C   UNL d   1     -46.911  12.676  22.599  0.00  0.00     0.051 A 
ATOM      6  C   UNL d   1     -46.558  12.215  23.184  0.00  0.00     0.090 A 
ATOM      7  C   UNL d   1     -47.737  12.689  22.522  0.00  0.00     0.021 A 
ATOM      8  C   UNL d   1     -47.841  11.778  23.621  0.00  0.00     0.015 A 
ATOM      9  C   UNL d   1     -47.025  11.766  23.695  0.00  0.00     0.020 A 
ENDROOT
BRANCH   1  10
ATOM     10  N   UNL d   1     -44.839  13.086  22.251  0.00  0.00    -0.132 NA
BRANCH  10  11
ATOM     11  S   UNL d   1     -44.087  12.915  21.963  0.00  0.00     0.287 S 
ATOM     12  O   UNL d   1     -44.182  12.128  22.181  0.00  0.00    -0.198 OA
ATOM     13  O   UNL d   1     -44.193  13.725  21.828  0.00  0.00    -0.198 OA
BRANCH  11  14
ATOM     14  C   UNL d   1     -43.387  13.162  21.605  0.00  0.00     0.105 A 
ATOM     15  C   UNL d   1     -42.805  12.601  21.417  0.00  0.00     0.015 A 
ATOM     16  C   UNL d   1     -42.100  12.836  21.057  0.00  0.00     0.030 A 
ATOM     17  C   UNL d   1     -41.969  13.629  20.882  0.00  0.00     0.140 A 
ATOM     18  C   UNL d   1     -42.546  14.194  21.067  0.00  0.00     0.030 A 
ATOM     19  F   UNL d   1     -41.266  13.865  20.524  0.00  0.00    -0.204 F 
ATOM     20  C   UNL d   1     -43.255  13.951  21.430  0.00  0.00     0.015 A 
ENDBRANCH  11  14
ENDBRANCH  10  11
ENDBRANCH   1  10
BRANCH   4  21
ATOM     21  S   UNL d   1     -49.018  12.250  22.962  0.00  0.00     0.271 S 
ATOM     22  O   UNL d   1     -49.173  11.442  22.411  0.00  0.00    -0.200 OA
ATOM     23  O   UNL d   1     -48.949  13.091  23.526  0.00  0.00    -0.200 OA
BRANCH  21  24
ATOM     24  N   UNL d   1     -49.831  12.443  23.013  0.00  0.00    -0.229 N 
ATOM     25  C   UNL d   1     -50.305  12.739  22.404  0.00  0.00     0.092 A 
ATOM     26  C   UNL d   1     -51.063  12.845  22.709  0.00  0.00     0.021 A 
ATOM     27  C   UNL d   1     -51.064  12.616  23.502  0.00  0.00     0.021 A 
ATOM     28  C   UNL d   1     -50.300  12.366  23.693  0.00  0.00     0.092 A 
ENDBRANCH  21  24
ENDBRANCH   4  21
TORSDOF 5
ENDMDL
MODEL 3
REMARK VINA RESULT:      -5.7      2.832      3.449
REMARK  5 active torsions:
REMARK  status: ('A' for Active; 'I' for Inactive)
REMARK    1  A    between atoms: C_7  and  S_1 
REMARK    2  A    between atoms: N_8  and  S_1 
REMARK    3  A    between atoms: S_2  and  N_4 
REMARK    4  A    between atoms: C_12  and  S_2 
REMARK    5  A    between atoms: N_4  and  C_3 
ROOT
ATOM      1  C   UNL d   1     -44.221  12.754  21.957  0.00  0.00     0.206 A 
ATOM      2  N   UNL d   1     -44.576  12.239  22.499  0.00  0.00    -0.220 NA
ATOM      3  S   UNL d   1     -44.790  13.312  21.730  0.00  0.00    -0.046 SA
ATOM      4  C   UNL d   1     -46.847  13.198  22.596  0.00  0.00     0.105 A 
ATOM      5  C   UNL d   1     -45.493  13.137  22.134  0.00  0.00     0.051 A 
ATOM      6  C   UNL d   1     -45.360  12.475  22.608  0.00  0.00     0.090 A 
ATOM      7  C   UNL d   1     -46.239  13.500  22.128  0.00  0.00     0.021 A 
ATOM      8  C   UNL d   1     -46.705  12.529  23.072  0.00  0.00     0.015 A 
ATOM      9  C   UNL d   1     -45.968  12.173  23.076  0.00  0.00     0.020 A 
ENDROOT
BRANCH   1  10
ATOM     10  N   UNL d   1     -43.441  12.720  21.689  0.00  0.00    -0.132 NA
BRANCH  10  11
ATOM     11  S   UNL d   1     -42.849  12.978  21.178  0.00  0.00     0.287 S 
ATOM     12  O   UNL d   1     -43.231  12.611  20.549  0.00  0.00    -0.198 OA
ATOM     13  O   UNL d   1     -42.635  13.267  21.924  0.00  0.00    -0.198 OA
BRANCH  11  14
ATOM     14  C   UNL d   1     -42.145  13.386  21.052  0.00  0.00     0.105 A 
ATOM     15  C   UNL d   1     -42.068  13.869  20.380  0.00  0.00     0.015 A 
ATOM     16  C   UNL d   1     -41.367  14.283  20.243  0.00  0.00     0.030 A 
ATOM     17  C   UNL d   1     -40.739  14.220  20.770  0.00  0.00     0.140 A 
ATOM     18  C   UNL d   1     -40.809  13.741  21.441  0.00  0.00     0.030 A 
ATOM     19  F   UNL d   1     -40.039  14.633  20.633  0.00  0.00    -0.204 F 
ATOM     20  C   UNL d   1     -41.518  13.325  21.576  0.00  0.00     0.015 A 
ENDBRANCH  11  14
ENDBRANCH  10  11
ENDBRANCH   1  10
BRANCH   4  21
ATOM     21  S   UNL d   1     -47.583  13.551  22.595  0.00  0.00     0.271 S 
ATOM     22  O   UNL d   1     -48.069  12.981  21.948  0.00  0.00    -0.200 OA
ATOM     23  O   UNL d   1     -47.161  14.184  23.267  0.00  0.00    -0.200 OA
BRANCH  21  24
ATOM     24  N   UNL d   1     -48.241  14.049  22.739  0.00  0.00    -0.229 N 
ATOM     25  C   UNL d   1     -48.283  14.861  22.595  0.00  0.00     0.092 A 
ATOM     26  C   UNL d   1     -49.034  15.115  22.822  0.00  0.00     0.021 A 
ATOM     27  C   UNL d   1     -49.458  14.467  23.106  0.00  0.00     0.021 A 
ATOM     28  C   UNL d   1     -48.968  13.803  23.056  0.00  0.00     0.092 A 
ENDBRANCH  21  24
ENDBRANCH   4  21
TORSDOF 5
ENDMDL
MODEL 4
REMARK VINA RESULT:      -4.8      3.400      6.016
REMARK  5 active torsions:
REMARK  status: ('A' for Active; 'I' for Inactive)
REMARK    1  A    between atoms: C_7  and  S_1 
REMARK    2  A    between atoms: N_8  and  S_1 
REMARK    3  A    between atoms: S_2  and  N_4 
REMARK    4  A    between atoms: C_12  and  S_2 
REMARK    5  A    between atoms: N_4  and  C_3 
ROOT
ATOM      1  C   UNL d   1     -45.145  12.991  22.218  0.00  0.00     0.206 A 
ATOM      2  N   UNL d   1     -44.615  12.360  22.303  0.00  0.00    -0.220 NA
ATOM      3  S   UNL d   1     -44.753  13.595  21.809  0.00  0.00    -0.046 SA
ATOM      4  C   UNL d   1     -42.632  13.293  21.170  0.00  0.00     0.105 A 
ATOM      5  C   UNL d   1     -43.983  13.332  21.644  0.00  0.00     0.051 A 
ATOM      6  C   UNL d   1     -43.900  12.571  21.949  0.00  0.00     0.090 A 
ATOM      7  C   UNL d   1     -43.348  13.695  21.253  0.00  0.00     0.021 A 
ATOM      8  C   UNL d   1     -42.556  12.524  21.481  0.00  0.00     0.015 A 
ATOM      9  C   UNL d   1     -43.184  12.169  21.866  0.00  0.00     0.020 A 
ENDROOT
BRANCH   1  10
ATOM     10  N   UNL d   1     -45.923  13.015  22.491  0.00  0.00    -0.132 NA
BRANCH  10  11
ATOM     11  S   UNL d   1     -46.495  12.790  23.038  0.00  0.00     0.287 S 
ATOM     12  O   UNL d   1     -45.996  13.012  23.653  0.00  0.00    -0.198 OA
ATOM     13  O   UNL d   1     -46.830  12.634  22.297  0.00  0.00    -0.198 OA
BRANCH  11  14
ATOM     14  C   UNL d   1     -47.242  12.484  23.204  0.00  0.00     0.105 A 
ATOM     15  C   UNL d   1     -47.917  12.939  23.033  0.00  0.00     0.015 A 
ATOM     16  C   UNL d   1     -48.670  12.643  23.195  0.00  0.00     0.030 A 
ATOM     17  C   UNL d   1     -48.759  11.895  23.526  0.00  0.00     0.140 A 
ATOM     18  C   UNL d   1     -48.091  11.437  23.698  0.00  0.00     0.030 A 
ATOM     19  F   UNL d   1     -49.511  11.599  23.687  0.00  0.00    -0.204 F 
ATOM     20  C   UNL d   1     -47.333  11.740  23.533  0.00  0.00     0.015 A 
ENDBRANCH  11  14
ENDBRANCH  10  11
ENDBRANCH   1  10
BRANCH   4  21
ATOM     21  S   UNL d   1     -42.004  13.645  20.785  0.00  0.00     0.271 S 
ATOM     22  O   UNL d   1     -42.119  13.295  19.867  0.00  0.00    -0.200 OA
ATOM     23  O   UNL d   1     -41.813  14.048  21.697  0.00  0.00    -0.200 OA
BRANCH  21  24
ATOM     24  N   UNL d   1     -41.322  14.091  20.593  0.00  0.00    -0.229 N 
ATOM     25  C   UNL d   1     -40.900  14.588  21.102  0.00  0.00     0.092 A 
ATOM     26  C   UNL d   1     -40.274  14.908  20.672  0.00  0.00     0.021 A 
ATOM     27  C   UNL d   1     -40.303  14.615  19.902  0.00  0.00     0.021 A 
ATOM     28  C   UNL d   1     -40.953  14.107  19.849  0.00  0.00     0.092 A 
ENDBRANCH  21  24
ENDBRANCH   4  21
TORSDOF 5
ENDMDL
MODEL 5
REMARK VINA RESULT:      -4.1      8.091     10.003
REMARK  5 active torsions:
REMARK  status: ('A' for Active; 'I' for Inactive)
REMARK    1  A    between atoms: C_7  and  S_1 
REMARK    2  A    between atoms: N_8  and  S_1 
REMARK    3  A    between atoms: S_2  and  N_4 
REMARK    4  A    between atoms: C_12  and  S_2 
REMARK    5  A    between atoms: N_4  and  C_3 
ROOT
ATOM      1  C   UNL d   1     -39.939  15.127  19.393  0.00  0.00     0.206 A 
ATOM      2  N   UNL d   1     -40.453  15.397  18.803  0.00  0.00    -0.220 NA
ATOM      3  S   UNL d   1     -39.288  14.779  19.019  0.00  0.00    -0.046 SA
ATOM      4  C   UNL d   1     -39.203  14.720  16.786  0.00  0.00     0.105 A 
ATOM      5  C   UNL d   1     -39.404  14.836  18.199  0.00  0.00     0.051 A 
ATOM      6  C   UNL d   1     -40.123  15.217  18.068  0.00  0.00     0.090 A 
ATOM      7  C   UNL d   1     -38.942  14.586  17.557  0.00  0.00     0.021 A 
ATOM      8  C   UNL d   1     -39.930  15.106  16.661  0.00  0.00     0.015 A 
ATOM      9  C   UNL d   1     -40.384  15.351  17.297  0.00  0.00     0.020 A 
ENDROOT
BRANCH   1  10
ATOM     10  N   UNL d   1     -40.053  15.193  20.208  0.00  0.00    -0.132 NA
BRANCH  10  11
ATOM     11  S   UNL d   1     -39.983  14.881  20.966  0.00  0.00     0.287 S 
ATOM     12  O   UNL d   1     -40.752  14.592  20.919  0.00  0.00    -0.198 OA
ATOM     13  O   UNL d   1     -39.256  15.244  20.812  0.00  0.00    -0.198 OA
BRANCH  11  14
ATOM     14  C   UNL d   1     -39.536  14.756  21.647  0.00  0.00     0.105 A 
ATOM     15  C   UNL d   1     -39.525  14.001  21.994  0.00  0.00     0.015 A 
ATOM     16  C   UNL d   1     -39.081  13.863  22.676  0.00  0.00     0.030 A 
ATOM     17  C   UNL d   1     -38.646  14.472  23.017  0.00  0.00     0.140 A 
ATOM     18  C   UNL d   1     -38.653  15.227  22.676  0.00  0.00     0.030 A 
ATOM     19  F   UNL d   1     -38.203  14.335  23.698  0.00  0.00    -0.204 F 
ATOM     20  C   UNL d   1     -39.103  15.361  21.988  0.00  0.00     0.015 A 
ENDBRANCH  11  14
ENDBRANCH  10  11
ENDBRANCH   1  10
BRANCH   4  21
ATOM     21  S   UNL d   1     -38.753  14.476  16.150  0.00  0.00     0.271 S 
ATOM     22  O   UNL d   1     -38.103  13.875  16.593  0.00  0.00    -0.200 OA
ATOM     23  O   UNL d   1     -39.378  15.074  15.618  0.00  0.00    -0.200 OA
BRANCH  21  24
ATOM     24  N   UNL d   1     -38.430  14.359  15.386  0.00  0.00    -0.229 N 
ATOM     25  C   UNL d   1     -38.246  13.633  15.038  0.00  0.00     0.092 A 
ATOM     26  C   UNL d   1     -37.944  13.788  14.287  0.00  0.00     0.021 A 
ATOM     27  C   UNL d   1     -37.939  14.604  14.166  0.00  0.00     0.021 A 
ATOM     28  C   UNL d   1     -38.241  14.961  14.848  0.00  0.00     0.092 A 
ENDBRANCH  21  24
ENDBRANCH   4  21
TORSDOF 5
ENDMDL
