MODEL 1
REMARK VINA RESULT:     -10.1      0.000      0.000
REMARK  2 active torsions:
REMARK  status: ('A' for Active; 'I' for Inactive)
REMARK    1  A    between atoms: C_5  and  C_1 
REMARK    2  A    between atoms: C_7  and  C_5 
ROOT
ATOM      1  C   UNL d   1      53.155  32.606  53.516  0.00  0.00     0.158 A 
ATOM      2  C   UNL d   1      53.622  32.420  54.169  0.00  0.00     0.131 A 
ATOM      3  O   UNL d   1      52.844  31.993  53.049  0.00  0.00    -0.302 OA
ATOM      4  C   UNL d   1      53.463  31.003  53.879  0.00  0.00     0.044 A 
ATOM      5  C   UNL d   1      52.996  31.189  53.227  0.00  0.00     0.102 A 
ATOM      6  N   UNL d   1      53.928  33.023  54.628  0.00  0.00    -0.146 N 
ATOM      7  C   UNL d   1      53.614  30.206  54.056  0.00  0.00     0.004 A 
ATOM      8  C   UNL d   1      52.685  30.575  52.759  0.00  0.00     0.025 A 
ATOM      9  C   UNL d   1      53.306  29.599  53.593  0.00  0.00     0.000 A 
ATOM     10  C   UNL d   1      52.838  29.785  52.940  0.00  0.00     0.002 A 
ENDROOT
BRANCH   1  11
ATOM     11  C   UNL d   1      53.005  33.389  53.340  0.00  0.00     0.220 C 
ATOM     12  O   UNL d   1      53.613  33.923  53.355  0.00  0.00    -0.284 OA
BRANCH  11  13
ATOM     13  C   UNL d   1      52.273  33.650  53.152  0.00  0.00     0.041 A 
ATOM     14  C   UNL d   1      51.663  33.646  53.705  0.00  0.00     0.003 A 
ATOM     15  C   UNL d   1      50.905  33.922  53.492  0.00  0.00     0.000 A 
ATOM     16  C   UNL d   1      50.766  34.204  52.705  0.00  0.00     0.000 A 
ATOM     17  C   UNL d   1      51.389  34.200  52.162  0.00  0.00     0.000 A 
ATOM     18  C   UNL d   1      50.017  34.478  52.485  0.00  0.00     0.000 C 
ATOM     19  C   UNL d   1      52.134  33.932  52.365  0.00  0.00     0.003 A 
ENDBRANCH  11  13
ENDBRANCH   1  11
TORSDOF 2
ENDMDL
MODEL 2
REMARK VINA RESULT:      -9.9      1.279      2.402
REMARK  2 active torsions:
REMARK  status: ('A' for Active; 'I' for Inactive)
REMARK    1  A    between atoms: C_5  and  C_1 
REMARK    2  A    between atoms: C_7  and  C_5 
ROOT
ATOM      1  C   UNL d   1      52.991  32.773  53.415  0.00  0.00     0.158 A 
ATOM      2  C   UNL d   1      53.316  32.078  53.716  0.00  0.00     0.131 A 
ATOM      3  O   UNL d   1      53.235  33.505  53.724  0.00  0.00    -0.302 OA
ATOM      4  C   UNL d   1      54.130  32.857  54.636  0.00  0.00     0.044 A 
ATOM      5  C   UNL d   1      53.805  33.552  54.335  0.00  0.00     0.102 A 
ATOM      6  N   UNL d   1      53.075  31.358  53.412  0.00  0.00    -0.146 N 
ATOM      7  C   UNL d   1      54.696  32.904  55.241  0.00  0.00     0.004 A 
ATOM      8  C   UNL d   1      54.050  34.284  54.644  0.00  0.00     0.025 A 
ATOM      9  C   UNL d   1      54.937  33.629  55.547  0.00  0.00     0.000 A 
ATOM     10  C   UNL d   1      54.612  34.324  55.246  0.00  0.00     0.002 A 
ENDROOT
BRANCH   1  11
ATOM     11  C   UNL d   1      52.434  32.730  52.819  0.00  0.00     0.220 C 
ATOM     12  O   UNL d   1      52.532  32.193  52.222  0.00  0.00    -0.284 OA
BRANCH  11  13
ATOM     13  C   UNL d   1      51.790  33.203  52.804  0.00  0.00     0.041 A 
ATOM     14  C   UNL d   1      51.157  33.079  53.318  0.00  0.00     0.003 A 
ATOM     15  C   UNL d   1      50.493  33.583  53.289  0.00  0.00     0.000 A 
ATOM     16  C   UNL d   1      50.471  34.221  52.732  0.00  0.00     0.000 A 
ATOM     17  C   UNL d   1      51.115  34.331  52.224  0.00  0.00     0.000 A 
ATOM     18  C   UNL d   1      49.817  34.725  52.697  0.00  0.00     0.000 C 
ATOM     19  C   UNL d   1      51.768  33.840  52.247  0.00  0.00     0.003 A 
ENDBRANCH  11  13
ENDBRANCH   1  11
TORSDOF 2
ENDMDL
MODEL 3
REMARK VINA RESULT:      -9.8      1.407      3.641
REMARK  2 active torsions:
REMARK  status: ('A' for Active; 'I' for Inactive)
REMARK    1  A    between atoms: C_5  and  C_1 
REMARK    2  A    between atoms: C_7  and  C_5 
ROOT
ATOM      1  C   UNL d   1      52.822  32.544  53.257  0.00  0.00     0.158 A 
ATOM      2  C   UNL d   1      52.237  31.984  53.105  0.00  0.00     0.131 A 
ATOM      3  O   UNL d   1      52.632  33.352  53.223  0.00  0.00    -0.302 OA
ATOM      4  C   UNL d   1      51.273  33.051  52.884  0.00  0.00     0.044 A 
ATOM      5  C   UNL d   1      51.858  33.611  53.036  0.00  0.00     0.102 A 
ATOM      6  N   UNL d   1      52.424  31.189  53.138  0.00  0.00    -0.146 N 
ATOM      7  C   UNL d   1      50.506  33.307  52.699  0.00  0.00     0.004 A 
ATOM      8  C   UNL d   1      51.668  34.419  53.002  0.00  0.00     0.025 A 
ATOM      9  C   UNL d   1      50.318  34.108  52.665  0.00  0.00     0.000 A 
ATOM     10  C   UNL d   1      50.903  34.668  52.818  0.00  0.00     0.002 A 
ENDROOT
BRANCH   1  11
ATOM     11  C   UNL d   1      53.578  32.294  53.440  0.00  0.00     0.220 C 
ATOM     12  O   UNL d   1      53.881  31.642  53.069  0.00  0.00    -0.284 OA
BRANCH  11  13
ATOM     13  C   UNL d   1      54.033  32.674  53.976  0.00  0.00     0.041 A 
ATOM     14  C   UNL d   1      53.877  32.620  54.783  0.00  0.00     0.003 A 
ATOM     15  C   UNL d   1      54.362  33.023  55.329  0.00  0.00     0.000 A 
ATOM     16  C   UNL d   1      55.013  33.488  55.051  0.00  0.00     0.000 A 
ATOM     17  C   UNL d   1      55.156  33.532  54.237  0.00  0.00     0.000 A 
ATOM     18  C   UNL d   1      55.499  33.891  55.586  0.00  0.00     0.000 C 
ATOM     19  C   UNL d   1      54.684  33.138  53.698  0.00  0.00     0.003 A 
ENDBRANCH  11  13
ENDBRANCH   1  11
TORSDOF 2
ENDMDL
MODEL 4
REMARK VINA RESULT:      -9.4      1.557      3.912
REMARK  2 active torsions:
REMARK  status: ('A' for Active; 'I' for Inactive)
REMARK    1  A    between atoms: C_5  and  C_1 
REMARK    2  A    between atoms: C_7  and  C_5 
ROOT
ATOM      1  C   UNL d   1      53.114  32.139  53.381  0.00  0.00     0.158 A 
ATOM      2  C   UNL d   1      52.560  32.740  53.275  0.00  0.00     0.131 A 
ATOM      3  O   UNL d   1      53.772  32.273  53.872  0.00  0.00    -0.302 OA
ATOM      4  C   UNL d   1      53.330  33.606  54.155  0.00  0.00     0.044 A 
ATOM      5  C   UNL d   1      53.884  33.005  54.262  0.00  0.00     0.102 A 
ATOM      6  N   UNL d   1      51.914  32.608  52.792  0.00  0.00    -0.146 N 
ATOM      7  C   UNL d   1      53.441  34.332  54.541  0.00  0.00     0.004 A 
ATOM      8  C   UNL d   1      54.541  33.139  54.752  0.00  0.00     0.025 A 
ATOM      9  C   UNL d   1      54.092  34.463  55.027  0.00  0.00     0.000 A 
ATOM     10  C   UNL d   1      54.646  33.863  55.133  0.00  0.00     0.002 A 
ENDROOT
BRANCH   1  11
ATOM     11  C   UNL d   1      53.007  31.423  53.003  0.00  0.00     0.220 C 
ATOM     12  O   UNL d   1      52.813  31.414  52.217  0.00  0.00    -0.284 OA
BRANCH  11  13
ATOM     13  C   UNL d   1      53.089  30.725  53.384  0.00  0.00     0.041 A 
ATOM     14  C   UNL d   1      52.467  30.400  53.816  0.00  0.00     0.003 A 
ATOM     15  C   UNL d   1      52.569  29.670  54.208  0.00  0.00     0.000 A 
ATOM     16  C   UNL d   1      53.312  29.266  54.159  0.00  0.00     0.000 A 
ATOM     17  C   UNL d   1      53.926  29.607  53.721  0.00  0.00     0.000 A 
ATOM     18  C   UNL d   1      53.422  28.543  54.545  0.00  0.00     0.000 C 
ATOM     19  C   UNL d   1      53.832  30.321  53.335  0.00  0.00     0.003 A 
ENDBRANCH  11  13
ENDBRANCH   1  11
TORSDOF 2
ENDMDL
MODEL 5
REMARK VINA RESULT:      -9.4      1.768      2.666
REMARK  2 active torsions:
REMARK  status: ('A' for Active; 'I' for Inactive)
REMARK    1  A    between atoms: C_5  and  C_1 
REMARK    2  A    between atoms: C_7  and  C_5 
ROOT
ATOM      1  C   UNL d   1      53.195  32.000  53.234  0.00  0.00     0.158 A 
ATOM      2  C   UNL d   1      52.423  31.880  52.970  0.00  0.00     0.131 A 
ATOM      3  O   UNL d   1      53.631  31.355  53.526  0.00  0.00    -0.302 OA
ATOM      4  C   UNL d   1      52.533  30.465  53.292  0.00  0.00     0.044 A 
ATOM      5  C   UNL d   1      53.304  30.585  53.557  0.00  0.00     0.102 A 
ATOM      6  N   UNL d   1      51.995  32.513  52.684  0.00  0.00    -0.146 N 
ATOM      7  C   UNL d   1      52.209  29.702  53.323  0.00  0.00     0.004 A 
ATOM      8  C   UNL d   1      53.741  29.940  53.848  0.00  0.00     0.025 A 
ATOM      9  C   UNL d   1      52.642  29.064  53.611  0.00  0.00     0.000 A 
ATOM     10  C   UNL d   1      53.413  29.184  53.876  0.00  0.00     0.002 A 
ENDROOT
BRANCH   1  11
ATOM     11  C   UNL d   1      53.516  32.750  53.206  0.00  0.00     0.220 C 
ATOM     12  O   UNL d   1      53.414  33.201  52.541  0.00  0.00    -0.284 OA
BRANCH  11  13
ATOM     13  C   UNL d   1      53.931  33.058  53.815  0.00  0.00     0.041 A 
ATOM     14  C   UNL d   1      53.553  33.337  54.492  0.00  0.00     0.003 A 
ATOM     15  C   UNL d   1      54.002  33.654  55.119  0.00  0.00     0.000 A 
ATOM     16  C   UNL d   1      54.846  33.689  55.058  0.00  0.00     0.000 A 
ATOM     17  C   UNL d   1      55.210  33.405  54.371  0.00  0.00     0.000 A 
ATOM     18  C   UNL d   1      55.299  34.003  55.675  0.00  0.00     0.000 C 
ATOM     19  C   UNL d   1      54.775  33.092  53.754  0.00  0.00     0.003 A 
ENDBRANCH  11  13
ENDBRANCH   1  11
TORSDOF 2
ENDMDL
MODEL 6
REMARK VINA RESULT:      -9.3      0.778      3.604
REMARK  2 active torsions:
REMARK  status: ('A' for Active; 'I' for Inactive)
REMARK    1  A    between atoms: C_5  and  C_1 
REMARK    2  A    between atoms: C_7  and  C_5 
ROOT
ATOM      1  C   UNL d   1      53.387  32.885  53.500  0.00  0.00     0.158 A 
ATOM      2  C   UNL d   1      53.512  33.540  53.984  0.00  0.00     0.131 A 
ATOM      3  O   UNL d   1      52.716  32.862  53.010  0.00  0.00    -0.302 OA
ATOM      4  C   UNL d   1      52.289  34.146  53.480  0.00  0.00     0.044 A 
ATOM      5  C   UNL d   1      52.164  33.491  52.996  0.00  0.00     0.102 A 
ATOM      6  N   UNL d   1      54.171  33.562  54.467  0.00  0.00    -0.146 N 
ATOM      7  C   UNL d   1      51.742  34.770  53.467  0.00  0.00     0.004 A 
ATOM      8  C   UNL d   1      51.494  33.469  52.505  0.00  0.00     0.025 A 
ATOM      9  C   UNL d   1      51.078  34.747  52.980  0.00  0.00     0.000 A 
ATOM     10  C   UNL d   1      50.953  34.092  52.496  0.00  0.00     0.002 A 
ENDROOT
BRANCH   1  11
ATOM     11  C   UNL d   1      53.924  32.270  53.512  0.00  0.00     0.220 C 
ATOM     12  O   UNL d   1      54.710  32.427  53.400  0.00  0.00    -0.284 OA
BRANCH  11  13
ATOM     13  C   UNL d   1      53.699  31.512  53.629  0.00  0.00     0.041 A 
ATOM     14  C   UNL d   1      53.556  31.222  54.388  0.00  0.00     0.003 A 
ATOM     15  C   UNL d   1      53.322  30.428  54.492  0.00  0.00     0.000 A 
ATOM     16  C   UNL d   1      53.231  29.923  53.819  0.00  0.00     0.000 A 
ATOM     17  C   UNL d   1      53.379  30.230  53.064  0.00  0.00     0.000 A 
ATOM     18  C   UNL d   1      52.999  29.135  53.914  0.00  0.00     0.000 C 
ATOM     19  C   UNL d   1      53.609  31.007  52.956  0.00  0.00     0.003 A 
ENDBRANCH  11  13
ENDBRANCH   1  11
TORSDOF 2
ENDMDL
