MODEL 1
REMARK VINA RESULT:      -1.4      0.000      0.000
REMARK  3 active torsions:
REMARK  status: ('A' for Active; 'I' for Inactive)
REMARK    1  A    between atoms: N_4  and  C_1 
REMARK    2  A    between atoms: C_15  and  C_5 
REMARK    3  A    between atoms: C_9  and  N_8 
ROOT
ATOM      1  C   UNL d   1      32.746  22.862 -20.954  0.00  0.00     0.169 A 
ATOM      2  N   UNL d   1      32.597  23.537 -21.402  0.00  0.00    -0.130 NA
ATOM      3  N   UNL d   1      32.609  23.467 -22.233  0.00  0.00    -0.147 NA
ATOM      4  C   UNL d   1      32.762  22.753 -22.592  0.00  0.00     0.103 A 
ATOM      5  C   UNL d   1      32.899  22.151 -21.312  0.00  0.00     0.038 A 
ATOM      6  C   UNL d   1      32.907  22.096 -22.139  0.00  0.00     0.022 A 
ATOM      7  C   UNL d   1      33.051  21.462 -20.847  0.00  0.00     0.003 A 
ATOM      8  C   UNL d   1      33.070  21.337 -22.495  0.00  0.00     0.002 A 
ATOM      9  C   UNL d   1      33.212  20.711 -21.213  0.00  0.00     0.000 A 
ATOM     10  C   UNL d   1      33.216  20.672 -22.041  0.00  0.00     0.000 A 
ENDROOT
BRANCH   1  11
ATOM     11  N   UNL d   1      32.738  22.916 -20.142  0.00  0.00    -0.285 N 
ATOM     12  C   UNL d   1      32.225  22.457 -19.683  0.00  0.00     0.101 A 
ATOM     13  C   UNL d   1      32.217  22.512 -18.861  0.00  0.00     0.101 A 
ATOM     14  N   UNL d   1      32.722  23.027 -18.478  0.00  0.00    -0.286 N 
ATOM     15  C   UNL d   1      33.232  23.484 -18.916  0.00  0.00     0.101 A 
ATOM     16  C   UNL d   1      33.240  23.428 -19.764  0.00  0.00     0.101 A 
BRANCH  14  17
ATOM     17  C   UNL d   1      32.726  23.093 -17.657  0.00  0.00     0.148 A 
ATOM     18  N   UNL d   1      33.216  22.626 -17.180  0.00  0.00    -0.227 NA
ATOM     19  C   UNL d   1      33.219  22.691 -16.358  0.00  0.00     0.101 A 
ATOM     20  C   UNL d   1      32.724  23.235 -15.995  0.00  0.00     0.021 A 
ATOM     21  C   UNL d   1      32.241  23.696 -16.462  0.00  0.00     0.005 A 
ATOM     22  C   UNL d   1      32.238  23.630 -17.283  0.00  0.00     0.037 A 
ENDBRANCH  14  17
ENDBRANCH   1  11
BRANCH   4  23
ATOM     23  C   UNL d   1      32.770  22.697 -23.419  0.00  0.00     0.019 A 
ATOM     24  C   UNL d   1      32.343  23.246 -23.862  0.00  0.00     0.002 A 
ATOM     25  C   UNL d   1      32.348  23.195 -24.694  0.00  0.00     0.000 A 
ATOM     26  C   UNL d   1      32.771  22.606 -25.085  0.00  0.00     0.000 A 
ATOM     27  C   UNL d   1      33.202  22.053 -24.641  0.00  0.00     0.000 A 
ATOM     28  C   UNL d   1      33.203  22.097 -23.798  0.00  0.00     0.002 A 
ENDBRANCH   4  23
TORSDOF 3
ENDMDL
MODEL 2
REMARK VINA RESULT:      -0.7      3.109      5.957
REMARK  3 active torsions:
REMARK  status: ('A' for Active; 'I' for Inactive)
REMARK    1  A    between atoms: N_4  and  C_1 
REMARK    2  A    between atoms: C_15  and  C_5 
REMARK    3  A    between atoms: C_9  and  N_8 
ROOT
ATOM      1  C   UNL d   1      32.434  20.121 -22.358  0.00  0.00     0.169 A 
ATOM      2  N   UNL d   1      32.154  20.094 -21.583  0.00  0.00    -0.130 NA
ATOM      3  N   UNL d   1      32.138  20.805 -21.147  0.00  0.00    -0.147 NA
ATOM      4  C   UNL d   1      32.392  21.505 -21.475  0.00  0.00     0.103 A 
ATOM      5  C   UNL d   1      32.686  20.818 -22.684  0.00  0.00     0.038 A 
ATOM      6  C   UNL d   1      32.665  21.517 -22.239  0.00  0.00     0.022 A 
ATOM      7  C   UNL d   1      32.972  20.839 -23.480  0.00  0.00     0.003 A 
ATOM      8  C   UNL d   1      32.936  22.240 -22.603  0.00  0.00     0.002 A 
ATOM      9  C   UNL d   1      33.240  21.566 -23.831  0.00  0.00     0.000 A 
ATOM     10  C   UNL d   1      33.213  22.257 -23.373  0.00  0.00     0.000 A 
ENDROOT
BRANCH   1  11
ATOM     11  N   UNL d   1      32.454  19.435 -22.795  0.00  0.00    -0.285 N 
ATOM     12  C   UNL d   1      33.169  19.104 -23.048  0.00  0.00     0.101 A 
ATOM     13  C   UNL d   1      33.190  18.410 -23.491  0.00  0.00     0.101 A 
ATOM     14  N   UNL d   1      32.496  18.029 -23.692  0.00  0.00    -0.286 N 
ATOM     15  C   UNL d   1      31.786  18.342 -23.451  0.00  0.00     0.101 A 
ATOM     16  C   UNL d   1      31.765  19.059 -22.994  0.00  0.00     0.101 A 
BRANCH  14  17
ATOM     17  C   UNL d   1      32.501  17.334 -24.134  0.00  0.00     0.148 A 
ATOM     18  N   UNL d   1      31.847  16.827 -24.165  0.00  0.00    -0.227 NA
ATOM     19  C   UNL d   1      31.852  16.132 -24.607  0.00  0.00     0.101 A 
ATOM     20  C   UNL d   1      32.523  15.929 -25.033  0.00  0.00     0.021 A 
ATOM     21  C   UNL d   1      33.168  16.426 -25.004  0.00  0.00     0.005 A 
ATOM     22  C   UNL d   1      33.162  17.121 -24.562  0.00  0.00     0.037 A 
ENDBRANCH  14  17
ENDBRANCH   1  11
BRANCH   4  23
ATOM     23  C   UNL d   1      32.371  22.204 -21.030  0.00  0.00     0.019 A 
ATOM     24  C   UNL d   1      31.648  22.474 -20.741  0.00  0.00     0.002 A 
ATOM     25  C   UNL d   1      31.621  23.176 -20.292  0.00  0.00     0.000 A 
ATOM     26  C   UNL d   1      32.305  23.607 -20.131  0.00  0.00     0.000 A 
ATOM     27  C   UNL d   1      33.034  23.337 -20.421  0.00  0.00     0.000 A 
ATOM     28  C   UNL d   1      33.070  22.627 -20.876  0.00  0.00     0.002 A 
ENDBRANCH   4  23
TORSDOF 3
ENDMDL
MODEL 3
REMARK VINA RESULT:       1.2      1.560      2.118
REMARK  3 active torsions:
REMARK  status: ('A' for Active; 'I' for Inactive)
REMARK    1  A    between atoms: N_4  and  C_1 
REMARK    2  A    between atoms: C_15  and  C_5 
REMARK    3  A    between atoms: C_9  and  N_8 
ROOT
ATOM      1  C   UNL d   1      32.721  21.114 -21.430  0.00  0.00     0.169 A 
ATOM      2  N   UNL d   1      32.555  21.542 -22.115  0.00  0.00    -0.130 NA
ATOM      3  N   UNL d   1      32.566  21.136 -22.844  0.00  0.00    -0.147 NA
ATOM      4  C   UNL d   1      32.735  20.341 -22.879  0.00  0.00     0.103 A 
ATOM      5  C   UNL d   1      32.890  20.322 -21.466  0.00  0.00     0.038 A 
ATOM      6  C   UNL d   1      32.897  19.932 -22.198  0.00  0.00     0.022 A 
ATOM      7  C   UNL d   1      33.059  19.888 -20.761  0.00  0.00     0.003 A 
ATOM      8  C   UNL d   1      33.077  19.097 -22.212  0.00  0.00     0.002 A 
ATOM      9  C   UNL d   1      33.237  19.057 -20.788  0.00  0.00     0.000 A 
ATOM     10  C   UNL d   1      33.241  18.681 -21.527  0.00  0.00     0.000 A 
ENDROOT
BRANCH   1  11
ATOM     11  N   UNL d   1      32.714  21.497 -20.712  0.00  0.00    -0.285 N 
ATOM     12  C   UNL d   1      33.241  21.292 -20.108  0.00  0.00     0.101 A 
ATOM     13  C   UNL d   1      33.233  21.680 -19.381  0.00  0.00     0.101 A 
ATOM     14  N   UNL d   1      32.699  22.282 -19.240  0.00  0.00    -0.286 N 
ATOM     15  C   UNL d   1      32.176  22.493 -19.825  0.00  0.00     0.101 A 
ATOM     16  C   UNL d   1      32.183  22.093 -20.575  0.00  0.00     0.101 A 
BRANCH  14  17
ATOM     17  C   UNL d   1      32.680  22.678 -18.519  0.00  0.00     0.148 A 
ATOM     18  N   UNL d   1      33.219  22.514 -17.911  0.00  0.00    -0.227 NA
ATOM     19  C   UNL d   1      33.200  22.911 -17.190  0.00  0.00     0.101 A 
ATOM     20  C   UNL d   1      32.632  23.489 -17.062  0.00  0.00     0.021 A 
ATOM     21  C   UNL d   1      32.100  23.652 -17.658  0.00  0.00     0.005 A 
ATOM     22  C   UNL d   1      32.120  23.255 -18.379  0.00  0.00     0.037 A 
ENDBRANCH  14  17
ENDBRANCH   1  11
BRANCH   4  23
ATOM     23  C   UNL d   1      32.743  19.951 -23.610  0.00  0.00     0.019 A 
ATOM     24  C   UNL d   1      32.258  19.293 -23.719  0.00  0.00     0.002 A 
ATOM     25  C   UNL d   1      32.261  18.897 -24.453  0.00  0.00     0.000 A 
ATOM     26  C   UNL d   1      32.740  19.150 -25.073  0.00  0.00     0.000 A 
ATOM     27  C   UNL d   1      33.229  19.812 -24.966  0.00  0.00     0.000 A 
ATOM     28  C   UNL d   1      33.232  20.219 -24.227  0.00  0.00     0.002 A 
ENDBRANCH   4  23
TORSDOF 3
ENDMDL
