MODEL 1
REMARK VINA RESULT:      92.4      0.000      0.000
REMARK  5 active torsions:
REMARK  status: ('A' for Active; 'I' for Inactive)
REMARK    1  A    between atoms: N_6  and  C_1 
REMARK    2  A    between atoms: C_8  and  C_2 
REMARK    3  A    between atoms: C_10  and  C_3 
REMARK       I    between atoms: C_7  and  N_6 
REMARK    4  A    between atoms: C_18  and  C_7 
REMARK    5  A    between atoms: C_17  and  C_10 
ROOT
ATOM      1  C   UNL d   1      59.534  49.017  51.185  0.00  0.00     0.119 A 
ATOM      2  C   UNL d   1      60.255  49.191  50.834  0.00  0.00     0.084 A 
ATOM      3  C   UNL d   1      60.357  49.449  52.145  0.00  0.00     0.031 A 
ATOM      4  S   UNL d   1      59.588  49.174  51.996  0.00  0.00    -0.068 SA
ATOM      5  C   UNL d   1      60.765  49.459  51.429  0.00  0.00     0.013 A 
ATOM      6  C   UNL d   1      61.553  49.698  51.331  0.00  0.00     0.001 C 
ENDROOT
BRANCH   3   7
ATOM      7  C   UNL d   1      60.735  49.693  52.848  0.00  0.00     0.007 C 
BRANCH   7   8
ATOM      8  C   UNL d   1      60.311  49.693  53.564  0.00  0.00     0.003 A 
ATOM      9  C   UNL d   1      59.481  49.694  53.549  0.00  0.00     0.026 A 
ATOM     10  C   UNL d   1      59.054  49.695  54.252  0.00  0.00     0.119 A 
ATOM     11  O   UNL d   1      58.248  49.695  54.403  0.00  0.00    -0.300 OA
ATOM     12  C   UNL d   1      59.450  49.695  54.976  0.00  0.00     0.119 A 
ATOM     13  C   UNL d   1      58.141  49.696  55.216  0.00  0.00     0.304 A 
ATOM     14  O   UNL d   1      58.886  49.696  55.569  0.00  0.00    -0.300 OA
ATOM     15  C   UNL d   1      60.272  49.694  54.996  0.00  0.00     0.026 A 
ATOM     16  C   UNL d   1      60.707  49.693  54.288  0.00  0.00     0.002 A 
ENDBRANCH   7   8
ENDBRANCH   3   7
BRANCH   1  17
ATOM     17  N   UNL d   1      58.852  48.728  50.787  0.00  0.00    -0.201 NA
ATOM     18  C   UNL d   1      58.101  49.046  50.961  0.00  0.00     0.280 C 
ATOM     19  O   UNL d   1      58.021  49.645  51.522  0.00  0.00    -0.265 OA
BRANCH  18  20
ATOM     20  C   UNL d   1      57.433  48.756  50.565  0.00  0.00     0.058 A 
ATOM     21  C   UNL d   1      56.707  49.145  50.627  0.00  0.00     0.005 A 
ATOM     22  C   UNL d   1      56.043  48.860  50.236  0.00  0.00     0.000 A 
ATOM     23  C   UNL d   1      56.096  48.176  49.772  0.00  0.00     0.000 A 
ATOM     24  C   UNL d   1      56.827  47.789  49.712  0.00  0.00     0.000 A 
ATOM     25  C   UNL d   1      57.487  48.075  50.103  0.00  0.00     0.005 A 
ENDBRANCH  18  20
ENDBRANCH   1  17
BRANCH   2  26
ATOM     26  C   UNL d   1      60.451  49.118  50.034  0.00  0.00     0.299 C 
ATOM     27  O   UNL d   1      60.088  49.679  49.450  0.00  0.00    -0.264 OA
ATOM     28  N   UNL d   1      60.937  48.577  49.793  0.00  0.00    -0.102 N 
ENDBRANCH   2  26
TORSDOF 5
ENDMDL
