MODEL 1
REMARK VINA RESULT:      -2.6      0.000      0.000
REMARK  9 active torsions:
REMARK  status: ('A' for Active; 'I' for Inactive)
REMARK    1  A    between atoms: N_6  and  C_1 
REMARK    2  A    between atoms: N_2  and  C_12 
REMARK    3  A    between atoms: C_3  and  N_6 
REMARK    4  A    between atoms: N_4  and  C_3 
REMARK       I    between atoms: C_7  and  N_4 
REMARK    5  A    between atoms: C_16  and  C_7 
REMARK    6  A    between atoms: C_10  and  C_8 
REMARK    7  A    between atoms: C_13  and  C_10 
REMARK    8  A    between atoms: O_24  and  C_13 
REMARK    9  A    between atoms: C_25  and  O_24 
ROOT
ATOM      1  C   UNL d   1     -41.834-121.895 -51.697  0.00  0.00     0.277 C 
ATOM      2  S   UNL d   1     -41.796-121.071 -51.715  0.00  0.00    -0.023 SA
ENDROOT
BRANCH   1   3
ATOM      3  N   UNL d   1     -41.656-122.329 -52.376  0.00  0.00    -0.347 NA
BRANCH   3   4
ATOM      4  C   UNL d   1     -41.474-122.758 -53.055  0.00  0.00     0.248 A 
ATOM      5  N   UNL d   1     -41.441-122.465 -53.831  0.00  0.00    -0.210 NA
ATOM      6  C   UNL d   1     -41.237-123.090 -54.330  0.00  0.00     0.096 A 
ATOM      7  C   UNL d   1     -41.145-123.766 -53.863  0.00  0.00     0.059 A 
ATOM      8  S   UNL d   1     -41.290-123.563 -53.086  0.00  0.00    -0.033 SA
BRANCH   6   9
ATOM      9  C   UNL d   1     -41.144-123.044 -55.144  0.00  0.00     0.088 C 
BRANCH   9  10
ATOM     10  C   UNL d   1     -41.544-122.473 -55.579  0.00  0.00     0.302 C 
ATOM     11  O   UNL d   1     -41.123-121.996 -56.102  0.00  0.00    -0.259 OA
BRANCH  10  12
ATOM     12  O   UNL d   1     -42.355-122.376 -55.494  0.00  0.00    -0.271 OA
BRANCH  12  13
ATOM     13  C   UNL d   1     -42.827-122.239 -56.155  0.00  0.00     0.126 C 
ATOM     14  C   UNL d   1     -43.600-121.979 -56.063  0.00  0.00     0.029 C 
ENDBRANCH  12  13
ENDBRANCH  10  12
ENDBRANCH   9  10
ENDBRANCH   6   9
ENDBRANCH   3   4
ENDBRANCH   1   3
BRANCH   1  15
ATOM     15  N   UNL d   1     -42.050-122.278 -51.001  0.00  0.00    -0.168 NA
ATOM     16  C   UNL d   1     -41.701-122.064 -50.281  0.00  0.00     0.282 C 
ATOM     17  O   UNL d   1     -41.137-121.468 -50.259  0.00  0.00    -0.265 OA
BRANCH  16  18
ATOM     18  C   UNL d   1     -41.922-122.453 -49.586  0.00  0.00     0.058 A 
ATOM     19  C   UNL d   1     -41.375-122.887 -49.168  0.00  0.00     0.006 A 
ATOM     20  C   UNL d   1     -41.597-123.276 -48.472  0.00  0.00     0.024 A 
ATOM     21  C   UNL d   1     -42.377-123.223 -48.202  0.00  0.00     0.127 A 
ATOM     22  C   UNL d   1     -42.933-122.780 -48.631  0.00  0.00     0.024 A 
ATOM     23  C   UNL d   1     -42.708-122.396 -49.320  0.00  0.00     0.006 A 
BRANCH  21  24
ATOM     24  N   UNL d   1     -42.604-123.608 -47.511  0.00  0.00    -0.114 N 
ATOM     25  O   UNL d   1     -42.038-123.813 -46.943  0.00  0.00    -0.532 OA
ATOM     26  O   UNL d   1     -43.395-123.787 -47.386  0.00  0.00    -0.532 OA
ENDBRANCH  21  24
ENDBRANCH  16  18
ENDBRANCH   1  15
TORSDOF 9
ENDMDL
