MODEL 1
REMARK VINA RESULT:      52.8      0.000      0.000
REMARK  4 active torsions:
REMARK  status: ('A' for Active; 'I' for Inactive)
REMARK    1  A    between atoms: N_5  and  C_1 
REMARK    2  A    between atoms: N_8  and  C_3 
REMARK    3  A    between atoms: C_13  and  N_8 
REMARK    4  A    between atoms: C_12  and  C_13 
ROOT
ATOM      1  C   UNL d   1      59.872  49.623  51.918  0.00  0.00     0.200 A 
ATOM      2  C   UNL d   1      60.691  49.585  51.995  0.00  0.00     0.288 A 
ATOM      3  C   UNL d   1      59.517  49.654  51.165  0.00  0.00     0.109 A 
ATOM      4  N   UNL d   1      61.166  49.576  51.314  0.00  0.00    -0.270 N 
ATOM      5  C   UNL d   1      60.000  49.645  50.488  0.00  0.00     0.036 A 
ATOM      6  C   UNL d   1      60.822  49.606  50.564  0.00  0.00     0.069 A 
ATOM      7  O   UNL d   1      61.034  49.555  52.744  0.00  0.00    -0.265 OA
ATOM      8  C   UNL d   1      61.985  49.538  51.390  0.00  0.00     0.102 C 
ATOM      9  C   UNL d   1      59.656  49.675  49.739  0.00  0.00     0.003 A 
ATOM     10  C   UNL d   1      61.297  49.598  49.891  0.00  0.00     0.018 A 
ATOM     11  C   UNL d   1      60.135  49.667  49.066  0.00  0.00     0.000 A 
ATOM     12  C   UNL d   1      60.954  49.628  49.142  0.00  0.00     0.002 A 
ENDROOT
BRANCH   3  13
ATOM     13  N   UNL d   1      58.699  49.692  51.087  0.00  0.00    -0.242 NA
BRANCH  13  14
ATOM     14  C   UNL d   1      58.256  48.999  51.022  0.00  0.00     0.100 C 
BRANCH  14  15
ATOM     15  C   UNL d   1      57.515  49.016  50.663  0.00  0.00     0.030 A 
ATOM     16  C   UNL d   1      57.014  48.365  50.737  0.00  0.00     0.059 A 
ATOM     17 CL   UNL d   1      57.247  47.701  51.166  0.00  0.00    -0.082 Cl
ATOM     18  C   UNL d   1      56.273  48.380  50.379  0.00  0.00     0.011 A 
ATOM     19  C   UNL d   1      56.033  49.047  49.946  0.00  0.00     0.001 A 
ATOM     20  C   UNL d   1      56.541  49.694  49.876  0.00  0.00     0.000 A 
ATOM     21  C   UNL d   1      57.281  49.678  50.235  0.00  0.00     0.002 A 
ENDBRANCH  14  15
ENDBRANCH  13  14
ENDBRANCH   3  13
BRANCH   1  22
ATOM     22  N   UNL d   1      59.390  49.632  52.594  0.00  0.00    -0.107 N 
ATOM     23  O   UNL d   1      58.570  49.613  52.514  0.00  0.00    -0.531 OA
ATOM     24  O   UNL d   1      59.730  49.659  53.348  0.00  0.00    -0.531 OA
ENDBRANCH   1  22
TORSDOF 4
ENDMDL
