MODEL 1
REMARK VINA RESULT:      -9.6      0.000      0.000
REMARK  4 active torsions:
REMARK  status: ('A' for Active; 'I' for Inactive)
REMARK    1  A    between atoms: N_7  and  C_1 
REMARK    2  A    between atoms: C_8  and  C_2 
REMARK    3  A    between atoms: C_11  and  N_7 
REMARK    4  A    between atoms: C_19  and  C_12 
ROOT
ATOM      1  C   UNL d   1      53.007  33.452  53.563  0.00  0.00     0.189 A 
ATOM      2  C   UNL d   1      52.711  34.221  53.567  0.00  0.00     0.119 A 
ATOM      3  C   UNL d   1      52.933  34.744  54.166  0.00  0.00     0.204 A 
ATOM      4  O   UNL d   1      53.525  33.207  54.158  0.00  0.00    -0.289 OA
ATOM      5  C   UNL d   1      53.446  34.498  54.755  0.00  0.00     0.067 A 
ATOM      6  C   UNL d   1      53.743  33.729  54.751  0.00  0.00     0.105 A 
ATOM      7  O   UNL d   1      52.635  35.517  54.170  0.00  0.00    -0.286 OA
ATOM      8  C   UNL d   1      54.268  33.463  55.345  0.00  0.00     0.027 C 
ENDROOT
BRANCH   1   9
ATOM      9  N   UNL d   1      52.784  32.904  52.948  0.00  0.00    -0.222 NA
BRANCH   9  10
ATOM     10  C   UNL d   1      52.867  32.094  53.059  0.00  0.00     0.084 A 
ATOM     11  C   UNL d   1      52.212  31.632  53.270  0.00  0.00     0.019 A 
ATOM     12  C   UNL d   1      52.295  30.819  53.382  0.00  0.00     0.002 A 
ATOM     13  C   UNL d   1      53.034  30.464  53.284  0.00  0.00     0.000 A 
ATOM     14  C   UNL d   1      53.682  30.919  53.076  0.00  0.00     0.002 A 
ATOM     15  C   UNL d   1      53.599  31.732  52.964  0.00  0.00     0.019 A 
BRANCH  13  16
ATOM     16  C   UNL d   1      53.117  29.647  53.397  0.00  0.00     0.000 C 
ATOM     17  C   UNL d   1      53.322  29.354  54.132  0.00  0.00     0.000 C 
ENDBRANCH  13  16
ENDBRANCH   9  10
ENDBRANCH   1   9
BRANCH   2  18
ATOM     18  C   UNL d   1      52.184  34.462  52.956  0.00  0.00     0.202 C 
ATOM     19  O   UNL d   1      52.494  34.733  52.238  0.00  0.00    -0.286 OA
ATOM     20  C   UNL d   1      51.373  34.429  53.068  0.00  0.00     0.046 C 
ENDBRANCH   2  18
TORSDOF 4
ENDMDL
MODEL 2
REMARK VINA RESULT:      -9.3      1.357      3.271
REMARK  4 active torsions:
REMARK  status: ('A' for Active; 'I' for Inactive)
REMARK    1  A    between atoms: N_7  and  C_1 
REMARK    2  A    between atoms: C_8  and  C_2 
REMARK    3  A    between atoms: C_11  and  N_7 
REMARK    4  A    between atoms: C_19  and  C_12 
ROOT
ATOM      1  C   UNL d   1      53.134  33.498  53.864  0.00  0.00     0.189 A 
ATOM      2  C   UNL d   1      53.801  33.120  54.171  0.00  0.00     0.119 A 
ATOM      3  C   UNL d   1      54.236  33.479  54.773  0.00  0.00     0.204 A 
ATOM      4  O   UNL d   1      52.906  34.233  54.161  0.00  0.00    -0.289 OA
ATOM      5  C   UNL d   1      54.007  34.208  55.065  0.00  0.00     0.067 A 
ATOM      6  C   UNL d   1      53.340  34.586  54.759  0.00  0.00     0.105 A 
ATOM      7  O   UNL d   1      54.905  33.099  55.081  0.00  0.00    -0.286 OA
ATOM      8  C   UNL d   1      53.093  35.332  55.046  0.00  0.00     0.027 C 
ENDROOT
BRANCH   1   9
ATOM      9  N   UNL d   1      52.678  33.135  53.241  0.00  0.00    -0.222 NA
BRANCH   9  10
ATOM     10  C   UNL d   1      51.971  33.470  52.992  0.00  0.00     0.084 A 
ATOM     11  C   UNL d   1      51.959  33.989  52.345  0.00  0.00     0.019 A 
ATOM     12  C   UNL d   1      51.249  34.326  52.095  0.00  0.00     0.002 A 
ATOM     13  C   UNL d   1      50.547  34.146  52.490  0.00  0.00     0.000 A 
ATOM     14  C   UNL d   1      50.556  33.633  53.128  0.00  0.00     0.002 A 
ATOM     15  C   UNL d   1      51.267  33.296  53.379  0.00  0.00     0.019 A 
BRANCH  13  16
ATOM     16  C   UNL d   1      49.833  34.484  52.238  0.00  0.00     0.000 C 
ATOM     17  C   UNL d   1      49.387  34.932  52.757  0.00  0.00     0.000 C 
ENDBRANCH  13  16
ENDBRANCH   9  10
ENDBRANCH   1   9
BRANCH   2  18
ATOM     18  C   UNL d   1      54.026  32.369  53.861  0.00  0.00     0.202 C 
ATOM     19  O   UNL d   1      54.530  32.338  53.205  0.00  0.00    -0.286 OA
ATOM     20  C   UNL d   1      53.752  31.678  54.203  0.00  0.00     0.046 C 
ENDBRANCH   2  18
TORSDOF 4
ENDMDL
MODEL 3
REMARK VINA RESULT:      -8.8      0.948      2.042
REMARK  4 active torsions:
REMARK  status: ('A' for Active; 'I' for Inactive)
REMARK    1  A    between atoms: N_7  and  C_1 
REMARK    2  A    between atoms: C_8  and  C_2 
REMARK    3  A    between atoms: C_11  and  N_7 
REMARK    4  A    between atoms: C_19  and  C_12 
ROOT
ATOM      1  C   UNL d   1      53.670  33.164  54.101  0.00  0.00     0.189 A 
ATOM      2  C   UNL d   1      53.906  33.753  54.629  0.00  0.00     0.119 A 
ATOM      3  C   UNL d   1      53.446  34.432  54.720  0.00  0.00     0.204 A 
ATOM      4  O   UNL d   1      52.976  33.258  53.665  0.00  0.00    -0.289 OA
ATOM      5  C   UNL d   1      52.757  34.521  54.285  0.00  0.00     0.067 A 
ATOM      6  C   UNL d   1      52.522  33.933  53.757  0.00  0.00     0.105 A 
ATOM      7  O   UNL d   1      53.682  35.022  55.250  0.00  0.00    -0.286 OA
ATOM      8  C   UNL d   1      51.822  34.009  53.306  0.00  0.00     0.027 C 
ENDROOT
BRANCH   1   9
ATOM      9  N   UNL d   1      54.139  32.458  54.001  0.00  0.00    -0.222 NA
BRANCH   9  10
ATOM     10  C   UNL d   1      53.787  31.751  53.778  0.00  0.00     0.084 A 
ATOM     11  C   UNL d   1      53.720  31.552  52.976  0.00  0.00     0.019 A 
ATOM     12  C   UNL d   1      53.365  30.841  52.752  0.00  0.00     0.002 A 
ATOM     13  C   UNL d   1      53.076  30.327  53.329  0.00  0.00     0.000 A 
ATOM     14  C   UNL d   1      53.141  30.521  54.121  0.00  0.00     0.002 A 
ATOM     15  C   UNL d   1      53.496  31.232  54.345  0.00  0.00     0.019 A 
BRANCH  13  16
ATOM     16  C   UNL d   1      52.720  29.613  53.104  0.00  0.00     0.000 C 
ATOM     17  C   UNL d   1      52.696  28.984  53.627  0.00  0.00     0.000 C 
ENDBRANCH  13  16
ENDBRANCH   9  10
ENDBRANCH   1   9
BRANCH   2  18
ATOM     18  C   UNL d   1      54.616  33.649  55.070  0.00  0.00     0.202 C 
ATOM     19  O   UNL d   1      54.581  33.284  55.813  0.00  0.00    -0.286 OA
ATOM     20  C   UNL d   1      55.334  33.905  54.772  0.00  0.00     0.046 C 
ENDBRANCH   2  18
TORSDOF 4
ENDMDL
