MODEL 1
REMARK VINA RESULT:      -6.3      0.000      0.000
REMARK  5 active torsions:
REMARK  status: ('A' for Active; 'I' for Inactive)
REMARK    1  A    between atoms: N_2  and  C_1 
REMARK    2  A    between atoms: C_5  and  C_1 
REMARK    3  A    between atoms: O_4  and  N_2 
REMARK    4  A    between atoms: C_3  and  O_4 
REMARK    5  A    between atoms: C_6  and  C_3 
ROOT
ATOM      1  O   UNL d   1     -41.515-122.844 -52.002  0.00  0.00    -0.168 OA
ENDROOT
BRANCH   1   2
ATOM      2  C   UNL d   1     -41.483-122.338 -51.244  0.00  0.00     0.319 C 
ATOM      3  O   UNL d   1     -41.123-121.515 -51.260  0.00  0.00    -0.257 OA
BRANCH   2   4
ATOM      4  C   UNL d   1     -41.786-122.638 -50.534  0.00  0.00     0.065 A 
ATOM      5  C   UNL d   1     -42.541-122.394 -50.284  0.00  0.00     0.005 A 
ATOM      6  C   UNL d   1     -42.837-122.701 -49.570  0.00  0.00     0.000 A 
ATOM      7  C   UNL d   1     -42.399-123.233 -49.119  0.00  0.00     0.000 A 
ATOM      8  C   UNL d   1     -41.654-123.456 -49.394  0.00  0.00     0.000 A 
ATOM      9  C   UNL d   1     -42.708-123.528 -48.413  0.00  0.00     0.000 C 
ATOM     10  C   UNL d   1     -41.350-123.169 -50.084  0.00  0.00     0.005 A 
ENDBRANCH   2   4
ENDBRANCH   1   2
BRANCH   1  11
ATOM     11  N   UNL d   1     -41.428-122.506 -52.739  0.00  0.00    -0.100 NA
BRANCH  11  12
ATOM     12  C   UNL d   1     -41.502-122.948 -53.426  0.00  0.00     0.228 C 
ATOM     13  N   UNL d   1     -41.353-123.758 -53.399  0.00  0.00    -0.123 N 
BRANCH  12  14
ATOM     14  C   UNL d   1     -41.722-122.606 -54.134  0.00  0.00     0.121 A 
ATOM     15  N   UNL d   1     -42.440-122.226 -54.203  0.00  0.00    -0.241 NA
ATOM     16  C   UNL d   1     -42.659-121.878 -54.929  0.00  0.00     0.099 A 
ATOM     17  C   UNL d   1     -42.144-121.921 -55.575  0.00  0.00     0.021 A 
ATOM     18  C   UNL d   1     -41.413-122.309 -55.503  0.00  0.00     0.003 A 
ATOM     19  C   UNL d   1     -41.207-122.649 -54.780  0.00  0.00     0.022 A 
ENDBRANCH  12  14
ENDBRANCH  11  12
ENDBRANCH   1  11
TORSDOF 5
ENDMDL
MODEL 2
REMARK VINA RESULT:      -5.9      0.962      4.753
REMARK  5 active torsions:
REMARK  status: ('A' for Active; 'I' for Inactive)
REMARK    1  A    between atoms: N_2  and  C_1 
REMARK    2  A    between atoms: C_5  and  C_1 
REMARK    3  A    between atoms: O_4  and  N_2 
REMARK    4  A    between atoms: C_3  and  O_4 
REMARK    5  A    between atoms: C_6  and  C_3 
ROOT
ATOM      1  O   UNL d   1     -41.571-122.444 -52.462  0.00  0.00    -0.168 OA
ENDROOT
BRANCH   1   2
ATOM      2  C   UNL d   1     -41.512-122.954 -53.216  0.00  0.00     0.319 C 
ATOM      3  O   UNL d   1     -41.270-123.817 -53.165  0.00  0.00    -0.257 OA
BRANCH   2   4
ATOM      4  C   UNL d   1     -41.682-122.619 -53.955  0.00  0.00     0.065 A 
ATOM      5  C   UNL d   1     -41.125-122.695 -54.568  0.00  0.00     0.005 A 
ATOM      6  C   UNL d   1     -41.306-122.356 -55.306  0.00  0.00     0.000 A 
ATOM      7  C   UNL d   1     -42.014-121.955 -55.431  0.00  0.00     0.000 A 
ATOM      8  C   UNL d   1     -42.545-121.897 -54.803  0.00  0.00     0.000 A 
ATOM      9  C   UNL d   1     -42.177-121.624 -56.170  0.00  0.00     0.000 C 
ATOM     10  C   UNL d   1     -42.388-122.220 -54.080  0.00  0.00     0.005 A 
ENDBRANCH   2   4
ENDBRANCH   1   2
BRANCH   1  11
ATOM     11  N   UNL d   1     -41.608-122.786 -51.723  0.00  0.00    -0.100 NA
BRANCH  11  12
ATOM     12  C   UNL d   1     -41.595-122.334 -51.039  0.00  0.00     0.228 C 
ATOM     13  N   UNL d   1     -41.238-121.591 -51.057  0.00  0.00    -0.123 N 
BRANCH  12  14
ATOM     14  C   UNL d   1     -41.926-122.601 -50.342  0.00  0.00     0.121 A 
ATOM     15  N   UNL d   1     -42.702-122.429 -50.162  0.00  0.00    -0.241 NA
ATOM     16  C   UNL d   1     -43.034-122.705 -49.448  0.00  0.00     0.099 A 
ATOM     17  C   UNL d   1     -42.573-123.152 -48.927  0.00  0.00     0.021 A 
ATOM     18  C   UNL d   1     -41.782-123.326 -49.112  0.00  0.00     0.003 A 
ATOM     19  C   UNL d   1     -41.464-123.048 -49.821  0.00  0.00     0.022 A 
ENDBRANCH  12  14
ENDBRANCH  11  12
ENDBRANCH   1  11
TORSDOF 5
ENDMDL
MODEL 3
REMARK VINA RESULT:      -4.1      1.636      4.924
REMARK  5 active torsions:
REMARK  status: ('A' for Active; 'I' for Inactive)
REMARK    1  A    between atoms: N_2  and  C_1 
REMARK    2  A    between atoms: C_5  and  C_1 
REMARK    3  A    between atoms: O_4  and  N_2 
REMARK    4  A    between atoms: C_3  and  O_4 
REMARK    5  A    between atoms: C_6  and  C_3 
ROOT
ATOM      1  O   UNL d   1     -41.900-122.948 -50.989  0.00  0.00    -0.168 OA
ENDROOT
BRANCH   1   2
ATOM      2  C   UNL d   1     -41.552-122.368 -51.601  0.00  0.00     0.319 C 
ATOM      3  O   UNL d   1     -41.300-121.542 -51.355  0.00  0.00    -0.257 OA
BRANCH   2   4
ATOM      4  C   UNL d   1     -41.467-122.604 -52.391  0.00  0.00     0.065 A 
ATOM      5  C   UNL d   1     -41.345-123.409 -52.559  0.00  0.00     0.005 A 
ATOM      6  C   UNL d   1     -41.261-123.635 -53.355  0.00  0.00     0.000 A 
ATOM      7  C   UNL d   1     -41.296-123.082 -53.964  0.00  0.00     0.000 A 
ATOM      8  C   UNL d   1     -41.418-122.291 -53.764  0.00  0.00     0.000 A 
ATOM      9  C   UNL d   1     -41.210-123.324 -54.748  0.00  0.00     0.000 C 
ATOM     10  C   UNL d   1     -41.502-122.052 -52.998  0.00  0.00     0.005 A 
ENDBRANCH   2   4
ENDBRANCH   1   2
BRANCH   1  11
ATOM     11  N   UNL d   1     -41.974-122.740 -50.204  0.00  0.00    -0.100 NA
BRANCH  11  12
ATOM     12  C   UNL d   1     -42.309-123.247 -49.655  0.00  0.00     0.228 C 
ATOM     13  N   UNL d   1     -42.916-123.752 -49.893  0.00  0.00    -0.123 N 
BRANCH  12  14
ATOM     14  C   UNL d   1     -42.057-123.266 -48.878  0.00  0.00     0.121 A 
ATOM     15  N   UNL d   1     -41.375-123.665 -48.676  0.00  0.00    -0.241 NA
ATOM     16  C   UNL d   1     -41.123-123.681 -47.881  0.00  0.00     0.099 A 
ATOM     17  C   UNL d   1     -41.566-123.289 -47.303  0.00  0.00     0.021 A 
ATOM     18  C   UNL d   1     -42.260-122.883 -47.511  0.00  0.00     0.003 A 
ATOM     19  C   UNL d   1     -42.500-122.875 -48.300  0.00  0.00     0.022 A 
ENDBRANCH  12  14
ENDBRANCH  11  12
ENDBRANCH   1  11
TORSDOF 5
ENDMDL
