MODEL 1
REMARK VINA RESULT:      -7.7      0.000      0.000
REMARK  2 active torsions:
REMARK  status: ('A' for Active; 'I' for Inactive)
REMARK    1  A    between atoms: N_2  and  S_1 
REMARK    2  A    between atoms: C_3  and  S_1 
ROOT
ATOM      1  N   UNL d   1     -48.341  13.696  22.899  0.00  0.00    -0.229 N 
ATOM      2  C   UNL d   1     -48.322  12.958  23.248  0.00  0.00     0.092 A 
ATOM      3  C   UNL d   1     -47.601  12.561  23.300  0.00  0.00     0.018 A 
ATOM      4  C   UNL d   1     -47.655  14.048  22.600  0.00  0.00     0.092 A 
ATOM      5  C   UNL d   1     -46.903  12.920  22.996  0.00  0.00     0.003 A 
ATOM      6  C   UNL d   1     -46.950  13.663  22.650  0.00  0.00     0.020 A 
ATOM      7  C   UNL d   1     -47.558  11.812  23.650  0.00  0.00     0.002 A 
ATOM      8  C   UNL d   1     -46.186  12.516  23.052  0.00  0.00     0.000 A 
ATOM      9  C   UNL d   1     -46.840  11.425  23.698  0.00  0.00     0.000 A 
ATOM     10  C   UNL d   1     -46.154  11.777  23.399  0.00  0.00     0.000 A 
ENDROOT
BRANCH   1  11
ATOM     11  S   UNL d   1     -49.085  14.103  22.846  0.00  0.00     0.277 S 
ATOM     12  O   UNL d   1     -49.270  13.671  22.149  0.00  0.00    -0.199 OA
ATOM     13  O   UNL d   1     -48.907  14.536  23.539  0.00  0.00    -0.199 OA
BRANCH  11  14
ATOM     14  C   UNL d   1     -49.797  14.503  22.809  0.00  0.00     0.133 A 
ATOM     15  S   UNL d   1     -50.413  14.290  22.333  0.00  0.00    -0.074 SA
ATOM     16  C   UNL d   1     -51.058  14.848  22.455  0.00  0.00     0.036 A 
ATOM     17  C   UNL d   1     -50.795  15.413  23.035  0.00  0.00     0.008 A 
ATOM     18  C   UNL d   1     -50.038  15.203  23.245  0.00  0.00     0.020 A 
ENDBRANCH  11  14
ENDBRANCH   1  11
TORSDOF 2
ENDMDL
MODEL 2
REMARK VINA RESULT:      -7.5      1.772      3.538
REMARK  2 active torsions:
REMARK  status: ('A' for Active; 'I' for Inactive)
REMARK    1  A    between atoms: N_2  and  S_1 
REMARK    2  A    between atoms: C_3  and  S_1 
ROOT
ATOM      1  N   UNL d   1     -48.184  12.607  23.085  0.00  0.00    -0.229 N 
ATOM      2  C   UNL d   1     -48.844  13.068  22.945  0.00  0.00     0.092 A 
ATOM      3  C   UNL d   1     -49.586  12.772  23.150  0.00  0.00     0.018 A 
ATOM      4  C   UNL d   1     -48.248  11.856  23.426  0.00  0.00     0.092 A 
ATOM      5  C   UNL d   1     -49.651  12.008  23.496  0.00  0.00     0.003 A 
ATOM      6  C   UNL d   1     -48.971  11.566  23.626  0.00  0.00     0.020 A 
ATOM      7  C   UNL d   1     -50.269  13.222  23.017  0.00  0.00     0.002 A 
ATOM      8  C   UNL d   1     -50.396  11.720  23.698  0.00  0.00     0.000 A 
ATOM      9  C   UNL d   1     -51.001  12.921  23.222  0.00  0.00     0.000 A 
ATOM     10  C   UNL d   1     -51.064  12.170  23.563  0.00  0.00     0.000 A 
ENDROOT
BRANCH   1  11
ATOM     11  S   UNL d   1     -47.421  12.914  22.874  0.00  0.00     0.277 S 
ATOM     12  O   UNL d   1     -47.589  12.769  22.063  0.00  0.00    -0.199 OA
ATOM     13  O   UNL d   1     -47.248  13.061  23.678  0.00  0.00    -0.199 OA
BRANCH  11  14
ATOM     14  C   UNL d   1     -46.683  13.213  22.686  0.00  0.00     0.133 A 
ATOM     15  S   UNL d   1     -46.116  12.802  22.285  0.00  0.00    -0.074 SA
ATOM     16  C   UNL d   1     -45.423  13.306  22.199  0.00  0.00     0.036 A 
ATOM     17  C   UNL d   1     -45.604  14.048  22.573  0.00  0.00     0.008 A 
ATOM     18  C   UNL d   1     -46.361  13.989  22.864  0.00  0.00     0.020 A 
ENDBRANCH  11  14
ENDBRANCH   1  11
TORSDOF 2
ENDMDL
MODEL 3
REMARK VINA RESULT:      -7.4      1.151      3.848
REMARK  2 active torsions:
REMARK  status: ('A' for Active; 'I' for Inactive)
REMARK    1  A    between atoms: N_2  and  S_1 
REMARK    2  A    between atoms: C_3  and  S_1 
ROOT
ATOM      1  N   UNL d   1     -48.617  13.848  22.699  0.00  0.00    -0.229 N 
ATOM      2  C   UNL d   1     -48.848  14.436  23.217  0.00  0.00     0.092 A 
ATOM      3  C   UNL d   1     -49.586  14.789  23.114  0.00  0.00     0.018 A 
ATOM      4  C   UNL d   1     -49.107  13.603  22.080  0.00  0.00     0.092 A 
ATOM      5  C   UNL d   1     -50.085  14.540  22.484  0.00  0.00     0.003 A 
ATOM      6  C   UNL d   1     -49.828  13.946  21.978  0.00  0.00     0.020 A 
ATOM      7  C   UNL d   1     -49.841  15.387  23.627  0.00  0.00     0.002 A 
ATOM      8  C   UNL d   1     -50.821  14.897  22.388  0.00  0.00     0.000 A 
ATOM      9  C   UNL d   1     -50.574  15.731  23.519  0.00  0.00     0.000 A 
ATOM     10  C   UNL d   1     -51.064  15.487  22.899  0.00  0.00     0.000 A 
ENDROOT
BRANCH   1  11
ATOM     11  S   UNL d   1     -47.856  13.486  22.807  0.00  0.00     0.277 S 
ATOM     12  O   UNL d   1     -47.487  14.173  22.493  0.00  0.00    -0.199 OA
ATOM     13  O   UNL d   1     -48.217  12.800  23.119  0.00  0.00    -0.199 OA
BRANCH  11  14
ATOM     14  C   UNL d   1     -47.131  13.124  22.917  0.00  0.00     0.133 A 
ATOM     15  S   UNL d   1     -47.019  12.455  23.355  0.00  0.00    -0.074 SA
ATOM     16  C   UNL d   1     -46.182  12.252  23.335  0.00  0.00     0.036 A 
ATOM     17  C   UNL d   1     -45.793  12.839  22.857  0.00  0.00     0.008 A 
ATOM     18  C   UNL d   1     -46.365  13.360  22.608  0.00  0.00     0.020 A 
ENDBRANCH  11  14
ENDBRANCH   1  11
TORSDOF 2
ENDMDL
MODEL 4
REMARK VINA RESULT:      -7.3      1.504      2.085
REMARK  2 active torsions:
REMARK  status: ('A' for Active; 'I' for Inactive)
REMARK    1  A    between atoms: N_2  and  S_1 
REMARK    2  A    between atoms: C_3  and  S_1 
ROOT
ATOM      1  N   UNL d   1     -48.104  12.332  23.149  0.00  0.00    -0.229 N 
ATOM      2  C   UNL d   1     -47.741  12.942  22.746  0.00  0.00     0.092 A 
ATOM      3  C   UNL d   1     -46.917  12.955  22.702  0.00  0.00     0.018 A 
ATOM      4  C   UNL d   1     -47.664  11.732  23.509  0.00  0.00     0.092 A 
ATOM      5  C   UNL d   1     -46.469  12.344  23.069  0.00  0.00     0.003 A 
ATOM      6  C   UNL d   1     -46.861  11.742  23.467  0.00  0.00     0.020 A 
ATOM      7  C   UNL d   1     -46.528  13.564  22.299  0.00  0.00     0.002 A 
ATOM      8  C   UNL d   1     -45.647  12.364  23.020  0.00  0.00     0.000 A 
ATOM      9  C   UNL d   1     -45.711  13.569  22.260  0.00  0.00     0.000 A 
ATOM     10  C   UNL d   1     -45.271  12.969  22.620  0.00  0.00     0.000 A 
ENDROOT
BRANCH   1  11
ATOM     11  S   UNL d   1     -48.953  12.321  23.193  0.00  0.00     0.277 S 
ATOM     12  O   UNL d   1     -48.967  11.621  22.728  0.00  0.00    -0.199 OA
ATOM     13  O   UNL d   1     -48.946  13.018  23.656  0.00  0.00    -0.199 OA
BRANCH  11  14
ATOM     14  C   UNL d   1     -49.769  12.325  23.245  0.00  0.00     0.133 A 
ATOM     15  S   UNL d   1     -50.244  12.873  22.890  0.00  0.00    -0.074 SA
ATOM     16  C   UNL d   1     -51.063  12.687  23.076  0.00  0.00     0.036 A 
ATOM     17  C   UNL d   1     -51.057  11.991  23.567  0.00  0.00     0.008 A 
ATOM     18  C   UNL d   1     -50.279  11.777  23.666  0.00  0.00     0.020 A 
ENDBRANCH  11  14
ENDBRANCH   1  11
TORSDOF 2
ENDMDL
MODEL 5
REMARK VINA RESULT:      -6.1      8.705      9.433
REMARK  2 active torsions:
REMARK  status: ('A' for Active; 'I' for Inactive)
REMARK    1  A    between atoms: N_2  and  S_1 
REMARK    2  A    between atoms: C_3  and  S_1 
ROOT
ATOM      1  N   UNL d   1     -40.047  14.588  19.805  0.00  0.00    -0.229 N 
ATOM      2  C   UNL d   1     -39.299  14.277  19.909  0.00  0.00     0.092 A 
ATOM      3  C   UNL d   1     -39.081  14.007  20.657  0.00  0.00     0.018 A 
ATOM      4  C   UNL d   1     -40.584  14.636  20.432  0.00  0.00     0.092 A 
ATOM      5  C   UNL d   1     -39.628  14.056  21.295  0.00  0.00     0.003 A 
ATOM      6  C   UNL d   1     -40.373  14.373  21.162  0.00  0.00     0.020 A 
ATOM      7  C   UNL d   1     -38.328  13.688  20.786  0.00  0.00     0.002 A 
ATOM      8  C   UNL d   1     -39.402  13.784  22.040  0.00  0.00     0.000 A 
ATOM      9  C   UNL d   1     -38.120  13.422  21.530  0.00  0.00     0.000 A 
ATOM     10  C   UNL d   1     -38.657  13.470  22.157  0.00  0.00     0.000 A 
ENDROOT
BRANCH   1  11
ATOM     11  S   UNL d   1     -40.269  14.865  19.033  0.00  0.00     0.277 S 
ATOM     12  O   UNL d   1     -39.955  15.623  19.217  0.00  0.00    -0.199 OA
ATOM     13  O   UNL d   1     -40.582  14.113  18.844  0.00  0.00    -0.199 OA
BRANCH  11  14
ATOM     14  C   UNL d   1     -40.488  15.117  18.287  0.00  0.00     0.133 A 
ATOM     15  S   UNL d   1     -40.626  15.888  18.090  0.00  0.00    -0.074 SA
ATOM     16  C   UNL d   1     -40.843  15.922  17.257  0.00  0.00     0.036 A 
ATOM     17  C   UNL d   1     -40.830  15.124  16.960  0.00  0.00     0.008 A 
ATOM     18  C   UNL d   1     -40.616  14.644  17.581  0.00  0.00     0.020 A 
ENDBRANCH  11  14
ENDBRANCH   1  11
TORSDOF 2
ENDMDL
MODEL 6
REMARK VINA RESULT:      -6.0      8.964     10.356
REMARK  2 active torsions:
REMARK  status: ('A' for Active; 'I' for Inactive)
REMARK    1  A    between atoms: N_2  and  S_1 
REMARK    2  A    between atoms: C_3  and  S_1 
ROOT
ATOM      1  N   UNL d   1     -39.756  14.628  18.497  0.00  0.00    -0.229 N 
ATOM      2  C   UNL d   1     -39.856  14.328  19.250  0.00  0.00     0.092 A 
ATOM      3  C   UNL d   1     -40.300  14.760  19.795  0.00  0.00     0.018 A 
ATOM      4  C   UNL d   1     -40.090  15.352  18.274  0.00  0.00     0.092 A 
ATOM      5  C   UNL d   1     -40.640  15.496  19.568  0.00  0.00     0.003 A 
ATOM      6  C   UNL d   1     -40.524  15.774  18.804  0.00  0.00     0.020 A 
ATOM      7  C   UNL d   1     -40.414  14.475  20.563  0.00  0.00     0.002 A 
ATOM      8  C   UNL d   1     -41.082  15.921  20.118  0.00  0.00     0.000 A 
ATOM      9  C   UNL d   1     -40.856  14.909  21.097  0.00  0.00     0.000 A 
ATOM     10  C   UNL d   1     -41.189  15.632  20.875  0.00  0.00     0.000 A 
ENDROOT
BRANCH   1  11
ATOM     11  S   UNL d   1     -39.298  14.182  17.938  0.00  0.00     0.277 S 
ATOM     12  O   UNL d   1     -39.965  13.692  17.786  0.00  0.00    -0.199 OA
ATOM     13  O   UNL d   1     -38.633  14.665  18.084  0.00  0.00    -0.199 OA
BRANCH  11  14
ATOM     14  C   UNL d   1     -38.845  13.762  17.403  0.00  0.00     0.133 A 
ATOM     15  S   UNL d   1     -38.471  14.091  16.767  0.00  0.00    -0.074 SA
ATOM     16  C   UNL d   1     -38.054  13.468  16.343  0.00  0.00     0.036 A 
ATOM     17  C   UNL d   1     -38.197  12.740  16.760  0.00  0.00     0.008 A 
ATOM     18  C   UNL d   1     -38.672  12.920  17.395  0.00  0.00     0.020 A 
ENDBRANCH  11  14
ENDBRANCH   1  11
TORSDOF 2
ENDMDL
