MODEL 1
REMARK VINA RESULT:      71.9      0.000      0.000
REMARK  3 active torsions:
REMARK  status: ('A' for Active; 'I' for Inactive)
REMARK    1  A    between atoms: N_10  and  C_3 
REMARK    2  A    between atoms: C_11  and  C_5 
REMARK    3  A    between atoms: C_15  and  N_10 
ROOT
ATOM      1  N   UNL d   1     -51.131  25.973  33.922  0.00  0.00    -0.184 N 
ATOM      2  C   UNL d   1     -51.580  25.260  33.903  0.00  0.00     0.168 A 
ATOM      3  C   UNL d   1     -50.315  25.949  33.769  0.00  0.00     0.217 A 
ATOM      4  N   UNL d   1     -52.310  26.708  34.242  0.00  0.00    -0.162 NA
ATOM      5  C   UNL d   1     -52.377  25.283  34.052  0.00  0.00     0.055 A 
ATOM      6  N   UNL d   1     -51.198  24.548  33.732  0.00  0.00    -0.227 NA
ATOM      7  C   UNL d   1     -49.952  25.238  33.602  0.00  0.00     0.066 A 
ATOM      8  C   UNL d   1     -52.753  26.007  34.224  0.00  0.00     0.104 A 
ATOM      9  C   UNL d   1     -50.394  24.521  33.581  0.00  0.00     0.087 A 
ATOM     10  C   UNL d   1     -49.179  25.042  33.432  0.00  0.00     0.006 A 
ATOM     11  C   UNL d   1     -53.560  26.021  34.373  0.00  0.00     0.023 C 
ATOM     12  C   UNL d   1     -49.883  23.902  33.399  0.00  0.00     0.019 A 
ATOM     13  C   UNL d   1     -49.122  24.232  33.307  0.00  0.00     0.002 A 
ENDROOT
BRANCH   5  14
ATOM     14  C   UNL d   1     -52.817  24.586  34.033  0.00  0.00     0.004 A 
ATOM     15  C   UNL d   1     -53.170  24.299  34.722  0.00  0.00     0.000 A 
ATOM     16  C   UNL d   1     -53.609  23.606  34.707  0.00  0.00     0.000 A 
ATOM     17  C   UNL d   1     -53.697  23.190  33.996  0.00  0.00     0.000 A 
ATOM     18  C   UNL d   1     -53.352  23.465  33.311  0.00  0.00     0.000 A 
ATOM     19  C   UNL d   1     -52.907  24.171  33.330  0.00  0.00     0.000 A 
ENDBRANCH   5  14
BRANCH   3  20
ATOM     20  N   UNL d   1     -49.857  26.666  33.788  0.00  0.00    -0.383 NA
BRANCH  20  21
ATOM     21  C   UNL d   1     -49.402  27.375  33.809  0.00  0.00     0.134 C 
ATOM     22  C   UNL d   1     -48.724  27.447  33.313  0.00  0.00     0.035 C 
ATOM     23  C   UNL d   1     -49.629  28.010  34.331  0.00  0.00     0.035 C 
ENDBRANCH  20  21
ENDBRANCH   3  20
TORSDOF 3
ENDMDL
