MODEL 1
REMARK VINA RESULT:      39.7      0.000      0.000
REMARK  4 active torsions:
REMARK  status: ('A' for Active; 'I' for Inactive)
REMARK       I    between atoms: N_2  and  C_1 
REMARK       I    between atoms: N_3  and  C_1 
REMARK    1  A    between atoms: C_7  and  N_3 
REMARK    2  A    between atoms: C_8  and  C_12 
REMARK    3  A    between atoms: C_17  and  C_8 
REMARK    4  A    between atoms: O_18  and  C_9 
ROOT
ATOM      1  C   UNL d   1      45.138 -17.542  39.607  0.00  0.00     0.354 C 
ATOM      2  N   UNL d   1      45.512 -18.032  40.154  0.00  0.00    -0.256 N 
ATOM      3  N   UNL d   1      45.531 -17.326  38.917  0.00  0.00    -0.192 NA
ATOM      4  O   UNL d   1      44.372 -17.268  39.750  0.00  0.00    -0.244 OA
ATOM      5  C   UNL d   1      45.113 -18.248  40.849  0.00  0.00     0.085 A 
ATOM      6  C   UNL d   1      46.277 -18.308  40.015  0.00  0.00     0.085 A 
ATOM      7  C   UNL d   1      45.491 -18.744  41.403  0.00  0.00     0.019 A 
ATOM      8  C   UNL d   1      46.644 -18.794  40.561  0.00  0.00     0.019 A 
ATOM      9  C   UNL d   1      46.249 -19.011  41.254  0.00  0.00     0.003 A 
ENDROOT
BRANCH   3  10
ATOM     10  C   UNL d   1      45.157 -16.832  38.362  0.00  0.00     0.086 A 
ATOM     11  C   UNL d   1      44.431 -17.048  38.048  0.00  0.00     0.021 A 
ATOM     12  C   UNL d   1      44.056 -16.561  37.499  0.00  0.00     0.026 A 
ATOM     13  C   UNL d   1      44.420 -15.857  37.270  0.00  0.00     0.094 A 
ATOM     14  C   UNL d   1      45.157 -15.639  37.590  0.00  0.00     0.026 A 
ATOM     15  C   UNL d   1      45.520 -16.135  38.138  0.00  0.00     0.021 A 
BRANCH  13  16
ATOM     16  O   UNL d   1      44.051 -15.359  36.716  0.00  0.00    -0.328 OA
ATOM     17  C   UNL d   1      43.296 -15.539  36.435  0.00  0.00     0.181 C 
ENDBRANCH  13  16
ENDBRANCH   3  10
BRANCH   9  18
ATOM     18  C   UNL d   1      46.623 -19.504  41.805  0.00  0.00     0.000 C 
BRANCH  18  19
ATOM     19  C   UNL d   1      46.527 -19.380  42.611  0.00  0.00     0.000 A 
ATOM     20  C   UNL d   1      46.647 -18.630  42.930  0.00  0.00     0.000 A 
ATOM     21  C   UNL d   1      46.550 -18.507  43.743  0.00  0.00     0.000 A 
ATOM     22  C   UNL d   1      46.333 -19.138  44.234  0.00  0.00     0.000 A 
ATOM     23  C   UNL d   1      46.213 -19.891  43.911  0.00  0.00     0.000 A 
ATOM     24  C   UNL d   1      46.310 -20.011  43.102  0.00  0.00     0.000 A 
ENDBRANCH  18  19
ENDBRANCH   9  18
TORSDOF 4
ENDMDL
MODEL 2
REMARK VINA RESULT:      41.2      1.326      5.685
REMARK  4 active torsions:
REMARK  status: ('A' for Active; 'I' for Inactive)
REMARK       I    between atoms: N_2  and  C_1 
REMARK       I    between atoms: N_3  and  C_1 
REMARK    1  A    between atoms: C_7  and  N_3 
REMARK    2  A    between atoms: C_8  and  C_12 
REMARK    3  A    between atoms: C_17  and  C_8 
REMARK    4  A    between atoms: O_18  and  C_9 
ROOT
ATOM      1  C   UNL d   1      45.309 -17.817  40.074  0.00  0.00     0.354 C 
ATOM      2  N   UNL d   1      45.172 -17.384  39.385  0.00  0.00    -0.256 N 
ATOM      3  N   UNL d   1      46.080 -18.018  40.282  0.00  0.00    -0.192 NA
ATOM      4  O   UNL d   1      44.677 -18.048  40.552  0.00  0.00    -0.244 OA
ATOM      5  C   UNL d   1      44.395 -17.183  39.177  0.00  0.00     0.085 A 
ATOM      6  C   UNL d   1      45.801 -17.152  38.905  0.00  0.00     0.085 A 
ATOM      7  C   UNL d   1      44.255 -16.746  38.481  0.00  0.00     0.019 A 
ATOM      8  C   UNL d   1      45.660 -16.723  38.223  0.00  0.00     0.019 A 
ATOM      9  C   UNL d   1      44.886 -16.521  38.013  0.00  0.00     0.003 A 
ENDROOT
BRANCH   3  10
ATOM     10  C   UNL d   1      46.222 -18.454  40.976  0.00  0.00     0.086 A 
ATOM     11  C   UNL d   1      46.089 -18.110  41.708  0.00  0.00     0.021 A 
ATOM     12  C   UNL d   1      46.228 -18.538  42.399  0.00  0.00     0.026 A 
ATOM     13  C   UNL d   1      46.503 -19.314  42.343  0.00  0.00     0.094 A 
ATOM     14  C   UNL d   1      46.638 -19.662  41.599  0.00  0.00     0.026 A 
ATOM     15  C   UNL d   1      46.494 -19.223  40.917  0.00  0.00     0.021 A 
BRANCH  13  16
ATOM     16  O   UNL d   1      46.647 -19.755  43.033  0.00  0.00    -0.328 OA
ATOM     17  C   UNL d   1      46.016 -20.043  43.479  0.00  0.00     0.181 C 
ENDBRANCH  13  16
ENDBRANCH   3  10
BRANCH   9  18
ATOM     18  C   UNL d   1      44.746 -16.086  37.321  0.00  0.00     0.000 C 
BRANCH  18  19
ATOM     19  C   UNL d   1      45.220 -15.445  37.126  0.00  0.00     0.000 A 
ATOM     20  C   UNL d   1      45.897 -15.556  36.670  0.00  0.00     0.000 A 
ATOM     21  C   UNL d   1      46.374 -14.909  36.475  0.00  0.00     0.000 A 
ATOM     22  C   UNL d   1      46.170 -14.150  36.738  0.00  0.00     0.000 A 
ATOM     23  C   UNL d   1      45.490 -14.041  37.196  0.00  0.00     0.000 A 
ATOM     24  C   UNL d   1      45.016 -14.686  37.390  0.00  0.00     0.000 A 
ENDBRANCH  18  19
ENDBRANCH   9  18
TORSDOF 4
ENDMDL
MODEL 3
REMARK VINA RESULT:      41.9      1.227      5.710
REMARK  4 active torsions:
REMARK  status: ('A' for Active; 'I' for Inactive)
REMARK       I    between atoms: N_2  and  C_1 
REMARK       I    between atoms: N_3  and  C_1 
REMARK    1  A    between atoms: C_7  and  N_3 
REMARK    2  A    between atoms: C_8  and  C_12 
REMARK    3  A    between atoms: C_17  and  C_8 
REMARK    4  A    between atoms: O_18  and  C_9 
ROOT
ATOM      1  C   UNL d   1      45.571 -17.926  40.235  0.00  0.00     0.354 C 
ATOM      2  N   UNL d   1      45.492 -17.453  39.564  0.00  0.00    -0.256 N 
ATOM      3  N   UNL d   1      46.319 -18.074  40.544  0.00  0.00    -0.192 NA
ATOM      4  O   UNL d   1      44.902 -18.250  40.595  0.00  0.00    -0.244 OA
ATOM      5  C   UNL d   1      44.738 -17.304  39.254  0.00  0.00     0.085 A 
ATOM      6  C   UNL d   1      46.158 -17.127  39.201  0.00  0.00     0.085 A 
ATOM      7  C   UNL d   1      44.658 -16.826  38.576  0.00  0.00     0.019 A 
ATOM      8  C   UNL d   1      46.076 -16.659  38.536  0.00  0.00     0.019 A 
ATOM      9  C   UNL d   1      45.324 -16.509  38.225  0.00  0.00     0.003 A 
ENDROOT
BRANCH   3  10
ATOM     10  C   UNL d   1      46.402 -18.551  41.220  0.00  0.00     0.086 A 
ATOM     11  C   UNL d   1      46.564 -19.351  41.137  0.00  0.00     0.021 A 
ATOM     12  C   UNL d   1      46.647 -19.828  41.805  0.00  0.00     0.026 A 
ATOM     13  C   UNL d   1      46.565 -19.492  42.554  0.00  0.00     0.094 A 
ATOM     14  C   UNL d   1      46.401 -18.679  42.636  0.00  0.00     0.026 A 
ATOM     15  C   UNL d   1      46.320 -18.215  41.960  0.00  0.00     0.021 A 
BRANCH  13  16
ATOM     16  O   UNL d   1      46.647 -19.963  43.233  0.00  0.00    -0.328 OA
ATOM     17  C   UNL d   1      46.131 -19.864  43.870  0.00  0.00     0.181 C 
ENDBRANCH  13  16
ENDBRANCH   3  10
BRANCH   9  18
ATOM     18  C   UNL d   1      45.244 -16.034  37.551  0.00  0.00     0.000 C 
BRANCH  18  19
ATOM     19  C   UNL d   1      44.501 -15.860  37.247  0.00  0.00     0.000 A 
ATOM     20  C   UNL d   1      44.070 -15.225  37.547  0.00  0.00     0.000 A 
ATOM     21  C   UNL d   1      43.322 -15.052  37.239  0.00  0.00     0.000 A 
ATOM     22  C   UNL d   1      43.007 -15.518  36.630  0.00  0.00     0.000 A 
ATOM     23  C   UNL d   1      43.441 -16.155  36.331  0.00  0.00     0.000 A 
ATOM     24  C   UNL d   1      44.186 -16.326  36.638  0.00  0.00     0.000 A 
ENDBRANCH  18  19
ENDBRANCH   9  18
TORSDOF 4
ENDMDL
