MODEL 1
REMARK VINA RESULT:      -0.3      0.000      0.000
REMARK  6 active torsions:
REMARK  status: ('A' for Active; 'I' for Inactive)
REMARK    1  A    between atoms: S_10  and  C_5 
REMARK    2  A    between atoms: C_11  and  N_8 
REMARK    3  A    between atoms: C_15  and  S_10 
REMARK    4  A    between atoms: C_16  and  C_11 
REMARK    5  A    between atoms: C_17  and  C_15 
REMARK    6  A    between atoms: C_23  and  C_16 
ROOT
ATOM      1  C   UNL d   1      58.508  -2.351  29.613  0.00  0.00     0.174 A 
ATOM      2  C   UNL d   1      59.158  -1.903  29.357  0.00  0.00     0.159 A 
ATOM      3  N   UNL d   1      58.079  -1.892  30.138  0.00  0.00    -0.203 NA
ATOM      4  N   UNL d   1      58.409  -3.116  29.324  0.00  0.00    -0.239 N 
ATOM      5  C   UNL d   1      58.468  -1.166  30.200  0.00  0.00     0.181 A 
ATOM      6  C   UNL d   1      58.944  -3.461  28.777  0.00  0.00     0.358 A 
ATOM      7  N   UNL d   1      59.594  -3.014  28.521  0.00  0.00    -0.152 NA
ATOM      8  N   UNL d   1      59.160  -1.091  29.739  0.00  0.00    -0.279 N 
ATOM      9  C   UNL d   1      59.708  -2.221  28.812  0.00  0.00     0.302 A 
ATOM     10  O   UNL d   1      58.849  -4.237  28.480  0.00  0.00    -0.244 OA
ATOM     11  O   UNL d   1      60.357  -1.774  28.557  0.00  0.00    -0.263 OA
ATOM     12  C   UNL d   1      57.760  -3.564  29.579  0.00  0.00     0.105 C 
ENDROOT
BRANCH   5  13
ATOM     13  S   UNL d   1      58.064  -0.675  30.722  0.00  0.00    -0.049 SA
BRANCH  13  14
ATOM     14  C   UNL d   1      57.282  -0.408  30.790  0.00  0.00     0.038 C 
BRANCH  14  15
ATOM     15  C   UNL d   1      56.963  -0.247  31.534  0.00  0.00     0.007 A 
ATOM     16  C   UNL d   1      57.012   0.515  31.840  0.00  0.00     0.001 A 
ATOM     17  C   UNL d   1      56.693   0.676  32.584  0.00  0.00     0.000 A 
ATOM     18  C   UNL d   1      56.327   0.073  33.018  0.00  0.00     0.000 A 
ATOM     19  C   UNL d   1      56.282  -0.692  32.703  0.00  0.00     0.000 A 
ATOM     20  C   UNL d   1      56.007   0.234  33.765  0.00  0.00     0.000 C 
ATOM     21  C   UNL d   1      56.602  -0.848  31.959  0.00  0.00     0.001 A 
ENDBRANCH  14  15
ENDBRANCH  13  14
ENDBRANCH   5  13
BRANCH   8  22
ATOM     22  C   UNL d   1      59.600  -0.395  29.750  0.00  0.00     0.082 C 
BRANCH  22  23
ATOM     23  C   UNL d   1      60.348  -0.381  30.098  0.00  0.00     0.019 C 
BRANCH  23  24
ATOM     24  C   UNL d   1      60.780   0.320  30.130  0.00  0.00     0.002 C 
ATOM     25  C   UNL d   1      61.056   0.674  29.438  0.00  0.00     0.000 C 
ATOM     26  C   UNL d   1      60.941   0.678  30.859  0.00  0.00     0.000 C 
ENDBRANCH  23  24
ENDBRANCH  22  23
ENDBRANCH   8  22
TORSDOF 6
ENDMDL
MODEL 2
REMARK VINA RESULT:       2.2      2.206      4.264
REMARK  6 active torsions:
REMARK  status: ('A' for Active; 'I' for Inactive)
REMARK    1  A    between atoms: S_10  and  C_5 
REMARK    2  A    between atoms: C_11  and  N_8 
REMARK    3  A    between atoms: C_15  and  S_10 
REMARK    4  A    between atoms: C_16  and  C_11 
REMARK    5  A    between atoms: C_17  and  C_15 
REMARK    6  A    between atoms: C_23  and  C_16 
ROOT
ATOM      1  C   UNL d   1      56.857  -1.014  31.706  0.00  0.00     0.174 A 
ATOM      2  C   UNL d   1      57.345  -0.395  31.961  0.00  0.00     0.159 A 
ATOM      3  N   UNL d   1      57.173  -1.315  31.014  0.00  0.00    -0.203 NA
ATOM      4  N   UNL d   1      56.191  -1.211  32.152  0.00  0.00    -0.239 N 
ATOM      5  C   UNL d   1      57.854  -0.877  30.849  0.00  0.00     0.181 A 
ATOM      6  C   UNL d   1      55.988  -0.803  32.857  0.00  0.00     0.358 A 
ATOM      7  N   UNL d   1      56.476  -0.183  33.111  0.00  0.00    -0.152 NA
ATOM      8  N   UNL d   1      58.033  -0.275  31.399  0.00  0.00    -0.279 N 
ATOM      9  C   UNL d   1      57.167   0.029  32.660  0.00  0.00     0.302 A 
ATOM     10  O   UNL d   1      55.315  -0.997  33.313  0.00  0.00    -0.244 OA
ATOM     11  O   UNL d   1      57.655   0.649  32.915  0.00  0.00    -0.263 OA
ATOM     12  C   UNL d   1      55.703  -1.830  31.897  0.00  0.00     0.105 C 
ENDROOT
BRANCH   5  13
ATOM     13  S   UNL d   1      58.203  -1.152  30.155  0.00  0.00    -0.049 SA
BRANCH  13  14
ATOM     14  C   UNL d   1      58.081  -1.801  29.655  0.00  0.00     0.038 C 
BRANCH  14  15
ATOM     15  C   UNL d   1      58.726  -2.219  29.356  0.00  0.00     0.007 A 
ATOM     16  C   UNL d   1      59.226  -1.859  28.810  0.00  0.00     0.001 A 
ATOM     17  C   UNL d   1      59.871  -2.277  28.511  0.00  0.00     0.000 A 
ATOM     18  C   UNL d   1      60.013  -3.053  28.759  0.00  0.00     0.000 A 
ATOM     19  C   UNL d   1      59.506  -3.410  29.309  0.00  0.00     0.000 A 
ATOM     20  C   UNL d   1      60.661  -3.474  28.459  0.00  0.00     0.000 C 
ATOM     21  C   UNL d   1      58.862  -2.988  29.605  0.00  0.00     0.001 A 
ENDBRANCH  14  15
ENDBRANCH  13  14
ENDBRANCH   5  13
BRANCH   8  22
ATOM     22  C   UNL d   1      58.697   0.202  31.298  0.00  0.00     0.082 C 
BRANCH  22  23
ATOM     23  C   UNL d   1      59.391   0.045  31.716  0.00  0.00     0.019 C 
BRANCH  23  24
ATOM     24  C   UNL d   1      60.082   0.460  31.549  0.00  0.00     0.002 C 
ATOM     25  C   UNL d   1      60.596   0.680  32.156  0.00  0.00     0.000 C 
ATOM     26  C   UNL d   1      60.270   0.661  30.769  0.00  0.00     0.000 C 
ENDBRANCH  23  24
ENDBRANCH  22  23
ENDBRANCH   8  22
TORSDOF 6
ENDMDL
