MODEL 1
REMARK VINA RESULT:      91.9      0.000      0.000
REMARK  4 active torsions:
REMARK  status: ('A' for Active; 'I' for Inactive)
REMARK    1  A    between atoms: N_15  and  C_2 
REMARK    2  A    between atoms: C_3  and  C_9 
REMARK    3  A    between atoms: C_11  and  C_7 
REMARK       I    between atoms: C_9  and  N_14 
REMARK    4  A    between atoms: N_14  and  N_15 
ROOT
ATOM      1  C   UNL d   1      60.483  49.330  50.306  0.00  0.00     0.062 A 
ATOM      2  N   UNL d   1      59.734  49.655  51.738  0.00  0.00    -0.245 NA
ATOM      3  C   UNL d   1      60.559  49.548  51.717  0.00  0.00     0.087 A 
ATOM      4  C   UNL d   1      60.925  49.385  50.992  0.00  0.00     0.025 A 
ATOM      5  C   UNL d   1      59.660  49.440  50.345  0.00  0.00     0.022 A 
ATOM      6  C   UNL d   1      59.292  49.600  51.052  0.00  0.00     0.082 A 
ATOM      7  C   UNL d   1      59.225  49.382  49.645  0.00  0.00     0.002 A 
ATOM      8  C   UNL d   1      58.485  49.706  51.080  0.00  0.00     0.019 A 
ATOM      9  C   UNL d   1      58.404  49.490  49.673  0.00  0.00     0.000 A 
ATOM     10  C   UNL d   1      58.039  49.651  50.387  0.00  0.00     0.002 A 
ENDROOT
BRANCH   1  11
ATOM     11  C   UNL d   1      60.859  49.169  49.594  0.00  0.00     0.297 C 
ATOM     12  N   UNL d   1      61.354  48.518  49.618  0.00  0.00    -0.104 NA
ATOM     13  O   UNL d   1      60.653  49.707  48.994  0.00  0.00    -0.264 OA
BRANCH  12  14
ATOM     14  N   UNL d   1      61.435  48.096  50.316  0.00  0.00    -0.118 NA
BRANCH  14  15
ATOM     15  C   UNL d   1      61.373  47.267  50.314  0.00  0.00     0.215 A 
ATOM     16  N   UNL d   1      61.775  46.754  49.817  0.00  0.00    -0.219 NA
ATOM     17  C   UNL d   1      61.557  45.984  49.997  0.00  0.00     0.090 A 
ATOM     18  C   UNL d   1      61.008  46.025  50.619  0.00  0.00     0.050 A 
ATOM     19  C   UNL d   1      61.776  45.257  49.688  0.00  0.00     0.018 A 
ATOM     20  C   UNL d   1      60.677  45.337  50.933  0.00  0.00     0.008 A 
ATOM     21  S   UNL d   1      60.898  46.815  50.811  0.00  0.00    -0.045 SA
ATOM     22  C   UNL d   1      60.907  44.605  50.612  0.00  0.00     0.001 A 
ATOM     23  C   UNL d   1      61.451  44.565  49.996  0.00  0.00     0.002 A 
ATOM     24  C   UNL d   1      62.324  45.221  49.067  0.00  0.00     0.002 C 
ENDBRANCH  14  15
ENDBRANCH  12  14
ENDBRANCH   1  11
BRANCH   3  25
ATOM     25  C   UNL d   1      61.008  49.603  52.414  0.00  0.00     0.047 A 
ATOM     26  S   UNL d   1      61.832  49.588  52.377  0.00  0.00    -0.085 SA
ATOM     27  C   UNL d   1      62.132  49.652  53.144  0.00  0.00     0.035 A 
ATOM     28  C   UNL d   1      61.501  49.706  53.640  0.00  0.00     0.007 A 
ATOM     29  C   UNL d   1      60.793  49.677  53.203  0.00  0.00     0.009 A 
ENDBRANCH   3  25
TORSDOF 4
ENDMDL
