MODEL 1
REMARK VINA RESULT:       9.4      0.000      0.000
REMARK  0 active torsions:
REMARK  status: ('A' for Active; 'I' for Inactive)
ROOT
ATOM      1  N   UNL d   1     -51.792  26.466  33.313  0.00  0.00    -0.202 NA
ATOM      2  N   UNL d   1     -50.452  25.516  33.319  0.00  0.00    -0.202 NA
ATOM      3  C   UNL d   1     -50.370  26.334  33.319  0.00  0.00     0.337 A 
ATOM      4  C   UNL d   1     -51.044  26.814  33.316  0.00  0.00     0.337 A 
ATOM      5  C   UNL d   1     -51.196  25.176  33.315  0.00  0.00     0.102 A 
ATOM      6  C   UNL d   1     -51.860  25.649  33.312  0.00  0.00     0.102 A 
ATOM      7  C   UNL d   1     -52.615  25.312  33.309  0.00  0.00     0.021 A 
ATOM      8  C   UNL d   1     -51.267  24.350  33.315  0.00  0.00     0.021 A 
ATOM      9  C   UNL d   1     -52.026  24.013  33.312  0.00  0.00     0.002 A 
ATOM     10  C   UNL d   1     -52.695  24.490  33.309  0.00  0.00     0.002 A 
ATOM     11  O   UNL d   1     -49.623  26.676  33.322  0.00  0.00    -0.260 OA
ATOM     12  O   UNL d   1     -50.966  27.635  33.316  0.00  0.00    -0.260 OA
ATOM     13  C   UNL d   1     -53.446  24.148  33.306  0.00  0.00     0.000 C 
ATOM     14  C   UNL d   1     -52.101  23.197  33.312  0.00  0.00     0.000 C 
ENDROOT
TORSDOF 0
ENDMDL
MODEL 2
REMARK VINA RESULT:      10.6      1.980      2.851
REMARK  0 active torsions:
REMARK  status: ('A' for Active; 'I' for Inactive)
ROOT
ATOM      1  N   UNL d   1     -52.882  25.351  33.353  0.00  0.00    -0.202 NA
ATOM      2  N   UNL d   1     -51.981  23.977  33.309  0.00  0.00    -0.202 NA
ATOM      3  C   UNL d   1     -52.802  23.925  33.321  0.00  0.00     0.337 A 
ATOM      4  C   UNL d   1     -53.257  24.616  33.343  0.00  0.00     0.337 A 
ATOM      5  C   UNL d   1     -51.615  24.709  33.319  0.00  0.00     0.102 A 
ATOM      6  C   UNL d   1     -52.063  25.389  33.341  0.00  0.00     0.102 A 
ATOM      7  C   UNL d   1     -51.699  26.131  33.351  0.00  0.00     0.021 A 
ATOM      8  C   UNL d   1     -50.787  24.749  33.307  0.00  0.00     0.021 A 
ATOM      9  C   UNL d   1     -50.422  25.496  33.317  0.00  0.00     0.002 A 
ATOM     10  C   UNL d   1     -50.874  26.181  33.339  0.00  0.00     0.002 A 
ATOM     11  O   UNL d   1     -53.171  23.191  33.311  0.00  0.00    -0.260 OA
ATOM     12  O   UNL d   1     -54.080  24.568  33.355  0.00  0.00    -0.260 OA
ATOM     13  C   UNL d   1     -50.505  26.918  33.349  0.00  0.00     0.000 C 
ATOM     14  C   UNL d   1     -49.604  25.540  33.306  0.00  0.00     0.000 C 
ENDROOT
TORSDOF 0
ENDMDL
