MODEL 1
REMARK VINA RESULT:      -0.7      0.000      0.000
REMARK  5 active torsions:
REMARK  status: ('A' for Active; 'I' for Inactive)
REMARK    1  A    between atoms: C_5  and  N_1 
REMARK    2  A    between atoms: C_8  and  C_3 
REMARK    3  A    between atoms: C_7  and  C_4 
REMARK    4  A    between atoms: N_12  and  C_5 
REMARK    5  A    between atoms: N_11  and  C_10 
ROOT
ATOM      1  N   UNL d   1     -41.350-121.800 -51.790  0.00  0.00    -0.203 N 
ATOM      2  N   UNL d   1     -41.311-121.798 -52.603  0.00  0.00    -0.163 NA
ATOM      3  C   UNL d   1     -41.493-122.527 -52.883  0.00  0.00     0.103 A 
ATOM      4  C   UNL d   1     -41.568-122.565 -51.539  0.00  0.00     0.087 A 
ATOM      5  C   UNL d   1     -41.657-123.020 -52.230  0.00  0.00     0.040 A 
ENDROOT
BRANCH   4   6
ATOM      6  C   UNL d   1     -41.679-122.842 -50.769  0.00  0.00     0.018 A 
ATOM      7  C   UNL d   1     -41.123-123.297 -50.417  0.00  0.00     0.003 A 
ATOM      8  C   UNL d   1     -41.233-123.576 -49.644  0.00  0.00     0.018 A 
ATOM      9  C   UNL d   1     -41.926-123.377 -49.242  0.00  0.00     0.064 A 
ATOM     10  C   UNL d   1     -42.497-122.914 -49.594  0.00  0.00     0.018 A 
ATOM     11  C   UNL d   1     -42.371-122.644 -50.367  0.00  0.00     0.003 A 
BRANCH   9  12
ATOM     12  N   UNL d   1     -42.039-123.645 -48.489  0.00  0.00    -0.301 N 
ATOM     13  C   UNL d   1     -41.401-123.803 -48.027  0.00  0.00     0.100 C 
ATOM     14  C   UNL d   1     -42.796-123.752 -48.209  0.00  0.00     0.100 C 
ENDBRANCH   9  12
ENDBRANCH   4   6
BRANCH   1  15
ATOM     15  C   UNL d   1     -41.198-121.144 -51.292  0.00  0.00     0.222 C 
ATOM     16  S   UNL d   1     -41.123-121.269 -50.469  0.00  0.00    -0.037 SA
BRANCH  15  17
ATOM     17  N   UNL d   1     -41.123-120.375 -51.618  0.00  0.00    -0.214 NA
ATOM     18  C   UNL d   1     -41.139-119.699 -51.127  0.00  0.00     0.122 C 
ENDBRANCH  15  17
ENDBRANCH   1  15
BRANCH   3  19
ATOM     19  C   UNL d   1     -41.508-122.723 -53.676  0.00  0.00     0.019 A 
ATOM     20  C   UNL d   1     -41.724-122.142 -54.225  0.00  0.00     0.002 A 
ATOM     21  C   UNL d   1     -41.743-122.323 -55.017  0.00  0.00     0.000 A 
ATOM     22  C   UNL d   1     -41.547-123.082 -55.273  0.00  0.00     0.000 A 
ATOM     23  C   UNL d   1     -41.327-123.669 -54.717  0.00  0.00     0.000 A 
ATOM     24  C   UNL d   1     -41.566-123.262 -56.078  0.00  0.00     0.000 C 
ATOM     25  C   UNL d   1     -41.314-123.467 -53.919  0.00  0.00     0.002 A 
ENDBRANCH   3  19
TORSDOF 5
ENDMDL
MODEL 2
REMARK VINA RESULT:       1.4      1.489      2.114
REMARK  5 active torsions:
REMARK  status: ('A' for Active; 'I' for Inactive)
REMARK    1  A    between atoms: C_5  and  N_1 
REMARK    2  A    between atoms: C_8  and  C_3 
REMARK    3  A    between atoms: C_7  and  C_4 
REMARK    4  A    between atoms: N_12  and  C_5 
REMARK    5  A    between atoms: N_11  and  C_10 
ROOT
ATOM      1  N   UNL d   1     -42.974-122.578 -50.659  0.00  0.00    -0.203 N 
ATOM      2  N   UNL d   1     -42.917-122.499 -51.467  0.00  0.00    -0.163 NA
ATOM      3  C   UNL d   1     -42.149-122.554 -51.689  0.00  0.00     0.103 A 
ATOM      4  C   UNL d   1     -42.207-122.689 -50.351  0.00  0.00     0.087 A 
ATOM      5  C   UNL d   1     -41.690-122.673 -51.003  0.00  0.00     0.040 A 
ENDROOT
BRANCH   4   6
ATOM      6  C   UNL d   1     -41.979-122.795 -49.564  0.00  0.00     0.018 A 
ATOM      7  C   UNL d   1     -42.071-123.505 -49.208  0.00  0.00     0.003 A 
ATOM      8  C   UNL d   1     -41.843-123.614 -48.418  0.00  0.00     0.018 A 
ATOM      9  C   UNL d   1     -41.519-122.977 -48.004  0.00  0.00     0.064 A 
ATOM     10  C   UNL d   1     -41.422-122.251 -48.361  0.00  0.00     0.018 A 
ATOM     11  C   UNL d   1     -41.655-122.160 -49.151  0.00  0.00     0.003 A 
BRANCH   9  12
ATOM     12  N   UNL d   1     -41.294-123.076 -47.235  0.00  0.00    -0.301 N 
ATOM     13  C   UNL d   1     -41.124-123.814 -46.967  0.00  0.00     0.100 C 
ATOM     14  C   UNL d   1     -41.243-122.429 -46.744  0.00  0.00     0.100 C 
ENDBRANCH   9  12
ENDBRANCH   4   6
BRANCH   1  15
ATOM     15  C   UNL d   1     -43.684-122.552 -50.215  0.00  0.00     0.222 C 
ATOM     16  S   UNL d   1     -43.971-123.257 -49.869  0.00  0.00    -0.037 SA
BRANCH  15  17
ATOM     17  N   UNL d   1     -44.097-121.828 -50.121  0.00  0.00    -0.214 NA
ATOM     18  C   UNL d   1     -44.933-121.813 -50.094  0.00  0.00     0.122 C 
ENDBRANCH  15  17
ENDBRANCH   1  15
BRANCH   3  19
ATOM     19  C   UNL d   1     -41.890-122.499 -52.462  0.00  0.00     0.019 A 
ATOM     20  C   UNL d   1     -42.156-123.059 -53.011  0.00  0.00     0.002 A 
ATOM     21  C   UNL d   1     -41.907-123.017 -53.784  0.00  0.00     0.000 A 
ATOM     22  C   UNL d   1     -41.391-122.417 -54.020  0.00  0.00     0.000 A 
ATOM     23  C   UNL d   1     -41.123-121.850 -53.464  0.00  0.00     0.000 A 
ATOM     24  C   UNL d   1     -41.140-122.377 -54.805  0.00  0.00     0.000 C 
ATOM     25  C   UNL d   1     -41.386-121.910 -52.687  0.00  0.00     0.002 A 
ENDBRANCH   3  19
TORSDOF 5
ENDMDL
MODEL 3
REMARK VINA RESULT:       1.9      0.958      4.583
REMARK  5 active torsions:
REMARK  status: ('A' for Active; 'I' for Inactive)
REMARK    1  A    between atoms: C_5  and  N_1 
REMARK    2  A    between atoms: C_8  and  C_3 
REMARK    3  A    between atoms: C_7  and  C_4 
REMARK    4  A    between atoms: N_12  and  C_5 
REMARK    5  A    between atoms: N_11  and  C_10 
ROOT
ATOM      1  N   UNL d   1     -41.486-121.659 -51.221  0.00  0.00    -0.203 N 
ATOM      2  N   UNL d   1     -41.465-121.781 -50.416  0.00  0.00    -0.163 NA
ATOM      3  C   UNL d   1     -41.684-122.535 -50.253  0.00  0.00     0.103 A 
ATOM      4  C   UNL d   1     -41.729-122.367 -51.588  0.00  0.00     0.087 A 
ATOM      5  C   UNL d   1     -41.853-122.916 -50.975  0.00  0.00     0.040 A 
ENDROOT
BRANCH   4   6
ATOM      6  C   UNL d   1     -41.834-122.520 -52.392  0.00  0.00     0.018 A 
ATOM      7  C   UNL d   1     -42.537-122.373 -52.745  0.00  0.00     0.003 A 
ATOM      8  C   UNL d   1     -42.645-122.526 -53.553  0.00  0.00     0.018 A 
ATOM      9  C   UNL d   1     -42.015-122.833 -53.989  0.00  0.00     0.064 A 
ATOM     10  C   UNL d   1     -41.296-122.985 -53.637  0.00  0.00     0.018 A 
ATOM     11  C   UNL d   1     -41.206-122.827 -52.829  0.00  0.00     0.003 A 
BRANCH   9  12
ATOM     12  N   UNL d   1     -42.113-122.984 -54.776  0.00  0.00    -0.301 N 
ATOM     13  C   UNL d   1     -42.846-123.157 -55.055  0.00  0.00     0.100 C 
ATOM     14  C   UNL d   1     -41.470-122.959 -55.274  0.00  0.00     0.100 C 
ENDBRANCH   9  12
ENDBRANCH   4   6
BRANCH   1  15
ATOM     15  C   UNL d   1     -41.296-120.943 -51.611  0.00  0.00     0.222 C 
ATOM     16  S   UNL d   1     -41.280-120.929 -52.447  0.00  0.00    -0.037 SA
BRANCH  15  17
ATOM     17  N   UNL d   1     -41.124-120.253 -51.167  0.00  0.00    -0.214 NA
ATOM     18  C   UNL d   1     -41.220-119.493 -51.503  0.00  0.00     0.122 C 
ENDBRANCH  15  17
ENDBRANCH   1  15
BRANCH   3  19
ATOM     19  C   UNL d   1     -41.725-122.847 -49.499  0.00  0.00     0.019 A 
ATOM     20  C   UNL d   1     -42.296-122.552 -48.977  0.00  0.00     0.002 A 
ATOM     21  C   UNL d   1     -42.348-122.852 -48.223  0.00  0.00     0.000 A 
ATOM     22  C   UNL d   1     -41.833-123.450 -47.979  0.00  0.00     0.000 A 
ATOM     23  C   UNL d   1     -41.255-123.748 -48.509  0.00  0.00     0.000 A 
ATOM     24  C   UNL d   1     -41.888-123.753 -47.214  0.00  0.00     0.000 C 
ATOM     25  C   UNL d   1     -41.218-123.430 -49.267  0.00  0.00     0.002 A 
ENDBRANCH   3  19
TORSDOF 5
ENDMDL
