MODEL 1
REMARK VINA RESULT:       2.8      0.000      0.000
REMARK  3 active torsions:
REMARK  status: ('A' for Active; 'I' for Inactive)
REMARK       I    between atoms: C_6  and  N_1 
REMARK    1  A    between atoms: C_11  and  C_5 
REMARK    2  A    between atoms: C_12  and  C_6 
REMARK    3  A    between atoms: C_14  and  C_15 
ROOT
ATOM      1  N   UNL d   1      58.815  -0.983  29.824  0.00  0.00    -0.264 N 
ATOM      2  C   UNL d   1      59.423  -0.999  29.261  0.00  0.00     0.198 A 
ATOM      3  C   UNL d   1      58.423  -1.696  29.792  0.00  0.00     0.138 A 
ATOM      4  N   UNL d   1      59.405  -1.721  28.884  0.00  0.00    -0.243 NA
ATOM      5  C   UNL d   1      58.784  -2.157  29.212  0.00  0.00     0.105 A 
ATOM      6  C   UNL d   1      58.620  -0.359  30.343  0.00  0.00     0.263 C 
ATOM      7  C   UNL d   1      59.969  -1.171  28.670  0.00  0.00     0.041 A 
ATOM      8  C   UNL d   1      59.446  -0.268  29.639  0.00  0.00     0.041 A 
ATOM      9  S   UNL d   1      57.776  -1.917  30.262  0.00  0.00    -0.058 SA
ATOM     10  N   UNL d   1      60.565   0.123  28.833  0.00  0.00    -0.302 N 
ATOM     11  O   UNL d   1      59.053   0.340  30.329  0.00  0.00    -0.267 OA
ATOM     12  C   UNL d   1      60.019   0.296  29.424  0.00  0.00     0.080 A 
ATOM     13  C   UNL d   1      60.543  -0.607  28.455  0.00  0.00     0.080 A 
ATOM     14  C   UNL d   1      61.133   0.682  28.620  0.00  0.00     0.100 C 
ENDROOT
BRANCH   6  15
ATOM     15  C   UNL d   1      57.995  -0.447  30.863  0.00  0.00     0.056 A 
ATOM     16  C   UNL d   1      57.268  -0.101  30.702  0.00  0.00     0.004 A 
ATOM     17  C   UNL d   1      56.643  -0.192  31.227  0.00  0.00    -0.004 A 
ATOM     18  C   UNL d   1      56.746  -0.632  31.918  0.00  0.00    -0.023 A 
ATOM     19  C   UNL d   1      57.473  -0.978  32.080  0.00  0.00    -0.004 A 
ATOM     20  C   UNL d   1      58.098  -0.885  31.551  0.00  0.00     0.004 A 
BRANCH  18  21
ATOM     21  C   UNL d   1      56.117  -0.724  32.447  0.00  0.00     0.019 C 
ATOM     22  C   UNL d   1      56.080   0.100  32.543  0.00  0.00     0.004 C 
ATOM     23  C   UNL d   1      56.152  -1.536  32.354  0.00  0.00     0.004 C 
ATOM     24  C   UNL d   1      55.485  -0.813  32.979  0.00  0.00     0.004 C 
ENDBRANCH  18  21
ENDBRANCH   6  15
BRANCH   5  25
ATOM     25  C   UNL d   1      58.536  -2.916  29.025  0.00  0.00     0.020 A 
ATOM     26  C   UNL d   1      57.799  -3.038  28.666  0.00  0.00     0.004 A 
ATOM     27  C   UNL d   1      57.554  -3.804  28.480  0.00  0.00     0.030 A 
ATOM     28  C   UNL d   1      58.042  -4.449  28.651  0.00  0.00     0.140 A 
ATOM     29  C   UNL d   1      58.775  -4.324  29.009  0.00  0.00     0.030 A 
ATOM     30  F   UNL d   1      57.790  -5.220  28.461  0.00  0.00    -0.204 F 
ATOM     31  C   UNL d   1      59.024  -3.566  29.196  0.00  0.00     0.004 A 
ENDBRANCH   5  25
TORSDOF 3
ENDMDL
