MODEL 1
REMARK VINA RESULT:      -1.7      0.000      0.000
REMARK  5 active torsions:
REMARK  status: ('A' for Active; 'I' for Inactive)
REMARK    1  A    between atoms: N_10  and  C_4 
REMARK    2  A    between atoms: C_11  and  N_5 
REMARK    3  A    between atoms: C_14  and  N_10 
REMARK    4  A    between atoms: C_15  and  C_11 
REMARK    5  A    between atoms: C_18  and  C_14 
ROOT
ATOM      1  C   UNL d   1      58.425  -1.898  29.639  0.00  0.00     0.191 A 
ATOM      2  C   UNL d   1      59.010  -1.481  29.325  0.00  0.00     0.174 A 
ATOM      3  N   UNL d   1      57.910  -1.571  30.150  0.00  0.00    -0.042 NA
ATOM      4  C   UNL d   1      57.996  -0.815  30.339  0.00  0.00     0.722 A 
ATOM      5  N   UNL d   1      58.596  -0.375  30.022  0.00  0.00    -0.132 N 
ATOM      6  N   UNL d   1      58.335  -2.673  29.446  0.00  0.00    -0.239 N 
ATOM      7  C   UNL d   1      58.834  -3.021  28.941  0.00  0.00     0.358 A 
ATOM      8  N   UNL d   1      59.429  -2.597  28.622  0.00  0.00    -0.152 NA
ATOM      9  C   UNL d   1      59.519  -1.830  28.812  0.00  0.00     0.303 A 
ATOM     10  O   UNL d   1      58.744  -3.796  28.748  0.00  0.00    -0.244 OA
ATOM     11  O   UNL d   1      60.129  -1.396  28.486  0.00  0.00    -0.263 OA
ATOM     12  C   UNL d   1      57.733  -3.102  29.768  0.00  0.00     0.105 C 
ENDROOT
BRANCH   4  13
ATOM     13  N   UNL d   1      57.491  -0.473  30.848  0.00  0.00    -0.137 N 
ATOM     14  C   UNL d   1      57.064   0.233  30.858  0.00  0.00     0.118 C 
BRANCH  13  15
ATOM     15  C   UNL d   1      57.298  -0.849  31.553  0.00  0.00     0.098 C 
BRANCH  15  16
ATOM     16  C   UNL d   1      56.716  -0.528  32.048  0.00  0.00     0.018 A 
ATOM     17  C   UNL d   1      56.201  -1.037  32.457  0.00  0.00     0.002 A 
ATOM     18  C   UNL d   1      55.619  -0.716  32.952  0.00  0.00     0.000 A 
ATOM     19  C   UNL d   1      55.555   0.106  33.036  0.00  0.00     0.000 A 
ATOM     20  C   UNL d   1      56.074   0.607  32.624  0.00  0.00     0.000 A 
ATOM     21  C   UNL d   1      56.656   0.287  32.128  0.00  0.00     0.002 A 
ENDBRANCH  15  16
ENDBRANCH  13  15
ENDBRANCH   4  13
BRANCH   5  22
ATOM     22  C   UNL d   1      59.003   0.338  29.948  0.00  0.00     0.098 C 
BRANCH  22  23
ATOM     23  C   UNL d   1      59.716   0.453  30.348  0.00  0.00     0.018 A 
ATOM     24  C   UNL d   1      59.710   0.483  31.166  0.00  0.00     0.002 A 
ATOM     25  C   UNL d   1      60.423   0.598  31.567  0.00  0.00     0.000 A 
ATOM     26  C   UNL d   1      60.644   0.658  32.359  0.00  0.00     0.000 C 
ATOM     27  C   UNL d   1      61.133   0.682  31.143  0.00  0.00     0.000 A 
ATOM     28  C   UNL d   1      61.116   0.649  30.317  0.00  0.00     0.000 A 
ATOM     29  C   UNL d   1      60.410   0.535  29.920  0.00  0.00     0.002 A 
ENDBRANCH  22  23
ENDBRANCH   5  22
TORSDOF 5
ENDMDL
