MODEL 1
REMARK VINA RESULT:      -6.5      0.000      0.000
REMARK  6 active torsions:
REMARK  status: ('A' for Active; 'I' for Inactive)
REMARK    1  A    between atoms: N_3  and  C_1 
REMARK    2  A    between atoms: C_16  and  N_2 
REMARK       I    between atoms: C_7  and  N_3 
REMARK    3  A    between atoms: C_14  and  C_7 
REMARK    4  A    between atoms: C_10  and  S_11 
REMARK    5  A    between atoms: S_11  and  C_14 
REMARK    6  A    between atoms: O_18  and  C_15 
ROOT
ATOM      1  C   UNL d   1     -47.696  13.139  22.927  0.00  0.00     0.182 A 
ATOM      2  N   UNL d   1     -47.252  12.507  23.224  0.00  0.00    -0.285 N 
ATOM      3  S   UNL d   1     -47.188  13.620  22.481  0.00  0.00    -0.048 SA
ATOM      4  C   UNL d   1     -46.429  13.280  22.505  0.00  0.00     0.050 A 
ATOM      5  C   UNL d   1     -46.469  12.594  22.963  0.00  0.00     0.072 A 
ATOM      6  C   UNL d   1     -45.712  13.518  22.162  0.00  0.00     0.032 A 
ATOM      7  C   UNL d   1     -45.792  12.144  23.080  0.00  0.00     0.020 A 
ATOM      8  C   UNL d   1     -45.043  13.056  22.290  0.00  0.00     0.095 A 
ATOM      9  C   UNL d   1     -45.083  12.370  22.748  0.00  0.00     0.026 A 
ENDROOT
BRANCH   1  10
ATOM     10  N   UNL d   1     -48.503  13.269  23.052  0.00  0.00    -0.183 NA
ATOM     11  C   UNL d   1     -48.580  14.094  23.103  0.00  0.00     0.288 C 
ATOM     12  O   UNL d   1     -47.910  14.578  23.027  0.00  0.00    -0.265 OA
BRANCH  11  13
ATOM     13  C   UNL d   1     -49.315  14.436  23.228  0.00  0.00     0.101 C 
BRANCH  13  14
ATOM     14  S   UNL d   1     -49.524  15.139  22.839  0.00  0.00    -0.040 SA
BRANCH  14  15
ATOM     15  C   UNL d   1     -50.282  15.467  22.946  0.00  0.00     0.226 C 
ATOM     16  O   UNL d   1     -50.821  15.448  22.321  0.00  0.00    -0.279 OA
ATOM     17  C   UNL d   1     -50.483  15.802  23.664  0.00  0.00     0.053 C 
ENDBRANCH  14  15
ENDBRANCH  13  14
ENDBRANCH  11  13
ENDBRANCH   1  10
BRANCH   2  18
ATOM     18  C   UNL d   1     -47.542  11.903  23.695  0.00  0.00     0.082 C 
ATOM     19  C   UNL d   1     -47.879  11.230  23.357  0.00  0.00     0.021 C 
ENDBRANCH   2  18
BRANCH   8  20
ATOM     20  O   UNL d   1     -44.319  13.283  21.953  0.00  0.00    -0.328 OA
ATOM     21  C   UNL d   1     -43.868  12.735  21.546  0.00  0.00     0.181 C 
ENDBRANCH   8  20
TORSDOF 6
ENDMDL
MODEL 2
REMARK VINA RESULT:      -5.4      1.626      2.159
REMARK  6 active torsions:
REMARK  status: ('A' for Active; 'I' for Inactive)
REMARK    1  A    between atoms: N_3  and  C_1 
REMARK    2  A    between atoms: C_16  and  N_2 
REMARK       I    between atoms: C_7  and  N_3 
REMARK    3  A    between atoms: C_14  and  C_7 
REMARK    4  A    between atoms: C_10  and  S_11 
REMARK    5  A    between atoms: S_11  and  C_14 
REMARK    6  A    between atoms: O_18  and  C_15 
ROOT
ATOM      1  C   UNL d   1     -47.200  12.934  23.050  0.00  0.00     0.182 A 
ATOM      2  N   UNL d   1     -46.441  13.048  22.742  0.00  0.00    -0.285 N 
ATOM      3  S   UNL d   1     -47.214  12.193  23.426  0.00  0.00    -0.048 SA
ATOM      4  C   UNL d   1     -46.460  11.853  23.346  0.00  0.00     0.050 A 
ATOM      5  C   UNL d   1     -45.983  12.380  22.925  0.00  0.00     0.072 A 
ATOM      6  C   UNL d   1     -46.157  11.127  23.609  0.00  0.00     0.032 A 
ATOM      7  C   UNL d   1     -45.202  12.182  22.765  0.00  0.00     0.020 A 
ATOM      8  C   UNL d   1     -45.372  10.945  23.441  0.00  0.00     0.095 A 
ATOM      9  C   UNL d   1     -44.896  11.471  23.019  0.00  0.00     0.026 A 
ENDROOT
BRANCH   1  10
ATOM     10  N   UNL d   1     -47.833  13.463  22.995  0.00  0.00    -0.183 NA
ATOM     11  C   UNL d   1     -48.504  12.983  22.904  0.00  0.00     0.288 C 
ATOM     12  O   UNL d   1     -48.424  12.157  22.887  0.00  0.00    -0.265 OA
BRANCH  11  13
ATOM     13  C   UNL d   1     -49.249  13.319  22.830  0.00  0.00     0.101 C 
BRANCH  13  14
ATOM     14  S   UNL d   1     -49.609  13.385  22.086  0.00  0.00    -0.040 SA
BRANCH  14  15
ATOM     15  C   UNL d   1     -50.434  13.485  22.028  0.00  0.00     0.226 C 
ATOM     16  O   UNL d   1     -50.899  12.854  21.770  0.00  0.00    -0.279 OA
ATOM     17  C   UNL d   1     -50.773  14.202  22.225  0.00  0.00     0.053 C 
ENDBRANCH  14  15
ENDBRANCH  13  14
ENDBRANCH  11  13
ENDBRANCH   1  10
BRANCH   2  18
ATOM     18  C   UNL d   1     -46.191  13.709  22.329  0.00  0.00     0.082 C 
ATOM     19  C   UNL d   1     -45.975  14.399  22.726  0.00  0.00     0.021 C 
ENDBRANCH   2  18
BRANCH   8  20
ATOM     20  O   UNL d   1     -45.056  10.221  23.698  0.00  0.00    -0.328 OA
ATOM     21  C   UNL d   1     -44.247  10.099  23.682  0.00  0.00     0.181 C 
ENDBRANCH   8  20
TORSDOF 6
ENDMDL
MODEL 3
REMARK VINA RESULT:      -4.7      8.764      9.577
REMARK  6 active torsions:
REMARK  status: ('A' for Active; 'I' for Inactive)
REMARK    1  A    between atoms: N_3  and  C_1 
REMARK    2  A    between atoms: C_16  and  N_2 
REMARK       I    between atoms: C_7  and  N_3 
REMARK    3  A    between atoms: C_14  and  C_7 
REMARK    4  A    between atoms: C_10  and  S_11 
REMARK    5  A    between atoms: S_11  and  C_14 
REMARK    6  A    between atoms: O_18  and  C_15 
ROOT
ATOM      1  C   UNL d   1     -39.106  14.047  19.040  0.00  0.00     0.182 A 
ATOM      2  N   UNL d   1     -38.895  14.043  18.240  0.00  0.00    -0.285 N 
ATOM      3  S   UNL d   1     -39.794  14.504  19.120  0.00  0.00    -0.048 SA
ATOM      4  C   UNL d   1     -40.005  14.782  18.365  0.00  0.00     0.050 A 
ATOM      5  C   UNL d   1     -39.451  14.497  17.823  0.00  0.00     0.072 A 
ATOM      6  C   UNL d   1     -40.636  15.258  18.114  0.00  0.00     0.032 A 
ATOM      7  C   UNL d   1     -39.526  14.689  17.028  0.00  0.00     0.020 A 
ATOM      8  C   UNL d   1     -40.696  15.441  17.314  0.00  0.00     0.095 A 
ATOM      9  C   UNL d   1     -40.142  15.156  16.772  0.00  0.00     0.026 A 
ENDROOT
BRANCH   1  10
ATOM     10  N   UNL d   1     -38.704  13.663  19.652  0.00  0.00    -0.183 NA
ATOM     11  C   UNL d   1     -38.911  14.081  20.339  0.00  0.00     0.288 C 
ATOM     12  O   UNL d   1     -39.425  14.731  20.288  0.00  0.00    -0.265 OA
BRANCH  11  13
ATOM     13  C   UNL d   1     -38.613  13.857  21.069  0.00  0.00     0.101 C 
BRANCH  13  14
ATOM     14  S   UNL d   1     -39.006  14.070  21.768  0.00  0.00    -0.040 SA
BRANCH  14  15
ATOM     15  C   UNL d   1     -38.715  13.814  22.506  0.00  0.00     0.226 C 
ATOM     16  O   UNL d   1     -38.910  13.058  22.775  0.00  0.00    -0.279 OA
ATOM     17  C   UNL d   1     -38.244  14.310  22.952  0.00  0.00     0.053 C 
ENDBRANCH  14  15
ENDBRANCH  13  14
ENDBRANCH  11  13
ENDBRANCH   1  10
BRANCH   2  18
ATOM     18  C   UNL d   1     -38.248  13.655  17.922  0.00  0.00     0.082 C 
ATOM     19  C   UNL d   1     -38.325  12.898  17.603  0.00  0.00     0.021 C 
ENDBRANCH   2  18
BRANCH   8  20
ATOM     20  O   UNL d   1     -41.322  15.917  17.049  0.00  0.00    -0.328 OA
ATOM     21  C   UNL d   1     -41.741  15.706  16.378  0.00  0.00     0.181 C 
ENDBRANCH   8  20
TORSDOF 6
ENDMDL
MODEL 4
REMARK VINA RESULT:      -4.7      8.304      9.734
REMARK  6 active torsions:
REMARK  status: ('A' for Active; 'I' for Inactive)
REMARK    1  A    between atoms: N_3  and  C_1 
REMARK    2  A    between atoms: C_16  and  N_2 
REMARK       I    between atoms: C_7  and  N_3 
REMARK    3  A    between atoms: C_14  and  C_7 
REMARK    4  A    between atoms: C_10  and  S_11 
REMARK    5  A    between atoms: S_11  and  C_14 
REMARK    6  A    between atoms: O_18  and  C_15 
ROOT
ATOM      1  C   UNL d   1     -39.862  14.543  18.383  0.00  0.00     0.182 A 
ATOM      2  N   UNL d   1     -39.900  15.087  17.760  0.00  0.00    -0.285 N 
ATOM      3  S   UNL d   1     -39.367  13.920  18.146  0.00  0.00    -0.048 SA
ATOM      4  C   UNL d   1     -39.102  14.084  17.375  0.00  0.00     0.050 A 
ATOM      5  C   UNL d   1     -39.430  14.803  17.138  0.00  0.00     0.072 A 
ATOM      6  C   UNL d   1     -38.601  13.660  16.868  0.00  0.00     0.032 A 
ATOM      7  C   UNL d   1     -39.259  15.101  16.392  0.00  0.00     0.020 A 
ATOM      8  C   UNL d   1     -38.439  13.973  16.124  0.00  0.00     0.095 A 
ATOM      9  C   UNL d   1     -38.768  14.692  15.886  0.00  0.00     0.026 A 
ENDROOT
BRANCH   1  10
ATOM     10  N   UNL d   1     -40.247  14.608  19.111  0.00  0.00    -0.183 NA
ATOM     11  C   UNL d   1     -39.673  14.405  19.675  0.00  0.00     0.288 C 
ATOM     12  O   UNL d   1     -38.907  14.199  19.430  0.00  0.00    -0.265 OA
BRANCH  11  13
ATOM     13  C   UNL d   1     -39.856  14.406  20.475  0.00  0.00     0.101 C 
BRANCH  13  14
ATOM     14  S   UNL d   1     -39.256  14.334  21.044  0.00  0.00    -0.040 SA
BRANCH  14  15
ATOM     15  C   UNL d   1     -39.452  14.228  21.846  0.00  0.00     0.226 C 
ATOM     16  O   UNL d   1     -40.107  13.765  22.043  0.00  0.00    -0.279 OA
ATOM     17  C   UNL d   1     -38.998  14.582  22.427  0.00  0.00     0.053 C 
ENDBRANCH  14  15
ENDBRANCH  13  14
ENDBRANCH  11  13
ENDBRANCH   1  10
BRANCH   2  18
ATOM     18  C   UNL d   1     -40.330  15.784  17.765  0.00  0.00     0.082 C 
ATOM     19  C   UNL d   1     -41.094  15.811  17.453  0.00  0.00     0.021 C 
ENDBRANCH   2  18
BRANCH   8  20
ATOM     20  O   UNL d   1     -37.940  13.559  15.606  0.00  0.00    -0.328 OA
ATOM     21  C   UNL d   1     -37.947  13.731  14.806  0.00  0.00     0.181 C 
ENDBRANCH   8  20
TORSDOF 6
ENDMDL
MODEL 5
REMARK VINA RESULT:      -4.4      8.404      9.753
REMARK  6 active torsions:
REMARK  status: ('A' for Active; 'I' for Inactive)
REMARK    1  A    between atoms: N_3  and  C_1 
REMARK    2  A    between atoms: C_16  and  N_2 
REMARK       I    between atoms: C_7  and  N_3 
REMARK    3  A    between atoms: C_14  and  C_7 
REMARK    4  A    between atoms: C_10  and  S_11 
REMARK    5  A    between atoms: S_11  and  C_14 
REMARK    6  A    between atoms: O_18  and  C_15 
ROOT
ATOM      1  C   UNL d   1     -39.191  14.778  19.552  0.00  0.00     0.182 A 
ATOM      2  N   UNL d   1     -39.798  14.747  20.114  0.00  0.00    -0.285 N 
ATOM      3  S   UNL d   1     -38.532  14.383  19.868  0.00  0.00    -0.048 SA
ATOM      4  C   UNL d   1     -38.738  14.109  20.625  0.00  0.00     0.050 A 
ATOM      5  C   UNL d   1     -39.519  14.333  20.777  0.00  0.00     0.072 A 
ATOM      6  C   UNL d   1     -38.304  13.683  21.190  0.00  0.00     0.032 A 
ATOM      7  C   UNL d   1     -39.867  14.132  21.493  0.00  0.00     0.020 A 
ATOM      8  C   UNL d   1     -38.668  13.490  21.902  0.00  0.00     0.095 A 
ATOM      9  C   UNL d   1     -39.449  13.714  22.053  0.00  0.00     0.026 A 
ENDROOT
BRANCH   1  10
ATOM     10  N   UNL d   1     -39.232  15.138  18.809  0.00  0.00    -0.183 NA
ATOM     11  C   UNL d   1     -38.835  14.618  18.298  0.00  0.00     0.288 C 
ATOM     12  O   UNL d   1     -38.509  13.915  18.595  0.00  0.00    -0.265 OA
BRANCH  11  13
ATOM     13  C   UNL d   1     -38.762  14.794  17.500  0.00  0.00     0.101 C 
BRANCH  13  14
ATOM     14  S   UNL d   1     -38.412  14.250  16.980  0.00  0.00    -0.040 SA
BRANCH  14  15
ATOM     15  C   UNL d   1     -38.338  14.434  16.171  0.00  0.00     0.226 C 
ATOM     16  O   UNL d   1     -38.348  15.225  15.936  0.00  0.00    -0.279 OA
ATOM     17  C   UNL d   1     -38.256  13.834  15.623  0.00  0.00     0.053 C 
ENDBRANCH  14  15
ENDBRANCH  13  14
ENDBRANCH  11  13
ENDBRANCH   1  10
BRANCH   2  18
ATOM     18  C   UNL d   1     -40.545  15.070  20.023  0.00  0.00     0.082 C 
ATOM     19  C   UNL d   1     -40.710  15.832  20.293  0.00  0.00     0.021 C 
ENDBRANCH   2  18
BRANCH   8  20
ATOM     20  O   UNL d   1     -38.245  13.064  22.475  0.00  0.00    -0.328 OA
ATOM     21  C   UNL d   1     -38.331  13.249  23.268  0.00  0.00     0.181 C 
ENDBRANCH   8  20
TORSDOF 6
ENDMDL
MODEL 6
REMARK VINA RESULT:      -4.3      8.058      9.280
REMARK  6 active torsions:
REMARK  status: ('A' for Active; 'I' for Inactive)
REMARK    1  A    between atoms: N_3  and  C_1 
REMARK    2  A    between atoms: C_16  and  N_2 
REMARK       I    between atoms: C_7  and  N_3 
REMARK    3  A    between atoms: C_14  and  C_7 
REMARK    4  A    between atoms: C_10  and  S_11 
REMARK    5  A    between atoms: S_11  and  C_14 
REMARK    6  A    between atoms: O_18  and  C_15 
ROOT
ATOM      1  C   UNL d   1     -39.474  14.661  20.347  0.00  0.00     0.182 A 
ATOM      2  N   UNL d   1     -40.206  14.706  19.964  0.00  0.00    -0.285 N 
ATOM      3  S   UNL d   1     -38.899  14.477  19.777  0.00  0.00    -0.048 SA
ATOM      4  C   UNL d   1     -39.282  14.408  19.042  0.00  0.00     0.050 A 
ATOM      5  C   UNL d   1     -40.087  14.550  19.158  0.00  0.00     0.072 A 
ATOM      6  C   UNL d   1     -38.988  14.234  18.287  0.00  0.00     0.032 A 
ATOM      7  C   UNL d   1     -40.601  14.517  18.518  0.00  0.00     0.020 A 
ATOM      8  C   UNL d   1     -39.516  14.205  17.657  0.00  0.00     0.095 A 
ATOM      9  C   UNL d   1     -40.321  14.347  17.772  0.00  0.00     0.026 A 
ENDROOT
BRANCH   1  10
ATOM     10  N   UNL d   1     -39.338  14.780  21.154  0.00  0.00    -0.183 NA
ATOM     11  C   UNL d   1     -38.799  14.186  21.368  0.00  0.00     0.288 C 
ATOM     12  O   UNL d   1     -38.528  13.647  20.798  0.00  0.00    -0.265 OA
BRANCH  11  13
ATOM     13  C   UNL d   1     -38.530  14.127  22.141  0.00  0.00     0.101 C 
BRANCH  13  14
ATOM     14  S   UNL d   1     -38.377  13.384  22.478  0.00  0.00    -0.040 SA
BRANCH  14  15
ATOM     15  C   UNL d   1     -38.172  13.325  23.283  0.00  0.00     0.226 C 
ATOM     16  O   UNL d   1     -38.205  12.588  23.654  0.00  0.00    -0.279 OA
ATOM     17  C   UNL d   1     -37.942  13.992  23.695  0.00  0.00     0.053 C 
ENDBRANCH  14  15
ENDBRANCH  13  14
ENDBRANCH  11  13
ENDBRANCH   1  10
BRANCH   2  18
ATOM     18  C   UNL d   1     -40.921  14.877  20.326  0.00  0.00     0.082 C 
ATOM     19  C   UNL d   1     -41.167  15.657  20.426  0.00  0.00     0.021 C 
ENDBRANCH   2  18
BRANCH   8  20
ATOM     20  O   UNL d   1     -39.235  14.032  16.895  0.00  0.00    -0.328 OA
ATOM     21  C   UNL d   1     -38.686  13.435  16.787  0.00  0.00     0.181 C 
ENDBRANCH   8  20
TORSDOF 6
ENDMDL
MODEL 7
REMARK VINA RESULT:      -4.0      7.868      9.788
REMARK  6 active torsions:
REMARK  status: ('A' for Active; 'I' for Inactive)
REMARK    1  A    between atoms: N_3  and  C_1 
REMARK    2  A    between atoms: C_16  and  N_2 
REMARK       I    between atoms: C_7  and  N_3 
REMARK    3  A    between atoms: C_14  and  C_7 
REMARK    4  A    between atoms: C_10  and  S_11 
REMARK    5  A    between atoms: S_11  and  C_14 
REMARK    6  A    between atoms: O_18  and  C_15 
ROOT
ATOM      1  C   UNL d   1     -40.129  14.674  18.079  0.00  0.00     0.182 A 
ATOM      2  N   UNL d   1     -40.542  15.262  18.491  0.00  0.00    -0.285 N 
ATOM      3  S   UNL d   1     -39.871  14.111  18.631  0.00  0.00    -0.048 SA
ATOM      4  C   UNL d   1     -40.127  14.355  19.384  0.00  0.00     0.050 A 
ATOM      5  C   UNL d   1     -40.541  15.064  19.297  0.00  0.00     0.072 A 
ATOM      6  C   UNL d   1     -40.029  14.012  20.132  0.00  0.00     0.032 A 
ATOM      7  C   UNL d   1     -40.858  15.432  19.959  0.00  0.00     0.020 A 
ATOM      8  C   UNL d   1     -40.353  14.393  20.785  0.00  0.00     0.095 A 
ATOM      9  C   UNL d   1     -40.767  15.103  20.698  0.00  0.00     0.026 A 
ENDROOT
BRANCH   1  10
ATOM     10  N   UNL d   1     -39.997  14.652  17.263  0.00  0.00    -0.183 NA
ATOM     11  C   UNL d   1     -39.331  14.166  17.168  0.00  0.00     0.288 C 
ATOM     12  O   UNL d   1     -38.964  13.832  17.834  0.00  0.00    -0.265 OA
BRANCH  11  13
ATOM     13  C   UNL d   1     -39.031  14.012  16.421  0.00  0.00     0.101 C 
BRANCH  13  14
ATOM     14  S   UNL d   1     -38.302  14.331  16.186  0.00  0.00    -0.040 SA
BRANCH  14  15
ATOM     15  C   UNL d   1     -38.114  14.394  15.377  0.00  0.00     0.226 C 
ATOM     16  O   UNL d   1     -38.107  15.139  15.022  0.00  0.00    -0.279 OA
ATOM     17  C   UNL d   1     -37.940  13.722  14.946  0.00  0.00     0.053 C 
ENDBRANCH  14  15
ENDBRANCH  13  14
ENDBRANCH  11  13
ENDBRANCH   1  10
BRANCH   2  18
ATOM     18  C   UNL d   1     -40.890  15.922  18.154  0.00  0.00     0.082 C 
ATOM     19  C   UNL d   1     -41.527  15.845  17.634  0.00  0.00     0.021 C 
ENDBRANCH   2  18
BRANCH   8  20
ATOM     20  O   UNL d   1     -40.263  14.061  21.540  0.00  0.00    -0.328 OA
ATOM     21  C   UNL d   1     -39.543  14.109  21.926  0.00  0.00     0.181 C 
ENDBRANCH   8  20
TORSDOF 6
ENDMDL
MODEL 8
REMARK VINA RESULT:      -3.9      8.609      9.097
REMARK  6 active torsions:
REMARK  status: ('A' for Active; 'I' for Inactive)
REMARK    1  A    between atoms: N_3  and  C_1 
REMARK    2  A    between atoms: C_16  and  N_2 
REMARK       I    between atoms: C_7  and  N_3 
REMARK    3  A    between atoms: C_14  and  C_7 
REMARK    4  A    between atoms: C_10  and  S_11 
REMARK    5  A    between atoms: S_11  and  C_14 
REMARK    6  A    between atoms: O_18  and  C_15 
ROOT
ATOM      1  C   UNL d   1     -39.031  14.615  19.313  0.00  0.00     0.182 A 
ATOM      2  N   UNL d   1     -38.465  14.051  19.527  0.00  0.00    -0.285 N 
ATOM      3  S   UNL d   1     -39.442  14.836  20.000  0.00  0.00    -0.048 SA
ATOM      4  C   UNL d   1     -39.126  14.404  20.636  0.00  0.00     0.050 A 
ATOM      5  C   UNL d   1     -38.523  13.920  20.345  0.00  0.00     0.072 A 
ATOM      6  C   UNL d   1     -39.319  14.399  21.443  0.00  0.00     0.032 A 
ATOM      7  C   UNL d   1     -38.112  13.430  20.859  0.00  0.00     0.020 A 
ATOM      8  C   UNL d   1     -38.897  13.901  21.944  0.00  0.00     0.095 A 
ATOM      9  C   UNL d   1     -38.295  13.417  21.653  0.00  0.00     0.026 A 
ENDROOT
BRANCH   1  10
ATOM     10  N   UNL d   1     -39.164  14.908  18.551  0.00  0.00    -0.183 NA
ATOM     11  C   UNL d   1     -39.927  15.233  18.579  0.00  0.00     0.288 C 
ATOM     12  O   UNL d   1     -40.364  15.206  19.284  0.00  0.00    -0.265 OA
BRANCH  11  13
ATOM     13  C   UNL d   1     -40.255  15.581  17.912  0.00  0.00     0.101 C 
BRANCH  13  14
ATOM     14  S   UNL d   1     -40.902  15.230  17.529  0.00  0.00    -0.040 SA
BRANCH  14  15
ATOM     15  C   UNL d   1     -41.238  15.594  16.859  0.00  0.00     0.226 C 
ATOM     16  O   UNL d   1     -42.059  15.615  16.782  0.00  0.00    -0.279 OA
ATOM     17  C   UNL d   1     -40.754  15.922  16.288  0.00  0.00     0.053 C 
ENDBRANCH  14  15
ENDBRANCH  13  14
ENDBRANCH  11  13
ENDBRANCH   1  10
BRANCH   2  18
ATOM     18  C   UNL d   1     -37.940  13.687  19.014  0.00  0.00     0.082 C 
ATOM     19  C   UNL d   1     -38.084  12.925  18.733  0.00  0.00     0.021 C 
ENDBRANCH   2  18
BRANCH   8  20
ATOM     20  O   UNL d   1     -39.080  13.886  22.754  0.00  0.00    -0.328 OA
ATOM     21  C   UNL d   1     -38.840  13.254  23.216  0.00  0.00     0.181 C 
ENDBRANCH   8  20
TORSDOF 6
ENDMDL
