MODEL 1
REMARK VINA RESULT:       3.3      0.000      0.000
REMARK  6 active torsions:
REMARK  status: ('A' for Active; 'I' for Inactive)
REMARK    1  A    between atoms: C_8  and  C_1 
REMARK    2  A    between atoms: C_13  and  N_2 
REMARK    3  A    between atoms: C_7  and  C_4 
REMARK    4  A    between atoms: C_6  and  C_8 
REMARK    5  A    between atoms: C_21  and  C_13 
REMARK    6  A    between atoms: N_22  and  C_21 
ROOT
ATOM      1  C   UNL d   1     -41.642-122.374 -51.684  0.00  0.00     0.103 A 
ATOM      2  N   UNL d   1     -41.630-122.374 -53.017  0.00  0.00    -0.267 N 
ATOM      3  C   UNL d   1     -41.774-123.148 -51.941  0.00  0.00     0.256 A 
ATOM      4  C   UNL d   1     -41.554-121.900 -52.348  0.00  0.00     0.096 A 
ATOM      5  C   UNL d   1     -41.767-123.148 -52.767  0.00  0.00     0.304 A 
ATOM      6  O   UNL d   1     -41.878-123.813 -53.248  0.00  0.00    -0.263 OA
ATOM      7  O   UNL d   1     -41.893-123.812 -51.457  0.00  0.00    -0.281 OA
ENDROOT
BRANCH   1   8
ATOM      8  C   UNL d   1     -41.606-122.126 -50.901  0.00  0.00     0.223 C 
ATOM      9  O   UNL d   1     -41.126-121.485 -50.691  0.00  0.00    -0.284 OA
BRANCH   8  10
ATOM     10  C   UNL d   1     -42.044-122.510 -50.314  0.00  0.00     0.139 A 
ATOM     11  O   UNL d   1     -42.826-122.768 -50.373  0.00  0.00    -0.304 OA
ATOM     12  C   UNL d   1     -43.032-123.118 -49.656  0.00  0.00     0.100 A 
ATOM     13  C   UNL d   1     -43.727-123.466 -49.399  0.00  0.00     0.025 A 
ATOM     14  C   UNL d   1     -42.384-123.079 -49.156  0.00  0.00     0.025 A 
ATOM     15  C   UNL d   1     -43.775-123.775 -48.644  0.00  0.00     0.002 A 
ATOM     16  C   UNL d   1     -43.127-123.736 -48.143  0.00  0.00     0.000 A 
ATOM     17  C   UNL d   1     -42.430-123.389 -48.395  0.00  0.00     0.002 A 
ATOM     18  C   UNL d   1     -41.772-122.701 -49.566  0.00  0.00     0.030 A 
ENDBRANCH   8  10
ENDBRANCH   1   8
BRANCH   4  19
ATOM     19  C   UNL d   1     -41.411-121.076 -52.343  0.00  0.00     0.116 A 
ATOM     20  O   UNL d   1     -41.370-120.538 -51.721  0.00  0.00    -0.306 OA
ATOM     21  C   UNL d   1     -41.214-119.799 -52.035  0.00  0.00     0.100 A 
ATOM     22  C   UNL d   1     -41.128-119.095 -51.611  0.00  0.00     0.027 C 
ATOM     23  C   UNL d   1     -41.157-119.868 -52.855  0.00  0.00     0.027 A 
ATOM     24  C   UNL d   1     -41.280-120.667 -53.048  0.00  0.00     0.028 A 
ENDBRANCH   4  19
BRANCH   2  25
ATOM     25  C   UNL d   1     -41.580-122.127 -53.804  0.00  0.00     0.102 C 
BRANCH  25  26
ATOM     26  C   UNL d   1     -42.022-122.514 -54.388  0.00  0.00     0.100 C 
BRANCH  26  27
ATOM     27  N   UNL d   1     -41.977-122.270 -55.178  0.00  0.00    -0.299 N 
ATOM     28  C   UNL d   1     -42.665-122.057 -55.580  0.00  0.00     0.100 C 
ATOM     29  C   UNL d   1     -41.245-122.241 -55.552  0.00  0.00     0.100 C 
ENDBRANCH  26  27
ENDBRANCH  25  26
ENDBRANCH   2  25
TORSDOF 6
ENDMDL
