MODEL 1
REMARK VINA RESULT:      -6.8      0.000      0.000
REMARK  3 active torsions:
REMARK  status: ('A' for Active; 'I' for Inactive)
REMARK    1  A    between atoms: C_8  and  N_2 
REMARK    2  A    between atoms: C_14  and  C_8 
REMARK    3  A    between atoms: N_13  and  C_14 
ROOT
ATOM      1  C   UNL d   1     -46.921  12.128  23.234  0.00  0.00     0.166 A 
ATOM      2  N   UNL d   1     -47.629  12.591  23.149  0.00  0.00    -0.288 N 
ATOM      3  C   UNL d   1     -46.223  12.593  23.090  0.00  0.00     0.117 A 
ATOM      4  C   UNL d   1     -46.510  13.347  22.916  0.00  0.00     0.037 A 
ATOM      5  C   UNL d   1     -47.383  13.336  22.955  0.00  0.00     0.067 A 
ATOM      6  N   UNL d   1     -46.824  11.355  23.421  0.00  0.00    -0.225 NA
ATOM      7  N   UNL d   1     -45.439  12.281  23.134  0.00  0.00    -0.241 NA
ATOM      8  C   UNL d   1     -46.025  11.042  23.465  0.00  0.00     0.101 A 
ATOM      9  C   UNL d   1     -45.332  11.503  23.322  0.00  0.00     0.099 A 
ATOM     10  C   UNL d   1     -47.821  14.028  22.802  0.00  0.00     0.018 A 
ATOM     11  C   UNL d   1     -46.088  14.030  22.729  0.00  0.00     0.003 A 
ATOM     12  C   UNL d   1     -46.535  14.713  22.579  0.00  0.00     0.000 A 
ATOM     13  C   UNL d   1     -47.399  14.712  22.616  0.00  0.00     0.002 A 
ATOM     14  C   UNL d   1     -45.919  10.260  23.654  0.00  0.00     0.021 A 
ATOM     15  C   UNL d   1     -44.548  11.186  23.367  0.00  0.00     0.021 A 
ATOM     16  C   UNL d   1     -46.138  15.410  22.390  0.00  0.00     0.000 C 
ATOM     17  C   UNL d   1     -45.134   9.948  23.698  0.00  0.00     0.002 A 
ATOM     18  C   UNL d   1     -44.442  10.418  23.553  0.00  0.00     0.002 A 
ENDROOT
BRANCH   2  19
ATOM     19  C   UNL d   1     -48.403  12.382  23.233  0.00  0.00     0.101 C 
BRANCH  19  20
ATOM     20  C   UNL d   1     -48.789  12.029  22.617  0.00  0.00     0.100 C 
BRANCH  20  21
ATOM     21  N   UNL d   1     -49.548  11.978  22.855  0.00  0.00    -0.298 N 
ATOM     22  C   UNL d   1     -50.105  12.414  22.501  0.00  0.00     0.107 A 
ATOM     23  C   UNL d   1     -50.867  12.366  22.737  0.00  0.00     0.142 A 
ATOM     24  O   UNL d   1     -51.064  11.868  23.342  0.00  0.00    -0.300 OA
ATOM     25  C   UNL d   1     -50.503  11.430  23.698  0.00  0.00     0.142 A 
ATOM     26  C   UNL d   1     -49.748  11.483  23.458  0.00  0.00     0.107 A 
ENDBRANCH  20  21
ENDBRANCH  19  20
ENDBRANCH   2  19
TORSDOF 3
ENDMDL
MODEL 2
REMARK VINA RESULT:      -5.5      8.477      9.399
REMARK  3 active torsions:
REMARK  status: ('A' for Active; 'I' for Inactive)
REMARK    1  A    between atoms: C_8  and  N_2 
REMARK    2  A    between atoms: C_14  and  C_8 
REMARK    3  A    between atoms: N_13  and  C_14 
ROOT
ATOM      1  C   UNL d   1     -39.357  13.888  18.856  0.00  0.00     0.166 A 
ATOM      2  N   UNL d   1     -39.668  14.562  19.271  0.00  0.00    -0.288 N 
ATOM      3  C   UNL d   1     -39.629  13.864  18.049  0.00  0.00     0.117 A 
ATOM      4  C   UNL d   1     -40.109  14.531  17.974  0.00  0.00     0.037 A 
ATOM      5  C   UNL d   1     -40.128  14.958  18.737  0.00  0.00     0.067 A 
ATOM      6  N   UNL d   1     -38.871  13.303  19.104  0.00  0.00    -0.225 NA
ATOM      7  N   UNL d   1     -39.411  13.258  17.503  0.00  0.00    -0.241 NA
ATOM      8  C   UNL d   1     -38.652  12.689  18.546  0.00  0.00     0.101 A 
ATOM      9  C   UNL d   1     -38.921  12.664  17.745  0.00  0.00     0.099 A 
ATOM     10  C   UNL d   1     -40.574  15.656  18.819  0.00  0.00     0.018 A 
ATOM     11  C   UNL d   1     -40.525  14.796  17.314  0.00  0.00     0.003 A 
ATOM     12  C   UNL d   1     -40.966  15.493  17.407  0.00  0.00     0.000 A 
ATOM     13  C   UNL d   1     -40.990  15.922  18.158  0.00  0.00     0.002 A 
ATOM     14  C   UNL d   1     -38.158  12.092  18.790  0.00  0.00     0.021 A 
ATOM     15  C   UNL d   1     -38.700  12.054  17.201  0.00  0.00     0.021 A 
ATOM     16  C   UNL d   1     -41.392  15.780  16.763  0.00  0.00     0.000 C 
ATOM     17  C   UNL d   1     -37.940  11.485  18.243  0.00  0.00     0.002 A 
ATOM     18  C   UNL d   1     -38.215  11.467  17.439  0.00  0.00     0.002 A 
ENDROOT
BRANCH   2  19
ATOM     19  C   UNL d   1     -39.559  14.801  20.033  0.00  0.00     0.101 C 
BRANCH  19  20
ATOM     20  C   UNL d   1     -39.977  14.444  20.625  0.00  0.00     0.100 C 
BRANCH  20  21
ATOM     21  N   UNL d   1     -39.620  14.683  21.297  0.00  0.00    -0.298 N 
ATOM     22  C   UNL d   1     -39.423  14.155  21.852  0.00  0.00     0.107 A 
ATOM     23  C   UNL d   1     -39.066  14.390  22.526  0.00  0.00     0.142 A 
ATOM     24  O   UNL d   1     -38.906  15.174  22.638  0.00  0.00    -0.300 OA
ATOM     25  C   UNL d   1     -39.105  15.705  22.080  0.00  0.00     0.142 A 
ATOM     26  C   UNL d   1     -39.460  15.463  21.411  0.00  0.00     0.107 A 
ENDBRANCH  20  21
ENDBRANCH  19  20
ENDBRANCH   2  19
TORSDOF 3
ENDMDL
MODEL 3
REMARK VINA RESULT:      -4.9      0.596      2.938
REMARK  3 active torsions:
REMARK  status: ('A' for Active; 'I' for Inactive)
REMARK    1  A    between atoms: C_8  and  N_2 
REMARK    2  A    between atoms: C_14  and  C_8 
REMARK    3  A    between atoms: N_13  and  C_14 
ROOT
ATOM      1  C   UNL d   1     -47.234  12.611  23.186  0.00  0.00     0.166 A 
ATOM      2  N   UNL d   1     -47.606  11.869  23.371  0.00  0.00    -0.288 N 
ATOM      3  C   UNL d   1     -46.386  12.538  23.159  0.00  0.00     0.117 A 
ATOM      4  C   UNL d   1     -46.243  11.743  23.330  0.00  0.00     0.037 A 
ATOM      5  C   UNL d   1     -47.005  11.336  23.459  0.00  0.00     0.067 A 
ATOM      6  N   UNL d   1     -47.553  13.331  23.041  0.00  0.00    -0.225 NA
ATOM      7  N   UNL d   1     -45.869  13.184  22.989  0.00  0.00    -0.241 NA
ATOM      8  C   UNL d   1     -47.023  13.985  22.869  0.00  0.00     0.101 A 
ATOM      9  C   UNL d   1     -46.182  13.913  22.842  0.00  0.00     0.099 A 
ATOM     10  C   UNL d   1     -47.024  10.524  23.641  0.00  0.00     0.018 A 
ATOM     11  C   UNL d   1     -45.521  11.348  23.381  0.00  0.00     0.003 A 
ATOM     12  C   UNL d   1     -45.552  10.539  23.563  0.00  0.00     0.000 A 
ATOM     13  C   UNL d   1     -46.302  10.128  23.693  0.00  0.00     0.002 A 
ATOM     14  C   UNL d   1     -47.338  14.718  22.721  0.00  0.00     0.021 A 
ATOM     15  C   UNL d   1     -45.667  14.563  22.671  0.00  0.00     0.021 A 
ATOM     16  C   UNL d   1     -44.845  10.120  23.621  0.00  0.00     0.000 C 
ATOM     17  C   UNL d   1     -46.820  15.365  22.550  0.00  0.00     0.002 A 
ATOM     18  C   UNL d   1     -45.975  15.285  22.525  0.00  0.00     0.002 A 
ENDROOT
BRANCH   2  19
ATOM     19  C   UNL d   1     -48.386  11.683  23.452  0.00  0.00     0.101 C 
BRANCH  19  20
ATOM     20  C   UNL d   1     -48.777  11.329  22.839  0.00  0.00     0.100 C 
BRANCH  20  21
ATOM     21  N   UNL d   1     -49.534  11.563  22.919  0.00  0.00    -0.298 N 
ATOM     22  C   UNL d   1     -49.899  11.941  22.327  0.00  0.00     0.107 A 
ATOM     23  C   UNL d   1     -50.657  12.177  22.403  0.00  0.00     0.142 A 
ATOM     24  O   UNL d   1     -51.053  12.027  23.091  0.00  0.00    -0.300 OA
ATOM     25  C   UNL d   1     -50.686  11.646  23.687  0.00  0.00     0.142 A 
ATOM     26  C   UNL d   1     -49.931  11.415  23.604  0.00  0.00     0.107 A 
ENDBRANCH  20  21
ENDBRANCH  19  20
ENDBRANCH   2  19
TORSDOF 3
ENDMDL
MODEL 4
REMARK VINA RESULT:      -4.7      1.775      3.151
REMARK  3 active torsions:
REMARK  status: ('A' for Active; 'I' for Inactive)
REMARK    1  A    between atoms: C_8  and  N_2 
REMARK    2  A    between atoms: C_14  and  C_8 
REMARK    3  A    between atoms: N_13  and  C_14 
ROOT
ATOM      1  C   UNL d   1     -47.432  13.472  22.895  0.00  0.00     0.166 A 
ATOM      2  N   UNL d   1     -48.239  13.556  23.149  0.00  0.00    -0.288 N 
ATOM      3  C   UNL d   1     -47.185  12.658  22.901  0.00  0.00     0.117 A 
ATOM      4  C   UNL d   1     -47.849  12.243  23.161  0.00  0.00     0.037 A 
ATOM      5  C   UNL d   1     -48.498  12.809  23.312  0.00  0.00     0.067 A 
ATOM      6  N   UNL d   1     -46.900  14.024  22.663  0.00  0.00    -0.225 NA
ATOM      7  N   UNL d   1     -46.411  12.405  22.675  0.00  0.00    -0.241 NA
ATOM      8  C   UNL d   1     -46.114  13.762  22.435  0.00  0.00     0.101 A 
ATOM      9  C   UNL d   1     -45.868  12.954  22.440  0.00  0.00     0.099 A 
ATOM     10  C   UNL d   1     -49.239  12.539  23.582  0.00  0.00     0.018 A 
ATOM     11  C   UNL d   1     -47.939  11.432  23.276  0.00  0.00     0.003 A 
ATOM     12  C   UNL d   1     -48.681  11.175  23.545  0.00  0.00     0.000 A 
ATOM     13  C   UNL d   1     -49.329  11.727  23.698  0.00  0.00     0.002 A 
ATOM     14  C   UNL d   1     -45.568  14.315  22.198  0.00  0.00     0.021 A 
ATOM     15  C   UNL d   1     -45.091  12.705  22.214  0.00  0.00     0.021 A 
ATOM     16  C   UNL d   1     -48.798  10.369  23.669  0.00  0.00     0.000 C 
ATOM     17  C   UNL d   1     -44.793  14.061  21.973  0.00  0.00     0.002 A 
ATOM     18  C   UNL d   1     -44.553  13.247  21.981  0.00  0.00     0.002 A 
ENDROOT
BRANCH   2  19
ATOM     19  C   UNL d   1     -48.695  14.216  23.227  0.00  0.00     0.101 C 
BRANCH  19  20
ATOM     20  C   UNL d   1     -48.839  14.680  22.581  0.00  0.00     0.100 C 
BRANCH  20  21
ATOM     21  N   UNL d   1     -49.495  15.092  22.769  0.00  0.00    -0.298 N 
ATOM     22  C   UNL d   1     -49.525  15.508  23.441  0.00  0.00     0.107 A 
ATOM     23  C   UNL d   1     -50.180  15.922  23.632  0.00  0.00     0.142 A 
ATOM     24  O   UNL d   1     -50.815  15.914  23.132  0.00  0.00    -0.300 OA
ATOM     25  C   UNL d   1     -50.784  15.495  22.456  0.00  0.00     0.142 A 
ATOM     26  C   UNL d   1     -50.128  15.086  22.272  0.00  0.00     0.107 A 
ENDBRANCH  20  21
ENDBRANCH  19  20
ENDBRANCH   2  19
TORSDOF 3
ENDMDL
MODEL 5
REMARK VINA RESULT:      -4.6      1.555      4.339
REMARK  3 active torsions:
REMARK  status: ('A' for Active; 'I' for Inactive)
REMARK    1  A    between atoms: C_8  and  N_2 
REMARK    2  A    between atoms: C_14  and  C_8 
REMARK    3  A    between atoms: N_13  and  C_14 
ROOT
ATOM      1  C   UNL d   1     -47.495  12.910  23.011  0.00  0.00     0.166 A 
ATOM      2  N   UNL d   1     -47.431  12.091  23.228  0.00  0.00    -0.288 N 
ATOM      3  C   UNL d   1     -48.304  13.173  23.016  0.00  0.00     0.117 A 
ATOM      4  C   UNL d   1     -48.736  12.506  23.239  0.00  0.00     0.037 A 
ATOM      5  C   UNL d   1     -48.186  11.839  23.368  0.00  0.00     0.067 A 
ATOM      6  N   UNL d   1     -46.930  13.441  22.813  0.00  0.00    -0.225 NA
ATOM      7  N   UNL d   1     -48.538  13.962  22.823  0.00  0.00    -0.241 NA
ATOM      8  C   UNL d   1     -47.172  14.242  22.618  0.00  0.00     0.101 A 
ATOM      9  C   UNL d   1     -47.975  14.504  22.622  0.00  0.00     0.099 A 
ATOM     10  C   UNL d   1     -48.475  11.093  23.599  0.00  0.00     0.018 A 
ATOM     11  C   UNL d   1     -49.551  12.427  23.337  0.00  0.00     0.003 A 
ATOM     12  C   UNL d   1     -49.827  11.679  23.567  0.00  0.00     0.000 A 
ATOM     13  C   UNL d   1     -49.290  11.014  23.697  0.00  0.00     0.002 A 
ATOM     14  C   UNL d   1     -46.605  14.787  22.416  0.00  0.00     0.021 A 
ATOM     15  C   UNL d   1     -48.205  15.295  22.429  0.00  0.00     0.021 A 
ATOM     16  C   UNL d   1     -50.637  11.573  23.672  0.00  0.00     0.000 C 
ATOM     17  C   UNL d   1     -46.839  15.576  22.223  0.00  0.00     0.002 A 
ATOM     18  C   UNL d   1     -47.649  15.832  22.230  0.00  0.00     0.002 A 
ENDROOT
BRANCH   2  19
ATOM     19  C   UNL d   1     -46.781  11.618  23.296  0.00  0.00     0.101 C 
BRANCH  19  20
ATOM     20  C   UNL d   1     -46.120  11.901  23.665  0.00  0.00     0.100 C 
BRANCH  20  21
ATOM     21  N   UNL d   1     -45.560  11.351  23.526  0.00  0.00    -0.298 N 
ATOM     22  C   UNL d   1     -44.861  11.563  23.222  0.00  0.00     0.107 A 
ATOM     23  C   UNL d   1     -44.297  11.016  23.081  0.00  0.00     0.142 A 
ATOM     24  O   UNL d   1     -44.446  10.240  23.253  0.00  0.00    -0.300 OA
ATOM     25  C   UNL d   1     -45.148  10.027  23.559  0.00  0.00     0.142 A 
ATOM     26  C   UNL d   1     -45.705  10.578  23.696  0.00  0.00     0.107 A 
ENDBRANCH  20  21
ENDBRANCH  19  20
ENDBRANCH   2  19
TORSDOF 3
ENDMDL
MODEL 6
REMARK VINA RESULT:      -4.4      7.620      9.387
REMARK  3 active torsions:
REMARK  status: ('A' for Active; 'I' for Inactive)
REMARK    1  A    between atoms: C_8  and  N_2 
REMARK    2  A    between atoms: C_14  and  C_8 
REMARK    3  A    between atoms: N_13  and  C_14 
ROOT
ATOM      1  C   UNL d   1     -39.178  14.213  20.485  0.00  0.00     0.166 A 
ATOM      2  N   UNL d   1     -39.330  14.540  19.715  0.00  0.00    -0.288 N 
ATOM      3  C   UNL d   1     -39.804  14.393  21.032  0.00  0.00     0.117 A 
ATOM      4  C   UNL d   1     -40.343  14.835  20.589  0.00  0.00     0.037 A 
ATOM      5  C   UNL d   1     -40.041  14.921  19.774  0.00  0.00     0.067 A 
ATOM      6  N   UNL d   1     -38.559  13.781  20.753  0.00  0.00    -0.225 NA
ATOM      7  N   UNL d   1     -39.804  14.140  21.838  0.00  0.00    -0.241 NA
ATOM      8  C   UNL d   1     -38.564  13.526  21.573  0.00  0.00     0.101 A 
ATOM      9  C   UNL d   1     -39.185  13.704  22.117  0.00  0.00     0.099 A 
ATOM     10  C   UNL d   1     -40.477  15.345  19.205  0.00  0.00     0.018 A 
ATOM     11  C   UNL d   1     -41.060  15.163  20.828  0.00  0.00     0.003 A 
ATOM     12  C   UNL d   1     -41.486  15.583  20.252  0.00  0.00     0.000 A 
ATOM     13  C   UNL d   1     -41.195  15.673  19.443  0.00  0.00     0.002 A 
ATOM     14  C   UNL d   1     -37.940  13.087  21.853  0.00  0.00     0.021 A 
ATOM     15  C   UNL d   1     -39.181  13.449  22.924  0.00  0.00     0.021 A 
ATOM     16  C   UNL d   1     -42.207  15.921  20.464  0.00  0.00     0.000 C 
ATOM     17  C   UNL d   1     -37.941  12.834  22.660  0.00  0.00     0.002 A 
ATOM     18  C   UNL d   1     -38.569  13.018  23.200  0.00  0.00     0.002 A 
ENDROOT
BRANCH   2  19
ATOM     19  C   UNL d   1     -38.894  14.508  19.038  0.00  0.00     0.101 C 
BRANCH  19  20
ATOM     20  C   UNL d   1     -38.599  13.797  18.789  0.00  0.00     0.100 C 
BRANCH  20  21
ATOM     21  N   UNL d   1     -38.463  13.896  18.010  0.00  0.00    -0.298 N 
ATOM     22  C   UNL d   1     -38.087  14.542  17.750  0.00  0.00     0.107 A 
ATOM     23  C   UNL d   1     -37.950  14.644  16.970  0.00  0.00     0.142 A 
ATOM     24  O   UNL d   1     -38.199  14.082  16.446  0.00  0.00    -0.300 OA
ATOM     25  C   UNL d   1     -38.577  13.432  16.708  0.00  0.00     0.142 A 
ATOM     26  C   UNL d   1     -38.710  13.338  17.485  0.00  0.00     0.107 A 
ENDBRANCH  20  21
ENDBRANCH  19  20
ENDBRANCH   2  19
TORSDOF 3
ENDMDL
MODEL 7
REMARK VINA RESULT:      -4.3      2.085      4.926
REMARK  3 active torsions:
REMARK  status: ('A' for Active; 'I' for Inactive)
REMARK    1  A    between atoms: C_8  and  N_2 
REMARK    2  A    between atoms: C_14  and  C_8 
REMARK    3  A    between atoms: N_13  and  C_14 
ROOT
ATOM      1  C   UNL d   1     -48.718  13.565  23.243  0.00  0.00     0.166 A 
ATOM      2  N   UNL d   1     -48.058  13.041  23.131  0.00  0.00    -0.288 N 
ATOM      3  C   UNL d   1     -49.428  13.137  23.435  0.00  0.00     0.117 A 
ATOM      4  C   UNL d   1     -49.197  12.345  23.438  0.00  0.00     0.037 A 
ATOM      5  C   UNL d   1     -48.345  12.295  23.248  0.00  0.00     0.067 A 
ATOM      6  N   UNL d   1     -48.763  14.363  23.197  0.00  0.00    -0.225 NA
ATOM      7  N   UNL d   1     -50.172  13.511  23.577  0.00  0.00    -0.241 NA
ATOM      8  C   UNL d   1     -49.521  14.739  23.343  0.00  0.00     0.101 A 
ATOM      9  C   UNL d   1     -50.227  14.315  23.533  0.00  0.00     0.099 A 
ATOM     10  C   UNL d   1     -47.963  11.556  23.214  0.00  0.00     0.018 A 
ATOM     11  C   UNL d   1     -49.652  11.674  23.589  0.00  0.00     0.003 A 
ATOM     12  C   UNL d   1     -49.260  10.944  23.551  0.00  0.00     0.000 A 
ATOM     13  C   UNL d   1     -48.418  10.885  23.364  0.00  0.00     0.002 A 
ATOM     14  C   UNL d   1     -49.575  15.548  23.298  0.00  0.00     0.021 A 
ATOM     15  C   UNL d   1     -50.970  14.694  23.675  0.00  0.00     0.021 A 
ATOM     16  C   UNL d   1     -49.692  10.257  23.698  0.00  0.00     0.000 C 
ATOM     17  C   UNL d   1     -50.320  15.922  23.441  0.00  0.00     0.002 A 
ATOM     18  C   UNL d   1     -51.025  15.489  23.631  0.00  0.00     0.002 A 
ENDROOT
BRANCH   2  19
ATOM     19  C   UNL d   1     -47.290  13.202  22.945  0.00  0.00     0.101 C 
BRANCH  19  20
ATOM     20  C   UNL d   1     -47.063  13.216  22.169  0.00  0.00     0.100 C 
BRANCH  20  21
ATOM     21  N   UNL d   1     -46.280  13.367  22.190  0.00  0.00    -0.298 N 
ATOM     22  C   UNL d   1     -45.774  12.896  21.805  0.00  0.00     0.107 A 
ATOM     23  C   UNL d   1     -44.990  13.044  21.824  0.00  0.00     0.142 A 
ATOM     24  O   UNL d   1     -44.715  13.680  22.239  0.00  0.00    -0.300 OA
ATOM     25  C   UNL d   1     -45.225  14.154  22.626  0.00  0.00     0.142 A 
ATOM     26  C   UNL d   1     -46.004  14.000  22.603  0.00  0.00     0.107 A 
ENDBRANCH  20  21
ENDBRANCH  19  20
ENDBRANCH   2  19
TORSDOF 3
ENDMDL
MODEL 8
REMARK VINA RESULT:      -3.9      6.990      8.827
REMARK  3 active torsions:
REMARK  status: ('A' for Active; 'I' for Inactive)
REMARK    1  A    between atoms: C_8  and  N_2 
REMARK    2  A    between atoms: C_14  and  C_8 
REMARK    3  A    between atoms: N_13  and  C_14 
ROOT
ATOM      1  C   UNL d   1     -39.997  14.901  20.572  0.00  0.00     0.166 A 
ATOM      2  N   UNL d   1     -40.467  14.724  19.887  0.00  0.00    -0.288 N 
ATOM      3  C   UNL d   1     -40.325  14.552  21.276  0.00  0.00     0.117 A 
ATOM      4  C   UNL d   1     -41.002  14.159  21.014  0.00  0.00     0.037 A 
ATOM      5  C   UNL d   1     -41.082  14.271  20.151  0.00  0.00     0.067 A 
ATOM      6  N   UNL d   1     -39.324  15.328  20.646  0.00  0.00    -0.225 NA
ATOM      7  N   UNL d   1     -39.978  14.634  22.041  0.00  0.00    -0.241 NA
ATOM      8  C   UNL d   1     -38.974  15.409  21.426  0.00  0.00     0.101 A 
ATOM      9  C   UNL d   1     -39.299  15.062  22.124  0.00  0.00     0.099 A 
ATOM     10  C   UNL d   1     -41.721  13.931  19.738  0.00  0.00     0.018 A 
ATOM     11  C   UNL d   1     -41.546  13.719  21.451  0.00  0.00     0.003 A 
ATOM     12  C   UNL d   1     -42.178  13.386  21.029  0.00  0.00     0.000 A 
ATOM     13  C   UNL d   1     -42.265  13.491  20.175  0.00  0.00     0.002 A 
ATOM     14  C   UNL d   1     -38.291  15.840  21.509  0.00  0.00     0.021 A 
ATOM     15  C   UNL d   1     -38.947  15.147  22.890  0.00  0.00     0.021 A 
ATOM     16  C   UNL d   1     -42.736  12.941  21.442  0.00  0.00     0.000 C 
ATOM     17  C   UNL d   1     -37.943  15.922  22.275  0.00  0.00     0.002 A 
ATOM     18  C   UNL d   1     -38.276  15.571  22.973  0.00  0.00     0.002 A 
ENDROOT
BRANCH   2  19
ATOM     19  C   UNL d   1     -40.366  14.937  19.116  0.00  0.00     0.101 C 
BRANCH  19  20
ATOM     20  C   UNL d   1     -40.413  15.717  18.909  0.00  0.00     0.100 C 
BRANCH  20  21
ATOM     21  N   UNL d   1     -40.314  15.724  18.118  0.00  0.00    -0.298 N 
ATOM     22  C   UNL d   1     -40.941  15.785  17.639  0.00  0.00     0.107 A 
ATOM     23  C   UNL d   1     -40.846  15.793  16.847  0.00  0.00     0.142 A 
ATOM     24  O   UNL d   1     -40.102  15.736  16.536  0.00  0.00    -0.300 OA
ATOM     25  C   UNL d   1     -39.472  15.674  17.018  0.00  0.00     0.142 A 
ATOM     26  C   UNL d   1     -39.575  15.667  17.806  0.00  0.00     0.107 A 
ENDBRANCH  20  21
ENDBRANCH  19  20
ENDBRANCH   2  19
TORSDOF 3
ENDMDL
