MODEL 1
REMARK VINA RESULT:      -1.9      0.000      0.000
REMARK  11 active torsions:
REMARK  status: ('A' for Active; 'I' for Inactive)
REMARK    1  A    between atoms: C_3  and  C_1 
REMARK    2  A    between atoms: N_4  and  C_1 
REMARK    3  A    between atoms: C_5  and  C_1 
REMARK       I    between atoms: C_2  and  N_4 
REMARK    4  A    between atoms: O_10  and  C_2 
REMARK    5  A    between atoms: O_7  and  C_3 
REMARK    6  A    between atoms: C_12  and  C_5 
REMARK    7  A    between atoms: C_6  and  C_12 
REMARK    8  A    between atoms: C_13  and  O_7 
REMARK    9  A    between atoms: C_15  and  O_10 
REMARK   10  A    between atoms: C_16  and  C_13 
REMARK   11  A    between atoms: C_17  and  C_15 
ROOT
ATOM      1  C   UNL d   1      32.798  18.109 -23.594  0.00  0.00     0.150 C 
ENDROOT
BRANCH   1   2
ATOM      2  C   UNL d   1      32.940  18.393 -22.832  0.00  0.00     0.318 C 
ATOM      3  O   UNL d   1      33.095  17.864 -22.216  0.00  0.00    -0.257 OA
BRANCH   2   4
ATOM      4  O   UNL d   1      32.926  19.210 -22.681  0.00  0.00    -0.270 OA
BRANCH   4   5
ATOM      5  C   UNL d   1      33.241  19.969 -22.782  0.00  0.00     0.126 C 
BRANCH   5   6
ATOM      6  C   UNL d   1      33.003  20.577 -22.278  0.00  0.00     0.025 A 
ATOM      7  C   UNL d   1      32.992  21.351 -22.545  0.00  0.00     0.002 A 
ATOM      8  C   UNL d   1      32.758  21.955 -22.051  0.00  0.00     0.000 A 
ATOM      9  C   UNL d   1      32.527  21.793 -21.269  0.00  0.00     0.000 A 
ATOM     10  C   UNL d   1      32.539  21.002 -21.000  0.00  0.00     0.000 A 
ATOM     11  C   UNL d   1      32.776  20.403 -21.504  0.00  0.00     0.002 A 
ENDBRANCH   5   6
ENDBRANCH   4   5
ENDBRANCH   2   4
ENDBRANCH   1   2
BRANCH   1  12
ATOM     12  N   UNL d   1      32.514  18.620 -24.176  0.00  0.00    -0.180 NA
ATOM     13  C   UNL d   1      31.769  18.492 -24.511  0.00  0.00     0.393 C 
ATOM     14  O   UNL d   1      31.485  19.005 -25.095  0.00  0.00    -0.236 OA
BRANCH  13  15
ATOM     15  O   UNL d   1      31.308  17.854 -24.263  0.00  0.00    -0.256 OA
BRANCH  15  16
ATOM     16  C   UNL d   1      30.737  17.534 -24.768  0.00  0.00     0.128 C 
BRANCH  16  17
ATOM     17  C   UNL d   1      30.099  17.122 -24.448  0.00  0.00     0.025 A 
ATOM     18  C   UNL d   1      29.905  16.377 -24.748  0.00  0.00     0.002 A 
ATOM     19  C   UNL d   1      29.261  15.956 -24.429  0.00  0.00     0.000 A 
ATOM     20  C   UNL d   1      28.818  16.282 -23.814  0.00  0.00     0.000 A 
ATOM     21  C   UNL d   1      29.019  17.032 -23.517  0.00  0.00     0.000 A 
ATOM     22  C   UNL d   1      29.659  17.448 -23.836  0.00  0.00     0.002 A 
ENDBRANCH  16  17
ENDBRANCH  15  16
ENDBRANCH  13  15
ENDBRANCH   1  12
BRANCH   1  23
ATOM     23  C   UNL d   1      32.941  17.315 -23.773  0.00  0.00     0.031 C 
BRANCH  23  24
ATOM     24  C   UNL d   1      33.104  16.777 -23.169  0.00  0.00     0.072 C 
BRANCH  24  25
ATOM     25  C   UNL d   1      33.042  15.965 -23.309  0.00  0.00     0.211 C 
ATOM     26  O   UNL d   1      32.779  15.453 -22.712  0.00  0.00    -0.644 OA
ATOM     27  O   UNL d   1      33.241  15.648 -24.050  0.00  0.00    -0.644 OA
ENDBRANCH  24  25
ENDBRANCH  23  24
ENDBRANCH   1  23
TORSDOF 11
ENDMDL
MODEL 2
REMARK VINA RESULT:      -1.1      1.707      5.188
REMARK  11 active torsions:
REMARK  status: ('A' for Active; 'I' for Inactive)
REMARK    1  A    between atoms: C_3  and  C_1 
REMARK    2  A    between atoms: N_4  and  C_1 
REMARK    3  A    between atoms: C_5  and  C_1 
REMARK       I    between atoms: C_2  and  N_4 
REMARK    4  A    between atoms: O_10  and  C_2 
REMARK    5  A    between atoms: O_7  and  C_3 
REMARK    6  A    between atoms: C_12  and  C_5 
REMARK    7  A    between atoms: C_6  and  C_12 
REMARK    8  A    between atoms: C_13  and  O_7 
REMARK    9  A    between atoms: C_15  and  O_10 
REMARK   10  A    between atoms: C_16  and  C_13 
REMARK   11  A    between atoms: C_17  and  C_15 
ROOT
ATOM      1  C   UNL d   1      32.726  19.403 -22.829  0.00  0.00     0.150 C 
ENDROOT
BRANCH   1   2
ATOM      2  C   UNL d   1      31.985  19.148 -23.087  0.00  0.00     0.318 C 
ATOM      3  O   UNL d   1      31.372  19.694 -23.191  0.00  0.00    -0.257 OA
BRANCH   2   4
ATOM      4  O   UNL d   1      31.851  18.343 -23.243  0.00  0.00    -0.270 OA
BRANCH   4   5
ATOM      5  C   UNL d   1      31.337  17.704 -23.354  0.00  0.00     0.126 C 
BRANCH   5   6
ATOM      6  C   UNL d   1      31.636  16.986 -23.627  0.00  0.00     0.025 A 
ATOM      7  C   UNL d   1      31.545  16.776 -24.414  0.00  0.00     0.002 A 
ATOM      8  C   UNL d   1      31.838  16.068 -24.689  0.00  0.00     0.000 A 
ATOM      9  C   UNL d   1      32.235  15.549 -24.175  0.00  0.00     0.000 A 
ATOM     10  C   UNL d   1      32.326  15.766 -23.374  0.00  0.00     0.000 A 
ATOM     11  C   UNL d   1      32.028  16.479 -23.107  0.00  0.00     0.002 A 
ENDBRANCH   5   6
ENDBRANCH   4   5
ENDBRANCH   2   4
ENDBRANCH   1   2
BRANCH   1  12
ATOM     12  N   UNL d   1      32.996  19.191 -22.079  0.00  0.00    -0.180 NA
ATOM     13  C   UNL d   1      32.968  19.737 -21.459  0.00  0.00     0.393 C 
ATOM     14  O   UNL d   1      33.239  19.522 -20.707  0.00  0.00    -0.236 OA
BRANCH  13  15
ATOM     15  O   UNL d   1      32.670  20.495 -21.590  0.00  0.00    -0.256 OA
BRANCH  15  16
ATOM     16  C   UNL d   1      32.416  20.956 -20.951  0.00  0.00     0.128 C 
BRANCH  16  17
ATOM     17  C   UNL d   1      32.450  21.778 -21.007  0.00  0.00     0.025 A 
ATOM     18  C   UNL d   1      31.766  22.222 -20.876  0.00  0.00     0.002 A 
ATOM     19  C   UNL d   1      31.794  23.053 -20.931  0.00  0.00     0.000 A 
ATOM     20  C   UNL d   1      32.505  23.431 -21.115  0.00  0.00     0.000 A 
ATOM     21  C   UNL d   1      33.188  22.977 -21.244  0.00  0.00     0.000 A 
ATOM     22  C   UNL d   1      33.158  22.153 -21.190  0.00  0.00     0.002 A 
ENDBRANCH  16  17
ENDBRANCH  15  16
ENDBRANCH  13  15
ENDBRANCH   1  12
BRANCH   1  23
ATOM     23  C   UNL d   1      33.198  19.871 -23.322  0.00  0.00     0.031 C 
BRANCH  23  24
ATOM     24  C   UNL d   1      32.855  20.463 -23.783  0.00  0.00     0.072 C 
BRANCH  24  25
ATOM     25  C   UNL d   1      33.107  20.582 -24.560  0.00  0.00     0.211 C 
ATOM     26  O   UNL d   1      33.241  19.937 -25.064  0.00  0.00    -0.644 OA
ATOM     27  O   UNL d   1      33.232  21.349 -24.851  0.00  0.00    -0.644 OA
ENDBRANCH  24  25
ENDBRANCH  23  24
ENDBRANCH   1  23
TORSDOF 11
ENDMDL
