MODEL 1
REMARK VINA RESULT:     -10.3      0.000      0.000
REMARK  6 active torsions:
REMARK  status: ('A' for Active; 'I' for Inactive)
REMARK    1  A    between atoms: N_7  and  C_1 
REMARK    2  A    between atoms: C_10  and  C_3 
REMARK    3  A    between atoms: C_17  and  C_5 
REMARK    4  A    between atoms: C_12  and  N_7 
REMARK    5  A    between atoms: C_8  and  C_9 
REMARK    6  A    between atoms: C_13  and  C_17 
ROOT
ATOM      1  C   UNL d   1      53.552  33.029  53.871  0.00  0.00     0.165 A 
ATOM      2  N   UNL d   1      52.869  33.133  53.406  0.00  0.00    -0.208 NA
ATOM      3  C   UNL d   1      52.376  33.788  53.527  0.00  0.00     0.164 A 
ATOM      4  N   UNL d   1      52.562  34.341  54.112  0.00  0.00    -0.227 NA
ATOM      5  C   UNL d   1      53.731  33.586  54.454  0.00  0.00     0.054 A 
ATOM      6  C   UNL d   1      53.238  34.231  54.568  0.00  0.00     0.086 A 
ATOM      7  C   UNL d   1      53.426  34.788  55.156  0.00  0.00     0.021 C 
ENDROOT
BRANCH   1   8
ATOM      8  N   UNL d   1      54.041  32.376  53.749  0.00  0.00    -0.227 NA
BRANCH   8   9
ATOM      9  C   UNL d   1      53.713  31.609  53.710  0.00  0.00     0.083 A 
ATOM     10  C   UNL d   1      53.532  31.215  54.395  0.00  0.00     0.019 A 
ATOM     11  C   UNL d   1      53.206  30.451  54.356  0.00  0.00     0.008 A 
ATOM     12  C   UNL d   1      53.069  30.102  53.620  0.00  0.00     0.065 A 
ATOM     13  C   UNL d   1      53.254  30.504  52.931  0.00  0.00     0.008 A 
ATOM     14  C   UNL d   1      53.578  31.263  52.969  0.00  0.00     0.019 A 
BRANCH  12  15
ATOM     15  C   UNL d   1      52.743  29.339  53.581  0.00  0.00     0.211 C 
ATOM     16  O   UNL d   1      52.994  28.755  54.106  0.00  0.00    -0.644 OA
ATOM     17  O   UNL d   1      52.170  29.163  53.020  0.00  0.00    -0.644 OA
ENDBRANCH  12  15
ENDBRANCH   8   9
ENDBRANCH   1   8
BRANCH   5  18
ATOM     18  C   UNL d   1      54.403  33.490  54.916  0.00  0.00     0.005 C 
BRANCH  18  19
ATOM     19  C   UNL d   1      55.028  34.013  54.870  0.00  0.00     0.000 C 
ATOM     20  C   UNL d   1      55.716  33.909  55.306  0.00  0.00     0.000 C 
ENDBRANCH  18  19
ENDBRANCH   5  18
BRANCH   3  21
ATOM     21  C   UNL d   1      51.700  33.887  53.064  0.00  0.00     0.036 A 
ATOM     22  C   UNL d   1      50.962  33.686  53.365  0.00  0.00     0.003 A 
ATOM     23  C   UNL d   1      50.284  33.783  52.908  0.00  0.00     0.000 A 
ATOM     24  C   UNL d   1      50.349  34.090  52.131  0.00  0.00     0.000 A 
ATOM     25  C   UNL d   1      51.088  34.291  51.830  0.00  0.00     0.000 A 
ATOM     26  C   UNL d   1      51.768  34.188  52.303  0.00  0.00     0.003 A 
ENDBRANCH   3  21
TORSDOF 6
ENDMDL
MODEL 2
REMARK VINA RESULT:      -9.7      0.780      3.005
REMARK  6 active torsions:
REMARK  status: ('A' for Active; 'I' for Inactive)
REMARK    1  A    between atoms: N_7  and  C_1 
REMARK    2  A    between atoms: C_10  and  C_3 
REMARK    3  A    between atoms: C_17  and  C_5 
REMARK    4  A    between atoms: C_12  and  N_7 
REMARK    5  A    between atoms: C_8  and  C_9 
REMARK    6  A    between atoms: C_13  and  C_17 
ROOT
ATOM      1  C   UNL d   1      52.572  32.944  53.043  0.00  0.00     0.165 A 
ATOM      2  N   UNL d   1      53.241  32.961  53.538  0.00  0.00    -0.208 NA
ATOM      3  C   UNL d   1      53.396  33.625  54.009  0.00  0.00     0.164 A 
ATOM      4  N   UNL d   1      52.885  34.274  53.988  0.00  0.00    -0.227 NA
ATOM      5  C   UNL d   1      52.065  33.597  53.027  0.00  0.00     0.054 A 
ATOM      6  C   UNL d   1      52.226  34.250  53.496  0.00  0.00     0.086 A 
ATOM      7  C   UNL d   1      51.712  34.902  53.475  0.00  0.00     0.021 C 
ENDROOT
BRANCH   1   8
ATOM      8  N   UNL d   1      52.420  32.283  52.574  0.00  0.00    -0.227 NA
BRANCH   8   9
ATOM      9  C   UNL d   1      52.552  31.516  52.877  0.00  0.00     0.083 A 
ATOM     10  C   UNL d   1      51.979  31.158  53.326  0.00  0.00     0.019 A 
ATOM     11  C   UNL d   1      52.111  30.395  53.628  0.00  0.00     0.008 A 
ATOM     12  C   UNL d   1      52.824  30.009  53.468  0.00  0.00     0.065 A 
ATOM     13  C   UNL d   1      53.399  30.375  53.014  0.00  0.00     0.008 A 
ATOM     14  C   UNL d   1      53.268  31.134  52.714  0.00  0.00     0.019 A 
BRANCH  12  15
ATOM     15  C   UNL d   1      52.955  29.246  53.769  0.00  0.00     0.211 C 
ATOM     16  O   UNL d   1      52.758  28.584  53.319  0.00  0.00    -0.644 OA
ATOM     17  O   UNL d   1      53.281  29.148  54.516  0.00  0.00    -0.644 OA
ENDBRANCH  12  15
ENDBRANCH   8   9
ENDBRANCH   1   8
BRANCH   5  18
ATOM     18  C   UNL d   1      51.404  33.588  52.541  0.00  0.00     0.005 C 
BRANCH  18  19
ATOM     19  C   UNL d   1      51.268  34.182  51.997  0.00  0.00     0.000 C 
ATOM     20  C   UNL d   1      50.600  34.191  51.521  0.00  0.00     0.000 C 
ENDBRANCH  18  19
ENDBRANCH   5  18
BRANCH   3  21
ATOM     21  C   UNL d   1      54.060  33.638  54.499  0.00  0.00     0.036 A 
ATOM     22  C   UNL d   1      53.996  33.408  55.285  0.00  0.00     0.003 A 
ATOM     23  C   UNL d   1      54.656  33.419  55.779  0.00  0.00     0.000 A 
ATOM     24  C   UNL d   1      55.396  33.666  55.475  0.00  0.00     0.000 A 
ATOM     25  C   UNL d   1      55.460  33.896  54.688  0.00  0.00     0.000 A 
ATOM     26  C   UNL d   1      54.784  33.881  54.197  0.00  0.00     0.003 A 
ENDBRANCH   3  21
TORSDOF 6
ENDMDL
MODEL 3
REMARK VINA RESULT:      -9.3      2.042      4.299
REMARK  6 active torsions:
REMARK  status: ('A' for Active; 'I' for Inactive)
REMARK    1  A    between atoms: N_7  and  C_1 
REMARK    2  A    between atoms: C_10  and  C_3 
REMARK    3  A    between atoms: C_17  and  C_5 
REMARK    4  A    between atoms: C_12  and  N_7 
REMARK    5  A    between atoms: C_8  and  C_9 
REMARK    6  A    between atoms: C_13  and  C_17 
ROOT
ATOM      1  C   UNL d   1      52.957  31.988  53.142  0.00  0.00     0.165 A 
ATOM      2  N   UNL d   1      53.404  32.567  53.539  0.00  0.00    -0.208 NA
ATOM      3  C   UNL d   1      53.942  32.349  54.130  0.00  0.00     0.164 A 
ATOM      4  N   UNL d   1      54.036  31.552  54.328  0.00  0.00    -0.227 NA
ATOM      5  C   UNL d   1      53.056  31.192  53.346  0.00  0.00     0.054 A 
ATOM      6  C   UNL d   1      53.590  30.985  53.933  0.00  0.00     0.086 A 
ATOM      7  C   UNL d   1      53.684  30.184  54.132  0.00  0.00     0.021 C 
ENDROOT
BRANCH   1   8
ATOM      8  N   UNL d   1      52.422  32.207  52.554  0.00  0.00    -0.227 NA
BRANCH   8   9
ATOM      9  C   UNL d   1      51.896  32.842  52.683  0.00  0.00     0.083 A 
ATOM     10  C   UNL d   1      51.253  32.738  53.167  0.00  0.00     0.019 A 
ATOM     11  C   UNL d   1      50.729  33.370  53.295  0.00  0.00     0.008 A 
ATOM     12  C   UNL d   1      50.868  34.098  52.928  0.00  0.00     0.065 A 
ATOM     13  C   UNL d   1      51.518  34.197  52.440  0.00  0.00     0.008 A 
ATOM     14  C   UNL d   1      52.039  33.568  52.312  0.00  0.00     0.019 A 
BRANCH  12  15
ATOM     15  C   UNL d   1      50.344  34.730  53.056  0.00  0.00     0.211 C 
ATOM     16  O   UNL d   1      49.634  34.769  52.639  0.00  0.00    -0.644 OA
ATOM     17  O   UNL d   1      50.531  35.317  53.598  0.00  0.00    -0.644 OA
ENDBRANCH  12  15
ENDBRANCH   8   9
ENDBRANCH   1   8
BRANCH   5  18
ATOM     18  C   UNL d   1      52.618  30.615  52.960  0.00  0.00     0.005 C 
BRANCH  18  19
ATOM     19  C   UNL d   1      52.961  29.915  52.716  0.00  0.00     0.000 C 
ATOM     20  C   UNL d   1      52.516  29.295  52.415  0.00  0.00     0.000 C 
ENDBRANCH  18  19
ENDBRANCH   5  18
BRANCH   3  21
ATOM     21  C   UNL d   1      54.383  32.926  54.520  0.00  0.00     0.036 A 
ATOM     22  C   UNL d   1      55.022  33.281  54.143  0.00  0.00     0.003 A 
ATOM     23  C   UNL d   1      55.467  33.858  54.528  0.00  0.00     0.000 A 
ATOM     24  C   UNL d   1      55.264  34.084  55.309  0.00  0.00     0.000 A 
ATOM     25  C   UNL d   1      54.625  33.729  55.686  0.00  0.00     0.000 A 
ATOM     26  C   UNL d   1      54.182  33.145  55.286  0.00  0.00     0.003 A 
ENDBRANCH   3  21
TORSDOF 6
ENDMDL
MODEL 4
REMARK VINA RESULT:      -8.8      2.098      3.582
REMARK  6 active torsions:
REMARK  status: ('A' for Active; 'I' for Inactive)
REMARK    1  A    between atoms: N_7  and  C_1 
REMARK    2  A    between atoms: C_10  and  C_3 
REMARK    3  A    between atoms: C_17  and  C_5 
REMARK    4  A    between atoms: C_12  and  N_7 
REMARK    5  A    between atoms: C_8  and  C_9 
REMARK    6  A    between atoms: C_13  and  C_17 
ROOT
ATOM      1  C   UNL d   1      53.317  31.515  53.749  0.00  0.00     0.165 A 
ATOM      2  N   UNL d   1      52.883  32.206  53.581  0.00  0.00    -0.208 NA
ATOM      3  C   UNL d   1      52.229  32.177  53.074  0.00  0.00     0.164 A 
ATOM      4  N   UNL d   1      52.005  31.458  52.731  0.00  0.00    -0.227 NA
ATOM      5  C   UNL d   1      53.087  30.800  53.403  0.00  0.00     0.054 A 
ATOM      6  C   UNL d   1      52.438  30.780  52.902  0.00  0.00     0.086 A 
ATOM      7  C   UNL d   1      52.212  30.058  52.558  0.00  0.00     0.021 C 
ENDROOT
BRANCH   1   8
ATOM      8  N   UNL d   1      53.968  31.546  54.254  0.00  0.00    -0.227 NA
BRANCH   8   9
ATOM      9  C   UNL d   1      54.277  32.284  54.494  0.00  0.00     0.083 A 
ATOM     10  C   UNL d   1      54.786  32.684  54.005  0.00  0.00     0.019 A 
ATOM     11  C   UNL d   1      55.093  33.418  54.243  0.00  0.00     0.008 A 
ATOM     12  C   UNL d   1      54.877  33.734  54.975  0.00  0.00     0.065 A 
ATOM     13  C   UNL d   1      54.362  33.328  55.465  0.00  0.00     0.008 A 
ATOM     14  C   UNL d   1      54.056  32.597  55.228  0.00  0.00     0.019 A 
BRANCH  12  15
ATOM     15  C   UNL d   1      55.184  34.469  55.213  0.00  0.00     0.211 C 
ATOM     16  O   UNL d   1      54.729  35.152  55.132  0.00  0.00    -0.644 OA
ATOM     17  O   UNL d   1      55.939  34.517  55.530  0.00  0.00    -0.644 OA
ENDBRANCH  12  15
ENDBRANCH   8   9
ENDBRANCH   1   8
BRANCH   5  18
ATOM     18  C   UNL d   1      53.509  30.115  53.564  0.00  0.00     0.005 C 
BRANCH  18  19
ATOM     19  C   UNL d   1      53.165  29.486  53.955  0.00  0.00     0.000 C 
ATOM     20  C   UNL d   1      53.612  28.887  54.294  0.00  0.00     0.000 C 
ENDBRANCH  18  19
ENDBRANCH   5  18
BRANCH   3  21
ATOM     21  C   UNL d   1      51.802  32.863  52.910  0.00  0.00     0.036 A 
ATOM     22  C   UNL d   1      51.123  33.038  53.339  0.00  0.00     0.003 A 
ATOM     23  C   UNL d   1      50.693  33.722  53.180  0.00  0.00     0.000 A 
ATOM     24  C   UNL d   1      50.951  34.242  52.576  0.00  0.00     0.000 A 
ATOM     25  C   UNL d   1      51.630  34.068  52.148  0.00  0.00     0.000 A 
ATOM     26  C   UNL d   1      52.059  33.371  52.318  0.00  0.00     0.003 A 
ENDBRANCH   3  21
TORSDOF 6
ENDMDL
MODEL 5
REMARK VINA RESULT:      -8.2      1.891      3.680
REMARK  6 active torsions:
REMARK  status: ('A' for Active; 'I' for Inactive)
REMARK    1  A    between atoms: N_7  and  C_1 
REMARK    2  A    between atoms: C_10  and  C_3 
REMARK    3  A    between atoms: C_17  and  C_5 
REMARK    4  A    between atoms: C_12  and  N_7 
REMARK    5  A    between atoms: C_8  and  C_9 
REMARK    6  A    between atoms: C_13  and  C_17 
ROOT
ATOM      1  C   UNL d   1      53.328  33.233  53.726  0.00  0.00     0.165 A 
ATOM      2  N   UNL d   1      53.099  32.506  53.392  0.00  0.00    -0.208 NA
ATOM      3  C   UNL d   1      53.301  31.793  53.761  0.00  0.00     0.164 A 
ATOM      4  N   UNL d   1      53.732  31.802  54.467  0.00  0.00    -0.227 NA
ATOM      5  C   UNL d   1      53.759  33.234  54.432  0.00  0.00     0.054 A 
ATOM      6  C   UNL d   1      53.955  32.524  54.791  0.00  0.00     0.086 A 
ATOM      7  C   UNL d   1      54.389  32.533  55.500  0.00  0.00     0.021 C 
ENDROOT
BRANCH   1   8
ATOM      8  N   UNL d   1      53.126  33.942  53.357  0.00  0.00    -0.227 NA
BRANCH   8   9
ATOM      9  C   UNL d   1      52.343  34.070  53.097  0.00  0.00     0.083 A 
ATOM     10  C   UNL d   1      51.761  34.223  53.641  0.00  0.00     0.019 A 
ATOM     11  C   UNL d   1      50.981  34.351  53.383  0.00  0.00     0.008 A 
ATOM     12  C   UNL d   1      50.807  34.321  52.576  0.00  0.00     0.065 A 
ATOM     13  C   UNL d   1      51.398  34.166  52.031  0.00  0.00     0.008 A 
ATOM     14  C   UNL d   1      52.174  34.039  52.288  0.00  0.00     0.019 A 
BRANCH  12  15
ATOM     15  C   UNL d   1      50.027  34.448  52.318  0.00  0.00     0.211 C 
ATOM     16  O   UNL d   1      49.477  34.796  52.824  0.00  0.00    -0.644 OA
ATOM     17  O   UNL d   1      49.802  34.229  51.560  0.00  0.00    -0.644 OA
ENDBRANCH  12  15
ENDBRANCH   8   9
ENDBRANCH   1   8
BRANCH   5  18
ATOM     18  C   UNL d   1      53.989  33.947  54.768  0.00  0.00     0.005 C 
BRANCH  18  19
ATOM     19  C   UNL d   1      54.768  34.092  54.965  0.00  0.00     0.000 C 
ATOM     20  C   UNL d   1      55.021  34.827  55.229  0.00  0.00     0.000 C 
ENDBRANCH  18  19
ENDBRANCH   5  18
BRANCH   3  21
ATOM     21  C   UNL d   1      53.072  31.075  53.427  0.00  0.00     0.036 A 
ATOM     22  C   UNL d   1      53.555  30.706  52.873  0.00  0.00     0.003 A 
ATOM     23  C   UNL d   1      53.332  29.988  52.535  0.00  0.00     0.000 A 
ATOM     24  C   UNL d   1      52.606  29.634  52.759  0.00  0.00     0.000 A 
ATOM     25  C   UNL d   1      52.123  30.003  53.312  0.00  0.00     0.000 A 
ATOM     26  C   UNL d   1      52.360  30.730  53.648  0.00  0.00     0.003 A 
ENDBRANCH   3  21
TORSDOF 6
ENDMDL
