MODEL 1
REMARK VINA RESULT:      -4.1      0.000      0.000
REMARK  3 active torsions:
REMARK  status: ('A' for Active; 'I' for Inactive)
REMARK    1  A    between atoms: N_2  and  C_1 
REMARK    2  A    between atoms: N_3  and  C_1 
REMARK       I    between atoms: C_4  and  N_3 
REMARK    3  A    between atoms: C_7  and  C_4 
ROOT
ATOM      1  C   UNL d   1     -41.754-122.276 -50.982  0.00  0.00     0.209 C 
ATOM      2  S   UNL d   1     -41.126-121.780 -50.755  0.00  0.00    -0.038 SA
ENDROOT
BRANCH   1   3
ATOM      3  N   UNL d   1     -42.337-122.482 -50.442  0.00  0.00    -0.282 N 
ATOM      4  C   UNL d   1     -42.137-122.930 -49.772  0.00  0.00     0.066 A 
ATOM      5  C   UNL d   1     -42.720-123.136 -49.231  0.00  0.00     0.016 A 
ATOM      6  C   UNL d   1     -41.364-123.169 -49.647  0.00  0.00     0.018 A 
ATOM      7  C   UNL d   1     -42.531-123.578 -48.568  0.00  0.00     0.001 A 
ATOM      8  C   UNL d   1     -43.500-122.899 -49.351  0.00  0.00     0.003 A 
ATOM      9  C   UNL d   1     -41.755-123.816 -48.444  0.00  0.00     0.000 A 
ATOM     10  C   UNL d   1     -41.169-123.615 -48.978  0.00  0.00     0.002 A 
ATOM     11  C   UNL d   1     -43.695-122.453 -50.019  0.00  0.00     0.019 A 
ATOM     12  C   UNL d   1     -43.113-122.245 -50.562  0.00  0.00     0.082 A 
ENDBRANCH   1   3
BRANCH   1  13
ATOM     13  N   UNL d   1     -41.790-122.565 -51.760  0.00  0.00    -0.180 NA
ATOM     14  C   UNL d   1     -41.486-122.102 -52.381  0.00  0.00     0.281 C 
ATOM     15  O   UNL d   1     -41.153-121.367 -52.230  0.00  0.00    -0.265 OA
BRANCH  14  16
ATOM     16  C   UNL d   1     -41.521-122.393 -53.167  0.00  0.00     0.058 A 
ATOM     17  C   UNL d   1     -41.148-123.111 -53.354  0.00  0.00     0.005 A 
ATOM     18  C   UNL d   1     -41.183-123.399 -54.132  0.00  0.00     0.007 A 
ATOM     19  C   UNL d   1     -41.587-122.973 -54.714  0.00  0.00     0.035 A 
ATOM     20  C   UNL d   1     -41.961-122.249 -54.516  0.00  0.00     0.007 A 
ATOM     21 BR   UNL d   1     -41.623-123.260 -55.493  0.00  0.00    -0.049 Br
ATOM     22  C   UNL d   1     -41.926-121.965 -53.745  0.00  0.00     0.005 A 
ENDBRANCH  14  16
ENDBRANCH   1  13
TORSDOF 3
ENDMDL
MODEL 2
REMARK VINA RESULT:      -3.9      0.619      1.520
REMARK  3 active torsions:
REMARK  status: ('A' for Active; 'I' for Inactive)
REMARK    1  A    between atoms: N_2  and  C_1 
REMARK    2  A    between atoms: N_3  and  C_1 
REMARK       I    between atoms: C_4  and  N_3 
REMARK    3  A    between atoms: C_7  and  C_4 
ROOT
ATOM      1  C   UNL d   1     -41.587-122.132 -51.181  0.00  0.00     0.209 C 
ATOM      2  S   UNL d   1     -41.257-121.390 -50.999  0.00  0.00    -0.038 SA
ENDROOT
BRANCH   1   3
ATOM      3  N   UNL d   1     -41.699-122.693 -50.592  0.00  0.00    -0.282 N 
ATOM      4  C   UNL d   1     -42.399-122.686 -50.145  0.00  0.00     0.066 A 
ATOM      5  C   UNL d   1     -42.511-123.246 -49.556  0.00  0.00     0.016 A 
ATOM      6  C   UNL d   1     -42.978-122.124 -50.288  0.00  0.00     0.018 A 
ATOM      7  C   UNL d   1     -43.199-123.246 -49.111  0.00  0.00     0.001 A 
ATOM      8  C   UNL d   1     -41.934-123.814 -49.407  0.00  0.00     0.003 A 
ATOM      9  C   UNL d   1     -43.778-122.682 -49.255  0.00  0.00     0.000 A 
ATOM     10  C   UNL d   1     -43.673-122.120 -49.841  0.00  0.00     0.002 A 
ATOM     11  C   UNL d   1     -41.238-123.817 -49.854  0.00  0.00     0.019 A 
ATOM     12  C   UNL d   1     -41.123-123.257 -50.445  0.00  0.00     0.082 A 
ENDBRANCH   1   3
BRANCH   1  13
ATOM     13  N   UNL d   1     -41.804-122.304 -51.964  0.00  0.00    -0.180 NA
ATOM     14  C   UNL d   1     -41.567-121.793 -52.575  0.00  0.00     0.281 C 
ATOM     15  O   UNL d   1     -41.123-121.122 -52.410  0.00  0.00    -0.265 OA
BRANCH  14  16
ATOM     16  C   UNL d   1     -41.786-121.966 -53.366  0.00  0.00     0.058 A 
ATOM     17  C   UNL d   1     -42.362-121.501 -53.742  0.00  0.00     0.005 A 
ATOM     18  C   UNL d   1     -42.579-121.673 -54.525  0.00  0.00     0.007 A 
ATOM     19  C   UNL d   1     -42.222-122.302 -54.925  0.00  0.00     0.035 A 
ATOM     20  C   UNL d   1     -41.642-122.766 -54.538  0.00  0.00     0.007 A 
ATOM     21 BR   UNL d   1     -42.439-122.474 -55.709  0.00  0.00    -0.049 Br
ATOM     22  C   UNL d   1     -41.428-122.595 -53.762  0.00  0.00     0.005 A 
ENDBRANCH  14  16
ENDBRANCH   1  13
TORSDOF 3
ENDMDL
