MODEL 1
REMARK VINA RESULT:      51.8      0.000      0.000
REMARK  4 active torsions:
REMARK  status: ('A' for Active; 'I' for Inactive)
REMARK    1  A    between atoms: C_10  and  C_2 
REMARK    2  A    between atoms: C_9  and  C_4 
REMARK    3  A    between atoms: C_8  and  N_6 
REMARK    4  A    between atoms: N_7  and  C_9 
ROOT
ATOM      1  N   UNL d   1     -55.583-102.591 -38.922  0.00  0.00    -0.301 N 
ATOM      2  N   UNL d   1     -55.297-102.599 -40.545  0.00  0.00    -0.297 N 
ATOM      3  C   UNL d   1     -54.854-102.846 -39.214  0.00  0.00     0.100 A 
ATOM      4  C   UNL d   1     -56.168-102.341 -39.441  0.00  0.00     0.100 A 
ATOM      5  C   UNL d   1     -54.711-102.850 -40.025  0.00  0.00     0.100 A 
ATOM      6  C   UNL d   1     -56.027-102.344 -40.255  0.00  0.00     0.100 A 
ENDROOT
BRANCH   2   7
ATOM      7  C   UNL d   1     -55.159-102.601 -41.356  0.00  0.00     0.127 C 
BRANCH   7   8
ATOM      8  C   UNL d   1     -55.067-101.887 -41.753  0.00  0.00     0.222 A 
ATOM      9  N   UNL d   1     -54.927-101.143 -41.412  0.00  0.00    -0.119 NA
ATOM     10  N   UNL d   1     -54.873-100.588 -42.019  0.00  0.00    -0.121 NA
ATOM     11  C   UNL d   1     -54.980-100.985 -42.738  0.00  0.00     0.204 A 
ATOM     12  O   UNL d   1     -55.100-101.787 -42.576  0.00  0.00    -0.267 OA
BRANCH  11  13
ATOM     13  C   UNL d   1     -54.968-100.635 -43.486  0.00  0.00     0.043 A 
ATOM     14  C   UNL d   1     -55.189-101.070 -44.148  0.00  0.00     0.004 A 
ATOM     15  C   UNL d   1     -55.177-100.719 -44.896  0.00  0.00     0.000 A 
ATOM     16  C   UNL d   1     -54.944 -99.935 -44.979  0.00  0.00     0.000 A 
ATOM     17  C   UNL d   1     -54.720 -99.497 -44.303  0.00  0.00     0.000 A 
ATOM     18  C   UNL d   1     -54.736 -99.854 -43.563  0.00  0.00     0.004 A 
ENDBRANCH  11  13
ENDBRANCH   7   8
ENDBRANCH   2   7
BRANCH   1  19
ATOM     19  C   UNL d   1     -55.726-102.587 -38.111  0.00  0.00     0.064 A 
ATOM     20  C   UNL d   1     -56.488-102.725 -37.826  0.00  0.00     0.020 A 
ATOM     21  C   UNL d   1     -56.629-102.720 -37.011  0.00  0.00     0.031 A 
ATOM     22  C   UNL d   1     -56.009-102.579 -36.480  0.00  0.00     0.140 A 
ATOM     23  C   UNL d   1     -55.251-102.443 -36.777  0.00  0.00     0.031 A 
ATOM     24  F   UNL d   1     -56.106-102.565 -35.663  0.00  0.00    -0.204 F 
ATOM     25  C   UNL d   1     -55.108-102.447 -37.589  0.00  0.00     0.020 A 
ENDBRANCH   1  19
TORSDOF 4
ENDMDL
