MODEL 1
REMARK VINA RESULT:      -5.8      0.000      0.000
REMARK  8 active torsions:
REMARK  status: ('A' for Active; 'I' for Inactive)
REMARK    1  A    between atoms: C_9  and  N_1 
REMARK    2  A    between atoms: S_10  and  C_6 
REMARK    3  A    between atoms: C_19  and  S_10 
REMARK    4  A    between atoms: C_12  and  C_19 
REMARK       I    between atoms: N_14  and  C_12 
REMARK    5  A    between atoms: C_13  and  C_20 
REMARK    6  A    between atoms: O_24  and  C_13 
REMARK    7  A    between atoms: C_20  and  N_14 
REMARK    8  A    between atoms: C_26  and  O_24 
ROOT
ATOM      1  N   UNL d   1     -48.449  13.498  22.782  0.00  0.00    -0.212 N 
ATOM      2  C   UNL d   1     -47.689  13.806  22.818  0.00  0.00     0.169 A 
ATOM      3  N   UNL d   1     -48.403  12.695  22.682  0.00  0.00    -0.162 NA
ATOM      4  C   UNL d   1     -47.161  13.176  22.739  0.00  0.00     0.081 A 
ATOM      5  C   UNL d   1     -47.602  12.487  22.655  0.00  0.00     0.126 A 
ATOM      6  C   UNL d   1     -46.351  13.314  22.755  0.00  0.00     0.117 A 
ATOM      7  N   UNL d   1     -47.406  14.572  22.913  0.00  0.00    -0.205 NA
ATOM      8  N   UNL d   1     -46.065  14.082  22.850  0.00  0.00    -0.217 NA
ATOM      9  C   UNL d   1     -46.593  14.711  22.929  0.00  0.00     0.201 A 
ENDROOT
BRANCH   6  10
ATOM     10  S   UNL d   1     -45.823  12.684  22.676  0.00  0.00    -0.062 SA
BRANCH  10  11
ATOM     11  C   UNL d   1     -45.066  12.818  22.404  0.00  0.00     0.099 C 
BRANCH  11  12
ATOM     12  C   UNL d   1     -44.488  12.236  22.489  0.00  0.00     0.286 C 
ATOM     13  N   UNL d   1     -43.781  12.291  22.066  0.00  0.00    -0.200 NA
ATOM     14  O   UNL d   1     -44.616  11.598  22.998  0.00  0.00    -0.265 OA
BRANCH  13  15
ATOM     15  C   UNL d   1     -43.653  12.929  21.558  0.00  0.00     0.171 C 
BRANCH  15  16
ATOM     16  C   UNL d   1     -42.948  12.983  21.132  0.00  0.00     0.320 C 
ATOM     17  O   UNL d   1     -42.844  12.533  20.447  0.00  0.00    -0.257 OA
BRANCH  16  18
ATOM     18  O   UNL d   1     -42.347  13.485  21.391  0.00  0.00    -0.270 OA
BRANCH  18  19
ATOM     19  C   UNL d   1     -41.827  13.821  20.845  0.00  0.00     0.126 C 
ATOM     20  C   UNL d   1     -41.320  14.428  21.079  0.00  0.00     0.029 C 
ENDBRANCH  18  19
ENDBRANCH  16  18
ENDBRANCH  15  16
ENDBRANCH  13  15
ENDBRANCH  11  12
ENDBRANCH  10  11
ENDBRANCH   6  10
BRANCH   1  21
ATOM     21  C   UNL d   1     -49.106  14.003  22.845  0.00  0.00     0.085 A 
ATOM     22  C   UNL d   1     -49.374  14.411  22.185  0.00  0.00     0.020 A 
ATOM     23  C   UNL d   1     -50.020  14.909  22.245  0.00  0.00     0.013 A 
ATOM     24  C   UNL d   1     -50.408  15.005  22.969  0.00  0.00     0.058 A 
ATOM     25  C   UNL d   1     -50.127  14.585  23.634  0.00  0.00     0.013 A 
ATOM     26 CL   UNL d   1     -51.064  15.510  23.034  0.00  0.00    -0.082 Cl
ATOM     27  C   UNL d   1     -49.482  14.091  23.566  0.00  0.00     0.020 A 
ENDBRANCH   1  21
TORSDOF 8
ENDMDL
MODEL 2
REMARK VINA RESULT:      -4.0      5.167      9.026
REMARK  8 active torsions:
REMARK  status: ('A' for Active; 'I' for Inactive)
REMARK    1  A    between atoms: C_9  and  N_1 
REMARK    2  A    between atoms: S_10  and  C_6 
REMARK    3  A    between atoms: C_19  and  S_10 
REMARK    4  A    between atoms: C_12  and  C_19 
REMARK       I    between atoms: N_14  and  C_12 
REMARK    5  A    between atoms: C_13  and  C_20 
REMARK    6  A    between atoms: O_24  and  C_13 
REMARK    7  A    between atoms: C_20  and  N_14 
REMARK    8  A    between atoms: C_26  and  O_24 
ROOT
ATOM      1  N   UNL d   1     -38.758  14.210  17.665  0.00  0.00    -0.212 N 
ATOM      2  C   UNL d   1     -39.536  14.343  17.892  0.00  0.00     0.169 A 
ATOM      3  N   UNL d   1     -38.305  14.101  18.328  0.00  0.00    -0.162 NA
ATOM      4  C   UNL d   1     -39.563  14.316  18.716  0.00  0.00     0.081 A 
ATOM      5  C   UNL d   1     -38.802  14.166  18.989  0.00  0.00     0.126 A 
ATOM      6  C   UNL d   1     -40.276  14.431  19.108  0.00  0.00     0.117 A 
ATOM      7  N   UNL d   1     -40.221  14.485  17.460  0.00  0.00    -0.205 NA
ATOM      8  N   UNL d   1     -40.965  14.574  18.678  0.00  0.00    -0.217 NA
ATOM      9  C   UNL d   1     -40.938  14.601  17.854  0.00  0.00     0.201 A 
ENDROOT
BRANCH   6  10
ATOM     10  S   UNL d   1     -40.303  14.403  19.933  0.00  0.00    -0.062 SA
BRANCH  10  11
ATOM     11  C   UNL d   1     -40.984  14.161  20.310  0.00  0.00     0.099 C 
BRANCH  11  12
ATOM     12  C   UNL d   1     -41.016  14.146  21.135  0.00  0.00     0.286 C 
ATOM     13  N   UNL d   1     -41.633  13.752  21.517  0.00  0.00    -0.200 NA
ATOM     14  O   UNL d   1     -40.431  14.525  21.577  0.00  0.00    -0.265 OA
BRANCH  13  15
ATOM     15  C   UNL d   1     -42.218  13.374  21.074  0.00  0.00     0.171 C 
BRANCH  15  16
ATOM     16  C   UNL d   1     -42.824  12.964  21.457  0.00  0.00     0.320 C 
ATOM     17  O   UNL d   1     -42.683  12.209  21.761  0.00  0.00    -0.257 OA
BRANCH  16  18
ATOM     18  O   UNL d   1     -43.570  13.308  21.535  0.00  0.00    -0.270 OA
BRANCH  18  19
ATOM     19  C   UNL d   1     -44.222  12.839  21.724  0.00  0.00     0.126 C 
ATOM     20  C   UNL d   1     -44.961  13.187  21.837  0.00  0.00     0.029 C 
ENDBRANCH  18  19
ENDBRANCH  16  18
ENDBRANCH  15  16
ENDBRANCH  13  15
ENDBRANCH  11  12
ENDBRANCH  10  11
ENDBRANCH   6  10
BRANCH   1  21
ATOM     21  C   UNL d   1     -38.555  14.204  16.860  0.00  0.00     0.085 A 
ATOM     22  C   UNL d   1     -38.551  14.906  16.433  0.00  0.00     0.020 A 
ATOM     23  C   UNL d   1     -38.352  14.904  15.640  0.00  0.00     0.013 A 
ATOM     24  C   UNL d   1     -38.152  14.196  15.261  0.00  0.00     0.058 A 
ATOM     25  C   UNL d   1     -38.159  13.488  15.705  0.00  0.00     0.013 A 
ATOM     26 CL   UNL d   1     -37.949  14.189  14.456  0.00  0.00    -0.082 Cl
ATOM     27  C   UNL d   1     -38.359  13.499  16.495  0.00  0.00     0.020 A 
ENDBRANCH   1  21
TORSDOF 8
ENDMDL
MODEL 3
REMARK VINA RESULT:      -3.8      7.438      9.301
REMARK  8 active torsions:
REMARK  status: ('A' for Active; 'I' for Inactive)
REMARK    1  A    between atoms: C_9  and  N_1 
REMARK    2  A    between atoms: S_10  and  C_6 
REMARK    3  A    between atoms: C_19  and  S_10 
REMARK    4  A    between atoms: C_12  and  C_19 
REMARK       I    between atoms: N_14  and  C_12 
REMARK    5  A    between atoms: C_13  and  C_20 
REMARK    6  A    between atoms: O_24  and  C_13 
REMARK    7  A    between atoms: C_20  and  N_14 
REMARK    8  A    between atoms: C_26  and  O_24 
ROOT
ATOM      1  N   UNL d   1     -38.944  15.073  17.551  0.00  0.00    -0.212 N 
ATOM      2  C   UNL d   1     -39.616  14.797  17.934  0.00  0.00     0.169 A 
ATOM      3  N   UNL d   1     -38.635  15.691  17.974  0.00  0.00    -0.162 NA
ATOM      4  C   UNL d   1     -39.724  15.257  18.611  0.00  0.00     0.081 A 
ATOM      5  C   UNL d   1     -39.117  15.812  18.638  0.00  0.00     0.126 A 
ATOM      6  C   UNL d   1     -40.359  15.111  19.112  0.00  0.00     0.117 A 
ATOM      7  N   UNL d   1     -40.143  14.191  17.759  0.00  0.00    -0.205 NA
ATOM      8  N   UNL d   1     -40.889  14.503  18.938  0.00  0.00    -0.217 NA
ATOM      9  C   UNL d   1     -40.781  14.043  18.261  0.00  0.00     0.201 A 
ENDROOT
BRANCH   6  10
ATOM     10  S   UNL d   1     -40.467  15.571  19.788  0.00  0.00    -0.062 SA
BRANCH  10  11
ATOM     11  C   UNL d   1     -40.234  15.287  20.516  0.00  0.00     0.099 C 
BRANCH  11  12
ATOM     12  C   UNL d   1     -40.544  15.615  21.206  0.00  0.00     0.286 C 
ATOM     13  N   UNL d   1     -40.088  15.638  21.894  0.00  0.00    -0.200 NA
ATOM     14  O   UNL d   1     -41.311  15.922  21.209  0.00  0.00    -0.265 OA
BRANCH  13  15
ATOM     15  C   UNL d   1     -39.321  15.331  21.891  0.00  0.00     0.171 C 
BRANCH  15  16
ATOM     16  C   UNL d   1     -38.932  15.187  22.605  0.00  0.00     0.320 C 
ATOM     17  O   UNL d   1     -38.868  15.787  23.169  0.00  0.00    -0.257 OA
BRANCH  16  18
ATOM     18  O   UNL d   1     -38.607  14.444  22.755  0.00  0.00    -0.270 OA
BRANCH  18  19
ATOM     19  C   UNL d   1     -38.474  14.202  23.533  0.00  0.00     0.126 C 
ATOM     20  C   UNL d   1     -38.186  13.444  23.684  0.00  0.00     0.029 C 
ENDBRANCH  18  19
ENDBRANCH  16  18
ENDBRANCH  15  16
ENDBRANCH  13  15
ENDBRANCH  11  12
ENDBRANCH  10  11
ENDBRANCH   6  10
BRANCH   1  21
ATOM     21  C   UNL d   1     -38.692  14.715  16.845  0.00  0.00     0.085 A 
ATOM     22  C   UNL d   1     -38.845  15.079  16.124  0.00  0.00     0.020 A 
ATOM     23  C   UNL d   1     -38.598  14.729  15.427  0.00  0.00     0.013 A 
ATOM     24  C   UNL d   1     -38.192  14.008  15.443  0.00  0.00     0.058 A 
ATOM     25  C   UNL d   1     -38.042  13.648  16.181  0.00  0.00     0.013 A 
ATOM     26 CL   UNL d   1     -37.940  13.650  14.738  0.00  0.00    -0.082 Cl
ATOM     27  C   UNL d   1     -38.292  14.003  16.871  0.00  0.00     0.020 A 
ENDBRANCH   1  21
TORSDOF 8
ENDMDL
MODEL 4
REMARK VINA RESULT:      -3.1      1.248      2.356
REMARK  8 active torsions:
REMARK  status: ('A' for Active; 'I' for Inactive)
REMARK    1  A    between atoms: C_9  and  N_1 
REMARK    2  A    between atoms: S_10  and  C_6 
REMARK    3  A    between atoms: C_19  and  S_10 
REMARK    4  A    between atoms: C_12  and  C_19 
REMARK       I    between atoms: N_14  and  C_12 
REMARK    5  A    between atoms: C_13  and  C_20 
REMARK    6  A    between atoms: O_24  and  C_13 
REMARK    7  A    between atoms: C_20  and  N_14 
REMARK    8  A    between atoms: C_26  and  O_24 
ROOT
ATOM      1  N   UNL d   1     -47.845  14.551  22.929  0.00  0.00    -0.212 N 
ATOM      2  C   UNL d   1     -47.598  13.877  22.529  0.00  0.00     0.169 A 
ATOM      3  N   UNL d   1     -47.198  14.927  23.237  0.00  0.00    -0.162 NA
ATOM      4  C   UNL d   1     -46.776  13.837  22.594  0.00  0.00     0.081 A 
ATOM      5  C   UNL d   1     -46.526  14.487  23.032  0.00  0.00     0.126 A 
ATOM      6  C   UNL d   1     -46.365  13.216  22.246  0.00  0.00     0.117 A 
ATOM      7  N   UNL d   1     -48.008  13.296  22.117  0.00  0.00    -0.205 NA
ATOM      8  N   UNL d   1     -46.774  12.632  21.832  0.00  0.00    -0.217 NA
ATOM      9  C   UNL d   1     -47.596  12.672  21.767  0.00  0.00     0.201 A 
ENDROOT
BRANCH   6  10
ATOM     10  S   UNL d   1     -45.543  13.177  22.311  0.00  0.00    -0.062 SA
BRANCH  10  11
ATOM     11  C   UNL d   1     -45.133  12.579  21.937  0.00  0.00     0.099 C 
BRANCH  11  12
ATOM     12  C   UNL d   1     -44.322  12.655  21.807  0.00  0.00     0.286 C 
ATOM     13  N   UNL d   1     -43.793  12.160  22.203  0.00  0.00    -0.200 NA
ATOM     14  O   UNL d   1     -44.039  13.224  21.280  0.00  0.00    -0.265 OA
BRANCH  13  15
ATOM     15  C   UNL d   1     -44.075  11.590  22.730  0.00  0.00     0.171 C 
BRANCH  15  16
ATOM     16  C   UNL d   1     -43.559  11.029  23.046  0.00  0.00     0.320 C 
ATOM     17  O   UNL d   1     -42.772  11.006  22.798  0.00  0.00    -0.257 OA
BRANCH  16  18
ATOM     18  O   UNL d   1     -43.830  10.491  23.611  0.00  0.00    -0.270 OA
BRANCH  18  19
ATOM     19  C   UNL d   1     -43.501   9.736  23.651  0.00  0.00     0.126 C 
ATOM     20  C   UNL d   1     -43.992   9.074  23.697  0.00  0.00     0.029 C 
ENDBRANCH  18  19
ENDBRANCH  16  18
ENDBRANCH  15  16
ENDBRANCH  13  15
ENDBRANCH  11  12
ENDBRANCH  10  11
ENDBRANCH   6  10
BRANCH   1  21
ATOM     21  C   UNL d   1     -48.653  14.741  22.961  0.00  0.00     0.085 A 
ATOM     22  C   UNL d   1     -49.110  14.484  23.594  0.00  0.00     0.020 A 
ATOM     23  C   UNL d   1     -49.906  14.670  23.628  0.00  0.00     0.013 A 
ATOM     24  C   UNL d   1     -50.257  15.117  23.027  0.00  0.00     0.058 A 
ATOM     25  C   UNL d   1     -49.783  15.373  22.389  0.00  0.00     0.013 A 
ATOM     26 CL   UNL d   1     -51.064  15.308  23.058  0.00  0.00    -0.082 Cl
ATOM     27  C   UNL d   1     -48.991  15.184  22.362  0.00  0.00     0.020 A 
ENDBRANCH   1  21
TORSDOF 8
ENDMDL
