MODEL 1
REMARK VINA RESULT:      -4.8      0.000      0.000
REMARK  3 active torsions:
REMARK  status: ('A' for Active; 'I' for Inactive)
REMARK       I    between atoms: N_2  and  C_1 
REMARK    1  A    between atoms: C_3  and  C_1 
REMARK    2  A    between atoms: C_8  and  N_2 
REMARK    3  A    between atoms: C_7  and  C_6 
ROOT
ATOM      1  C   UNL d   1      57.363  -0.533  31.008  0.00  0.00     0.279 C 
ATOM      2  N   UNL d   1      57.146  -0.082  31.661  0.00  0.00    -0.208 NA
ATOM      3  O   UNL d   1      57.046  -1.294  30.921  0.00  0.00    -0.265 OA
ENDROOT
BRANCH   1   4
ATOM      4  C   UNL d   1      57.890  -0.243  30.439  0.00  0.00     0.058 A 
ATOM      5  C   UNL d   1      58.645  -0.586  30.354  0.00  0.00     0.005 A 
ATOM      6  C   UNL d   1      59.144  -0.282  29.787  0.00  0.00     0.000 A 
ATOM      7  C   UNL d   1      59.901  -0.618  29.695  0.00  0.00     0.000 A 
ATOM      8  C   UNL d   1      58.913   0.353  29.300  0.00  0.00     0.000 A 
ATOM      9  C   UNL d   1      60.412  -0.309  29.115  0.00  0.00     0.000 A 
ATOM     10  C   UNL d   1      60.172   0.321  28.639  0.00  0.00     0.000 A 
ATOM     11  C   UNL d   1      59.425   0.650  28.731  0.00  0.00     0.000 A 
ATOM     12  C   UNL d   1      58.174   0.682  29.388  0.00  0.00     0.000 A 
ATOM     13  C   UNL d   1      57.650   0.386  29.962  0.00  0.00     0.005 A 
ENDBRANCH   1   4
BRANCH   2  14
ATOM     14  C   UNL d   1      56.619  -0.376  32.229  0.00  0.00     0.085 A 
ATOM     15  C   UNL d   1      56.305   0.111  32.792  0.00  0.00     0.022 A 
ATOM     16  C   UNL d   1      55.783  -0.184  33.353  0.00  0.00     0.041 A 
ATOM     17  C   UNL d   1      55.558  -0.975  33.368  0.00  0.00     0.003 A 
ATOM     18  C   UNL d   1      55.872  -1.483  32.798  0.00  0.00     0.002 A 
ATOM     19  C   UNL d   1      56.403  -1.209  32.218  0.00  0.00     0.019 A 
BRANCH  16  20
ATOM     20  C   UNL d   1      55.465   0.343  33.934  0.00  0.00     0.196 C 
ATOM     21  O   UNL d   1      54.664   0.508  33.945  0.00  0.00    -0.287 OA
ATOM     22  C   UNL d   1      55.974   0.682  34.482  0.00  0.00     0.045 C 
ENDBRANCH  16  20
ENDBRANCH   2  14
TORSDOF 3
ENDMDL
MODEL 2
REMARK VINA RESULT:      -4.8      1.225      4.957
REMARK  3 active torsions:
REMARK  status: ('A' for Active; 'I' for Inactive)
REMARK       I    between atoms: N_2  and  C_1 
REMARK    1  A    between atoms: C_3  and  C_1 
REMARK    2  A    between atoms: C_8  and  N_2 
REMARK    3  A    between atoms: C_7  and  C_6 
ROOT
ATOM      1  C   UNL d   1      57.702  -0.107  31.020  0.00  0.00     0.279 C 
ATOM      2  N   UNL d   1      58.184   0.460  30.669  0.00  0.00    -0.208 NA
ATOM      3  O   UNL d   1      57.587  -0.832  30.634  0.00  0.00    -0.265 OA
ENDROOT
BRANCH   1   4
ATOM      4  C   UNL d   1      57.332   0.031  31.748  0.00  0.00     0.058 A 
ATOM      5  C   UNL d   1      56.607  -0.340  31.925  0.00  0.00     0.005 A 
ATOM      6  C   UNL d   1      56.264  -0.188  32.648  0.00  0.00     0.000 A 
ATOM      7  C   UNL d   1      55.539  -0.554  32.834  0.00  0.00     0.000 A 
ATOM      8  C   UNL d   1      56.621   0.323  33.200  0.00  0.00     0.000 A 
ATOM      9  C   UNL d   1      55.187  -0.399  33.572  0.00  0.00     0.000 A 
ATOM     10  C   UNL d   1      55.550   0.109  34.111  0.00  0.00     0.000 A 
ATOM     11  C   UNL d   1      56.265   0.469  33.925  0.00  0.00     0.000 A 
ATOM     12  C   UNL d   1      57.329   0.682  33.019  0.00  0.00     0.000 A 
ATOM     13  C   UNL d   1      57.696   0.539  32.286  0.00  0.00     0.005 A 
ENDBRANCH   1   4
BRANCH   2  14
ATOM     14  C   UNL d   1      58.552   0.319  29.940  0.00  0.00     0.085 A 
ATOM     15  C   UNL d   1      59.307   0.031  29.908  0.00  0.00     0.022 A 
ATOM     16  C   UNL d   1      59.669  -0.108  29.184  0.00  0.00     0.041 A 
ATOM     17  C   UNL d   1      59.287   0.036  28.470  0.00  0.00     0.003 A 
ATOM     18  C   UNL d   1      58.516   0.330  28.489  0.00  0.00     0.002 A 
ATOM     19  C   UNL d   1      58.127   0.479  29.210  0.00  0.00     0.019 A 
BRANCH  16  20
ATOM     20  C   UNL d   1      60.459  -0.408  29.172  0.00  0.00     0.196 C 
ATOM     21  O   UNL d   1      61.073   0.038  29.476  0.00  0.00    -0.287 OA
ATOM     22  C   UNL d   1      60.596  -1.152  28.853  0.00  0.00     0.045 C 
ENDBRANCH  16  20
ENDBRANCH   2  14
TORSDOF 3
ENDMDL
MODEL 3
REMARK VINA RESULT:      -2.2      1.133      4.944
REMARK  3 active torsions:
REMARK  status: ('A' for Active; 'I' for Inactive)
REMARK       I    between atoms: N_2  and  C_1 
REMARK    1  A    between atoms: C_3  and  C_1 
REMARK    2  A    between atoms: C_8  and  N_2 
REMARK    3  A    between atoms: C_7  and  C_6 
ROOT
ATOM      1  C   UNL d   1      57.211  -0.526  32.173  0.00  0.00     0.279 C 
ATOM      2  N   UNL d   1      57.215  -0.175  31.428  0.00  0.00    -0.208 NA
ATOM      3  O   UNL d   1      57.686  -1.192  32.306  0.00  0.00    -0.265 OA
ENDROOT
BRANCH   1   4
ATOM      4  C   UNL d   1      56.744  -0.228  32.788  0.00  0.00     0.058 A 
ATOM      5  C   UNL d   1      55.941  -0.444  32.846  0.00  0.00     0.005 A 
ATOM      6  C   UNL d   1      55.503  -0.138  33.461  0.00  0.00     0.000 A 
ATOM      7  C   UNL d   1      54.700  -0.347  33.527  0.00  0.00     0.000 A 
ATOM      8  C   UNL d   1      55.842   0.378  34.020  0.00  0.00     0.000 A 
ATOM      9  C   UNL d   1      54.251  -0.035  34.154  0.00  0.00     0.000 A 
ATOM     10  C   UNL d   1      54.598   0.475  34.703  0.00  0.00     0.000 A 
ATOM     11  C   UNL d   1      55.390   0.681  34.635  0.00  0.00     0.000 A 
ATOM     12  C   UNL d   1      56.627   0.584  33.957  0.00  0.00     0.000 A 
ATOM     13  C   UNL d   1      57.091   0.282  33.336  0.00  0.00     0.005 A 
ENDBRANCH   1   4
BRANCH   2  14
ATOM     14  C   UNL d   1      57.684  -0.476  30.815  0.00  0.00     0.085 A 
ATOM     15  C   UNL d   1      58.265  -0.025  30.480  0.00  0.00     0.022 A 
ATOM     16  C   UNL d   1      58.727  -0.327  29.872  0.00  0.00     0.041 A 
ATOM     17  C   UNL d   1      58.623  -1.089  29.580  0.00  0.00     0.003 A 
ATOM     18  C   UNL d   1      58.032  -1.559  29.913  0.00  0.00     0.002 A 
ATOM     19  C   UNL d   1      57.550  -1.277  30.531  0.00  0.00     0.019 A 
BRANCH  16  20
ATOM     20  C   UNL d   1      59.331   0.160  29.536  0.00  0.00     0.196 C 
ATOM     21  O   UNL d   1      60.099   0.115  29.813  0.00  0.00    -0.287 OA
ATOM     22  C   UNL d   1      59.132   0.677  28.929  0.00  0.00     0.045 C 
ENDBRANCH  16  20
ENDBRANCH   2  14
TORSDOF 3
ENDMDL
