MODEL 1
REMARK VINA RESULT:      -2.9      0.000      0.000
REMARK  4 active torsions:
REMARK  status: ('A' for Active; 'I' for Inactive)
REMARK       I    between atoms: C_2  and  N_1 
REMARK       I    between atoms: C_3  and  N_1 
REMARK    1  A    between atoms: C_4  and  C_2 
REMARK       I    between atoms: N_7  and  C_3 
REMARK    2  A    between atoms: C_15  and  N_7 
REMARK    3  A    between atoms: N_11  and  C_16 
REMARK    4  A    between atoms: C_16  and  C_15 
ROOT
ATOM      1  N   UNL d   1      32.736  19.625 -22.127  0.00  0.00    -0.152 NA
ATOM      2  C   UNL d   1      32.924  19.394 -22.900  0.00  0.00     0.283 C 
ATOM      3  C   UNL d   1      32.860  20.405 -21.883  0.00  0.00     0.371 C 
ATOM      4  O   UNL d   1      33.239  19.947 -23.431  0.00  0.00    -0.265 OA
ATOM      5  O   UNL d   1      33.172  20.960 -22.402  0.00  0.00    -0.242 OA
ATOM      6  N   UNL d   1      32.670  20.636 -21.106  0.00  0.00    -0.188 NA
ENDROOT
BRANCH   2   7
ATOM      7  C   UNL d   1      32.801  18.617 -23.144  0.00  0.00     0.058 A 
ATOM      8  C   UNL d   1      32.249  18.457 -23.742  0.00  0.00     0.006 A 
ATOM      9  C   UNL d   1      32.120  17.685 -23.992  0.00  0.00     0.012 A 
ATOM     10  C   UNL d   1      32.545  17.058 -23.644  0.00  0.00     0.058 A 
ATOM     11  C   UNL d   1      33.100  17.226 -23.042  0.00  0.00     0.012 A 
ATOM     12 CL   UNL d   1      32.429  16.275 -23.882  0.00  0.00    -0.082 Cl
ATOM     13  C   UNL d   1      33.225  18.006 -22.796  0.00  0.00     0.006 A 
ENDBRANCH   2   7
BRANCH   6  14
ATOM     14  C   UNL d   1      32.858  21.428 -21.051  0.00  0.00     0.123 C 
BRANCH  14  15
ATOM     15  C   UNL d   1      32.797  21.817 -20.329  0.00  0.00     0.101 C 
BRANCH  15  16
ATOM     16  N   UNL d   1      32.707  22.631 -20.307  0.00  0.00    -0.299 N 
ATOM     17  C   UNL d   1      33.240  23.085 -19.887  0.00  0.00     0.100 C 
ATOM     18  C   UNL d   1      32.169  23.162 -20.628  0.00  0.00     0.100 C 
ENDBRANCH  15  16
ENDBRANCH  14  15
ENDBRANCH   6  14
TORSDOF 4
ENDMDL
MODEL 2
REMARK VINA RESULT:      -2.5      2.171      4.902
REMARK  4 active torsions:
REMARK  status: ('A' for Active; 'I' for Inactive)
REMARK       I    between atoms: C_2  and  N_1 
REMARK       I    between atoms: C_3  and  N_1 
REMARK    1  A    between atoms: C_4  and  C_2 
REMARK       I    between atoms: N_7  and  C_3 
REMARK    2  A    between atoms: C_15  and  N_7 
REMARK    3  A    between atoms: N_11  and  C_16 
REMARK    4  A    between atoms: C_16  and  C_15 
ROOT
ATOM      1  N   UNL d   1      32.891  20.528 -21.612  0.00  0.00    -0.152 NA
ATOM      2  C   UNL d   1      32.999  21.336 -21.761  0.00  0.00     0.283 C 
ATOM      3  C   UNL d   1      33.006  19.974 -22.216  0.00  0.00     0.371 C 
ATOM      4  O   UNL d   1      33.225  21.590 -22.518  0.00  0.00    -0.265 OA
ATOM      5  O   UNL d   1      33.229  20.216 -22.968  0.00  0.00    -0.242 OA
ATOM      6  N   UNL d   1      32.896  19.163 -22.065  0.00  0.00    -0.188 NA
ENDROOT
BRANCH   2   7
ATOM      7  C   UNL d   1      32.885  21.889 -21.162  0.00  0.00     0.058 A 
ATOM      8  C   UNL d   1      32.435  22.570 -21.311  0.00  0.00     0.006 A 
ATOM      9  C   UNL d   1      32.316  23.127 -20.718  0.00  0.00     0.012 A 
ATOM     10  C   UNL d   1      32.648  23.008 -19.963  0.00  0.00     0.058 A 
ATOM     11  C   UNL d   1      33.100  22.320 -19.819  0.00  0.00     0.012 A 
ATOM     12 CL   UNL d   1      32.540  23.557 -19.354  0.00  0.00    -0.082 Cl
ATOM     13  C   UNL d   1      33.216  21.764 -20.421  0.00  0.00     0.006 A 
ENDBRANCH   2   7
BRANCH   6  14
ATOM     14  C   UNL d   1      33.053  18.777 -22.767  0.00  0.00     0.123 C 
BRANCH  14  15
ATOM     15  C   UNL d   1      33.165  17.962 -22.773  0.00  0.00     0.101 C 
BRANCH  15  16
ATOM     16  N   UNL d   1      32.897  17.516 -23.406  0.00  0.00    -0.299 N 
ATOM     17  C   UNL d   1      33.241  16.791 -23.562  0.00  0.00     0.100 C 
ATOM     18  C   UNL d   1      32.318  17.614 -23.979  0.00  0.00     0.100 C 
ENDBRANCH  15  16
ENDBRANCH  14  15
ENDBRANCH   6  14
TORSDOF 4
ENDMDL
MODEL 3
REMARK VINA RESULT:      -2.2      2.164      4.945
REMARK  4 active torsions:
REMARK  status: ('A' for Active; 'I' for Inactive)
REMARK       I    between atoms: C_2  and  N_1 
REMARK       I    between atoms: C_3  and  N_1 
REMARK    1  A    between atoms: C_4  and  C_2 
REMARK       I    between atoms: N_7  and  C_3 
REMARK    2  A    between atoms: C_15  and  N_7 
REMARK    3  A    between atoms: N_11  and  C_16 
REMARK    4  A    between atoms: C_16  and  C_15 
ROOT
ATOM      1  N   UNL d   1      32.687  18.978 -22.617  0.00  0.00    -0.152 NA
ATOM      2  C   UNL d   1      32.994  19.733 -22.765  0.00  0.00     0.283 C 
ATOM      3  C   UNL d   1      32.626  18.425 -23.230  0.00  0.00     0.371 C 
ATOM      4  O   UNL d   1      33.241  19.936 -23.530  0.00  0.00    -0.265 OA
ATOM      5  O   UNL d   1      32.868  18.617 -23.990  0.00  0.00    -0.242 OA
ATOM      6  N   UNL d   1      32.317  17.667 -23.080  0.00  0.00    -0.188 NA
ENDROOT
BRANCH   2   7
ATOM      7  C   UNL d   1      33.055  20.284 -22.156  0.00  0.00     0.058 A 
ATOM      8  C   UNL d   1      33.106  20.025 -21.370  0.00  0.00     0.006 A 
ATOM      9  C   UNL d   1      33.168  20.569 -20.757  0.00  0.00     0.012 A 
ATOM     10  C   UNL d   1      33.179  21.385 -20.924  0.00  0.00     0.058 A 
ATOM     11  C   UNL d   1      33.127  21.640 -21.718  0.00  0.00     0.012 A 
ATOM     12 CL   UNL d   1      33.240  21.947 -20.321  0.00  0.00    -0.082 Cl
ATOM     13  C   UNL d   1      33.065  21.087 -22.330  0.00  0.00     0.006 A 
ENDBRANCH   2   7
BRANCH   6  14
ATOM     14  C   UNL d   1      32.335  17.269 -23.792  0.00  0.00     0.123 C 
BRANCH  14  15
ATOM     15  C   UNL d   1      32.315  16.446 -23.805  0.00  0.00     0.101 C 
BRANCH  15  16
ATOM     16  N   UNL d   1      31.870  16.056 -24.370  0.00  0.00    -0.299 N 
ATOM     17  C   UNL d   1      32.245  15.691 -24.999  0.00  0.00     0.100 C 
ATOM     18  C   UNL d   1      31.067  15.921 -24.484  0.00  0.00     0.100 C 
ENDBRANCH  15  16
ENDBRANCH  14  15
ENDBRANCH   6  14
TORSDOF 4
ENDMDL
MODEL 4
REMARK VINA RESULT:      -1.9      4.145      5.594
REMARK  4 active torsions:
REMARK  status: ('A' for Active; 'I' for Inactive)
REMARK       I    between atoms: C_2  and  N_1 
REMARK       I    between atoms: C_3  and  N_1 
REMARK    1  A    between atoms: C_4  and  C_2 
REMARK       I    between atoms: N_7  and  C_3 
REMARK    2  A    between atoms: C_15  and  N_7 
REMARK    3  A    between atoms: N_11  and  C_16 
REMARK    4  A    between atoms: C_16  and  C_15 
ROOT
ATOM      1  N   UNL d   1      32.834  23.237 -20.912  0.00  0.00    -0.152 NA
ATOM      2  C   UNL d   1      32.700  22.692 -20.302  0.00  0.00     0.283 C 
ATOM      3  C   UNL d   1      32.869  22.983 -21.698  0.00  0.00     0.371 C 
ATOM      4  O   UNL d   1      32.600  21.888 -20.481  0.00  0.00    -0.265 OA
ATOM      5  O   UNL d   1      32.772  22.189 -21.884  0.00  0.00    -0.242 OA
ATOM      6  N   UNL d   1      33.004  23.531 -22.310  0.00  0.00    -0.188 NA
ENDROOT
BRANCH   2   7
ATOM      7  C   UNL d   1      32.665  22.944 -19.519  0.00  0.00     0.058 A 
ATOM      8  C   UNL d   1      33.241  22.690 -18.979  0.00  0.00     0.006 A 
ATOM      9  C   UNL d   1      33.213  22.936 -18.195  0.00  0.00     0.012 A 
ATOM     10  C   UNL d   1      32.603  23.444 -17.940  0.00  0.00     0.058 A 
ATOM     11  C   UNL d   1      32.025  23.696 -18.489  0.00  0.00     0.012 A 
ATOM     12 CL   UNL d   1      32.558  23.702 -17.156  0.00  0.00    -0.082 Cl
ATOM     13  C   UNL d   1      32.060  23.444 -19.276  0.00  0.00     0.006 A 
ENDBRANCH   2   7
BRANCH   6  14
ATOM     14  C   UNL d   1      33.005  23.103 -23.004  0.00  0.00     0.123 C 
BRANCH  14  15
ATOM     15  C   UNL d   1      33.141  23.481 -23.721  0.00  0.00     0.101 C 
BRANCH  15  16
ATOM     16  N   UNL d   1      32.888  23.138 -24.421  0.00  0.00    -0.299 N 
ATOM     17  C   UNL d   1      32.191  23.391 -24.766  0.00  0.00     0.100 C 
ATOM     18  C   UNL d   1      33.178  22.550 -24.915  0.00  0.00     0.100 C 
ENDBRANCH  15  16
ENDBRANCH  14  15
ENDBRANCH   6  14
TORSDOF 4
ENDMDL
MODEL 5
REMARK VINA RESULT:      -1.7      2.755      5.546
REMARK  4 active torsions:
REMARK  status: ('A' for Active; 'I' for Inactive)
REMARK       I    between atoms: C_2  and  N_1 
REMARK       I    between atoms: C_3  and  N_1 
REMARK    1  A    between atoms: C_4  and  C_2 
REMARK       I    between atoms: N_7  and  C_3 
REMARK    2  A    between atoms: C_15  and  N_7 
REMARK    3  A    between atoms: N_11  and  C_16 
REMARK    4  A    between atoms: C_16  and  C_15 
ROOT
ATOM      1  N   UNL d   1      32.862  21.632 -20.038  0.00  0.00    -0.152 NA
ATOM      2  C   UNL d   1      32.882  22.444 -19.876  0.00  0.00     0.283 C 
ATOM      3  C   UNL d   1      32.867  21.362 -20.820  0.00  0.00     0.371 C 
ATOM      4  O   UNL d   1      32.908  22.990 -20.501  0.00  0.00    -0.265 OA
ATOM      5  O   UNL d   1      32.892  21.895 -21.445  0.00  0.00    -0.242 OA
ATOM      6  N   UNL d   1      32.847  20.546 -20.981  0.00  0.00    -0.188 NA
ENDROOT
BRANCH   2   7
ATOM      7  C   UNL d   1      32.877  22.715 -19.098  0.00  0.00     0.058 A 
ATOM      8  C   UNL d   1      33.233  22.260 -18.503  0.00  0.00     0.006 A 
ATOM      9  C   UNL d   1      33.232  22.523 -17.724  0.00  0.00     0.012 A 
ATOM     10  C   UNL d   1      32.872  23.249 -17.530  0.00  0.00     0.058 A 
ATOM     11  C   UNL d   1      32.515  23.702 -18.135  0.00  0.00     0.012 A 
ATOM     12 CL   UNL d   1      32.861  23.530 -16.753  0.00  0.00    -0.082 Cl
ATOM     13  C   UNL d   1      32.520  23.432 -18.917  0.00  0.00     0.006 A 
ENDBRANCH   2   7
BRANCH   6  14
ATOM     14  C   UNL d   1      32.859  20.473 -21.794  0.00  0.00     0.123 C 
BRANCH  14  15
ATOM     15  C   UNL d   1      33.241  19.835 -22.145  0.00  0.00     0.101 C 
BRANCH  15  16
ATOM     16  N   UNL d   1      32.840  19.359 -22.677  0.00  0.00    -0.299 N 
ATOM     17  C   UNL d   1      32.755  18.561 -22.522  0.00  0.00     0.100 C 
ATOM     18  C   UNL d   1      32.463  19.485 -23.397  0.00  0.00     0.100 C 
ENDBRANCH  15  16
ENDBRANCH  14  15
ENDBRANCH   6  14
TORSDOF 4
ENDMDL
MODEL 6
REMARK VINA RESULT:      -1.5      1.575      2.412
REMARK  4 active torsions:
REMARK  status: ('A' for Active; 'I' for Inactive)
REMARK       I    between atoms: C_2  and  N_1 
REMARK       I    between atoms: C_3  and  N_1 
REMARK    1  A    between atoms: C_4  and  C_2 
REMARK       I    between atoms: N_7  and  C_3 
REMARK    2  A    between atoms: C_15  and  N_7 
REMARK    3  A    between atoms: N_11  and  C_16 
REMARK    4  A    between atoms: C_16  and  C_15 
ROOT
ATOM      1  N   UNL d   1      32.064  18.281 -23.386  0.00  0.00    -0.152 NA
ATOM      2  C   UNL d   1      32.155  17.458 -23.412  0.00  0.00     0.283 C 
ATOM      3  C   UNL d   1      32.606  18.748 -22.971  0.00  0.00     0.371 C 
ATOM      4  O   UNL d   1      32.793  17.101 -23.020  0.00  0.00    -0.265 OA
ATOM      5  O   UNL d   1      33.241  18.403 -22.581  0.00  0.00    -0.242 OA
ATOM      6  N   UNL d   1      32.514  19.575 -22.946  0.00  0.00    -0.188 NA
ENDROOT
BRANCH   2   7
ATOM      7  C   UNL d   1      31.616  16.992 -23.824  0.00  0.00     0.058 A 
ATOM      8  C   UNL d   1      31.497  16.203 -23.598  0.00  0.00     0.006 A 
ATOM      9  C   UNL d   1      30.961  15.731 -24.004  0.00  0.00     0.012 A 
ATOM     10  C   UNL d   1      30.533  16.045 -24.647  0.00  0.00     0.058 A 
ATOM     11  C   UNL d   1      30.657  16.841 -24.870  0.00  0.00     0.012 A 
ATOM     12 CL   UNL d   1      29.990  15.586 -25.068  0.00  0.00    -0.082 Cl
ATOM     13  C   UNL d   1      31.199  17.310 -24.456  0.00  0.00     0.006 A 
ENDBRANCH   2   7
BRANCH   6  14
ATOM     14  C   UNL d   1      33.133  19.861 -22.499  0.00  0.00     0.123 C 
BRANCH  14  15
ATOM     15  C   UNL d   1      33.241  20.672 -22.414  0.00  0.00     0.101 C 
BRANCH  15  16
ATOM     16  N   UNL d   1      33.173  21.020 -21.676  0.00  0.00    -0.299 N 
ATOM     17  C   UNL d   1      33.097  21.832 -21.618  0.00  0.00     0.100 C 
ATOM     18  C   UNL d   1      33.160  20.741 -20.903  0.00  0.00     0.100 C 
ENDBRANCH  15  16
ENDBRANCH  14  15
ENDBRANCH   6  14
TORSDOF 4
ENDMDL
MODEL 7
REMARK VINA RESULT:      -0.8      2.066      3.137
REMARK  4 active torsions:
REMARK  status: ('A' for Active; 'I' for Inactive)
REMARK       I    between atoms: C_2  and  N_1 
REMARK       I    between atoms: C_3  and  N_1 
REMARK    1  A    between atoms: C_4  and  C_2 
REMARK       I    between atoms: N_7  and  C_3 
REMARK    2  A    between atoms: C_15  and  N_7 
REMARK    3  A    between atoms: N_11  and  C_16 
REMARK    4  A    between atoms: C_16  and  C_15 
ROOT
ATOM      1  N   UNL d   1      32.787  21.941 -20.546  0.00  0.00    -0.152 NA
ATOM      2  C   UNL d   1      33.023  22.036 -21.335  0.00  0.00     0.283 C 
ATOM      3  C   UNL d   1      32.761  22.592 -20.037  0.00  0.00     0.371 C 
ATOM      4  O   UNL d   1      33.234  22.787 -21.615  0.00  0.00    -0.265 OA
ATOM      5  O   UNL d   1      32.969  23.340 -20.306  0.00  0.00    -0.242 OA
ATOM      6  N   UNL d   1      32.524  22.496 -19.246  0.00  0.00    -0.188 NA
ENDROOT
BRANCH   2   7
ATOM      7  C   UNL d   1      33.049  21.388 -21.843  0.00  0.00     0.058 A 
ATOM      8  C   UNL d   1      33.038  20.619 -21.531  0.00  0.00     0.006 A 
ATOM      9  C   UNL d   1      33.063  19.968 -22.031  0.00  0.00     0.012 A 
ATOM     10  C   UNL d   1      33.101  20.078 -22.856  0.00  0.00     0.058 A 
ATOM     11  C   UNL d   1      33.111  20.855 -23.165  0.00  0.00     0.012 A 
ATOM     12 CL   UNL d   1      33.127  19.435 -23.375  0.00  0.00    -0.082 Cl
ATOM     13  C   UNL d   1      33.085  21.506 -22.655  0.00  0.00     0.006 A 
ENDBRANCH   2   7
BRANCH   6  14
ATOM     14  C   UNL d   1      32.561  23.236 -18.904  0.00  0.00     0.123 C 
BRANCH  14  15
ATOM     15  C   UNL d   1      32.132  23.396 -18.221  0.00  0.00     0.101 C 
BRANCH  15  16
ATOM     16  N   UNL d   1      32.510  23.416 -17.494  0.00  0.00    -0.299 N 
ATOM     17  C   UNL d   1      32.142  23.095 -16.839  0.00  0.00     0.100 C 
ATOM     18  C   UNL d   1      33.231  23.702 -17.225  0.00  0.00     0.100 C 
ENDBRANCH  15  16
ENDBRANCH  14  15
ENDBRANCH   6  14
TORSDOF 4
ENDMDL
MODEL 8
REMARK VINA RESULT:      -0.8      3.071      4.376
REMARK  4 active torsions:
REMARK  status: ('A' for Active; 'I' for Inactive)
REMARK       I    between atoms: C_2  and  N_1 
REMARK       I    between atoms: C_3  and  N_1 
REMARK    1  A    between atoms: C_4  and  C_2 
REMARK       I    between atoms: N_7  and  C_3 
REMARK    2  A    between atoms: C_15  and  N_7 
REMARK    3  A    between atoms: N_11  and  C_16 
REMARK    4  A    between atoms: C_16  and  C_15 
ROOT
ATOM      1  N   UNL d   1      30.819  17.090 -23.993  0.00  0.00    -0.152 NA
ATOM      2  C   UNL d   1      30.598  16.292 -24.034  0.00  0.00     0.283 C 
ATOM      3  C   UNL d   1      31.613  17.298 -23.890  0.00  0.00     0.371 C 
ATOM      4  O   UNL d   1      31.175  15.700 -23.970  0.00  0.00    -0.265 OA
ATOM      5  O   UNL d   1      32.191  16.718 -23.826  0.00  0.00    -0.242 OA
ATOM      6  N   UNL d   1      31.834  18.099 -23.850  0.00  0.00    -0.188 NA
ENDROOT
BRANCH   2   7
ATOM      7  C   UNL d   1      29.808  16.084 -24.136  0.00  0.00     0.058 A 
ATOM      8  C   UNL d   1      29.294  16.087 -23.485  0.00  0.00     0.006 A 
ATOM      9  C   UNL d   1      28.504  15.880 -23.579  0.00  0.00     0.012 A 
ATOM     10  C   UNL d   1      28.217  15.665 -24.332  0.00  0.00     0.058 A 
ATOM     11  C   UNL d   1      28.740  15.664 -24.984  0.00  0.00     0.012 A 
ATOM     12 CL   UNL d   1      27.426  15.454 -24.446  0.00  0.00    -0.082 Cl
ATOM     13  C   UNL d   1      29.534  15.874 -24.881  0.00  0.00     0.006 A 
ENDBRANCH   2   7
BRANCH   6  14
ATOM     14  C   UNL d   1      32.643  18.108 -23.748  0.00  0.00     0.123 C 
BRANCH  14  15
ATOM     15  C   UNL d   1      33.056  18.818 -23.793  0.00  0.00     0.101 C 
BRANCH  15  16
ATOM     16  N   UNL d   1      33.166  19.273 -23.120  0.00  0.00    -0.299 N 
ATOM     17  C   UNL d   1      33.241  20.084 -23.188  0.00  0.00     0.100 C 
ATOM     18  C   UNL d   1      33.226  19.112 -22.317  0.00  0.00     0.100 C 
ENDBRANCH  15  16
ENDBRANCH  14  15
ENDBRANCH   6  14
TORSDOF 4
ENDMDL
