MODEL 1
REMARK VINA RESULT:      53.6      0.000      0.000
REMARK  3 active torsions:
REMARK  status: ('A' for Active; 'I' for Inactive)
REMARK    1  A    between atoms: N_5  and  C_1 
REMARK    2  A    between atoms: C_2  and  C_6 
REMARK       I    between atoms: C_11  and  N_5 
REMARK    3  A    between atoms: C_9  and  C_11 
ROOT
ATOM      1  C   UNL d   1      13.619  14.426  -4.063  0.00  0.00     0.053 A 
ATOM      2  S   UNL d   1      13.739  13.818  -4.613  0.00  0.00    -0.080 SA
ATOM      3  C   UNL d   1      13.211  13.206  -4.429  0.00  0.00     0.087 A 
ATOM      4  C   UNL d   1      13.023  14.192  -3.544  0.00  0.00     0.009 A 
ATOM      5  C   UNL d   1      12.769  13.436  -3.769  0.00  0.00     0.012 A 
ENDROOT
BRANCH   3   6
ATOM      6  C   UNL d   1      13.141  12.490  -4.837  0.00  0.00     0.287 C 
ATOM      7  N   UNL d   1      13.244  11.779  -4.433  0.00  0.00    -0.182 NA
ATOM      8  O   UNL d   1      12.969  12.489  -5.646  0.00  0.00    -0.265 OA
BRANCH   7   9
ATOM      9  C   UNL d   1      13.416  11.780  -3.620  0.00  0.00     0.197 A 
ATOM     10  N   UNL d   1      12.862  11.782  -3.009  0.00  0.00    -0.221 NA
ATOM     11  C   UNL d   1      13.275  11.782  -2.301  0.00  0.00     0.090 A 
ATOM     12  C   UNL d   1      13.015  11.784  -1.523  0.00  0.00     0.020 A 
ATOM     13  C   UNL d   1      14.074  11.781  -2.484  0.00  0.00     0.050 A 
ATOM     14  C   UNL d   1      13.568  11.784  -0.922  0.00  0.00     0.002 A 
ATOM     15  C   UNL d   1      14.370  11.782  -1.084  0.00  0.00     0.001 A 
ATOM     16  C   UNL d   1      14.641  11.781  -1.863  0.00  0.00     0.008 A 
ATOM     17  C   UNL d   1      14.924  11.782  -0.471  0.00  0.00     0.000 C 
ATOM     18  S   UNL d   1      14.166  11.779  -3.295  0.00  0.00    -0.047 SA
ENDBRANCH   7   9
ENDBRANCH   3   6
BRANCH   1  19
ATOM     19  C   UNL d   1      14.028  15.144  -4.040  0.00  0.00     0.117 A 
ATOM     20  N   UNL d   1      14.281  15.530  -3.355  0.00  0.00    -0.238 NA
ATOM     21  C   UNL d   1      14.665  16.227  -3.591  0.00  0.00     0.088 A 
ATOM     22  C   UNL d   1      15.028  16.827  -3.158  0.00  0.00     0.020 A 
ATOM     23  C   UNL d   1      14.646  16.264  -4.416  0.00  0.00     0.049 A 
ATOM     24  C   UNL d   1      15.369  17.463  -3.551  0.00  0.00     0.002 A 
ATOM     25  C   UNL d   1      15.350  17.500  -4.377  0.00  0.00     0.001 A 
ATOM     26  C   UNL d   1      14.989  16.903  -4.809  0.00  0.00     0.008 A 
ATOM     27  S   UNL d   1      14.249  15.591  -4.692  0.00  0.00    -0.066 SA
ENDBRANCH   1  19
TORSDOF 3
ENDMDL
MODEL 2
REMARK VINA RESULT:      55.9      1.210      4.010
REMARK  3 active torsions:
REMARK  status: ('A' for Active; 'I' for Inactive)
REMARK    1  A    between atoms: N_5  and  C_1 
REMARK    2  A    between atoms: C_2  and  C_6 
REMARK       I    between atoms: C_11  and  N_5 
REMARK    3  A    between atoms: C_9  and  C_11 
ROOT
ATOM      1  C   UNL d   1      13.533  12.026  -3.478  0.00  0.00     0.053 A 
ATOM      2  S   UNL d   1      13.973  12.282  -4.131  0.00  0.00    -0.080 SA
ATOM      3  C   UNL d   1      13.498  12.193  -4.805  0.00  0.00     0.087 A 
ATOM      4  C   UNL d   1      12.793  11.781  -3.746  0.00  0.00     0.009 A 
ATOM      5  C   UNL d   1      12.769  11.883  -4.567  0.00  0.00     0.012 A 
ENDROOT
BRANCH   3   6
ATOM      6  C   UNL d   1      13.719  12.381  -5.580  0.00  0.00     0.287 C 
ATOM      7  N   UNL d   1      13.865  13.166  -5.782  0.00  0.00    -0.182 NA
ATOM      8  O   UNL d   1      13.791  11.784  -6.146  0.00  0.00    -0.265 OA
BRANCH   7   9
ATOM      9  C   UNL d   1      13.792  13.766  -5.212  0.00  0.00     0.197 A 
ATOM     10  N   UNL d   1      13.087  14.022  -4.867  0.00  0.00    -0.221 NA
ATOM     11  C   UNL d   1      13.273  14.620  -4.338  0.00  0.00     0.090 A 
ATOM     12  C   UNL d   1      12.800  15.073  -3.845  0.00  0.00     0.020 A 
ATOM     13  C   UNL d   1      14.086  14.725  -4.364  0.00  0.00     0.050 A 
ATOM     14  C   UNL d   1      13.150  15.638  -3.371  0.00  0.00     0.002 A 
ATOM     15  C   UNL d   1      13.959  15.758  -3.382  0.00  0.00     0.001 A 
ATOM     16  C   UNL d   1      14.444  15.308  -3.875  0.00  0.00     0.008 A 
ATOM     17  C   UNL d   1      14.307  16.332  -2.900  0.00  0.00     0.000 C 
ATOM     18  S   UNL d   1      14.410  14.202  -4.900  0.00  0.00    -0.047 SA
ENDBRANCH   7   9
ENDBRANCH   3   6
BRANCH   1  19
ATOM     19  C   UNL d   1      13.792  12.018  -2.693  0.00  0.00     0.117 A 
ATOM     20  N   UNL d   1      14.559  12.189  -2.441  0.00  0.00    -0.238 NA
ATOM     21  C   UNL d   1      14.571  12.114  -1.614  0.00  0.00     0.088 A 
ATOM     22  C   UNL d   1      15.173  12.215  -1.061  0.00  0.00     0.020 A 
ATOM     23  C   UNL d   1      13.812  11.898  -1.365  0.00  0.00     0.049 A 
ATOM     24  C   UNL d   1      15.018  12.101  -0.263  0.00  0.00     0.002 A 
ATOM     25  C   UNL d   1      14.259  11.885  -0.014  0.00  0.00     0.001 A 
ATOM     26  C   UNL d   1      13.657  11.784  -0.564  0.00  0.00     0.008 A 
ATOM     27  S   UNL d   1      13.331  11.840  -2.038  0.00  0.00    -0.066 SA
ENDBRANCH   1  19
TORSDOF 3
ENDMDL
