MODEL 1
REMARK VINA RESULT:      42.2      0.000      0.000
REMARK  3 active torsions:
REMARK  status: ('A' for Active; 'I' for Inactive)
REMARK    1  A    between atoms: C_6  and  C_1 
REMARK    2  A    between atoms: C_12  and  C_6 
REMARK    3  A    between atoms: C_9  and  C_10 
ROOT
ATOM      1  C   UNL d   1     -51.655  24.720  33.379  0.00  0.00     0.139 A 
ATOM      2  C   UNL d   1     -52.665  23.852  33.386  0.00  0.00     0.064 A 
ATOM      3  C   UNL d   1     -51.844  23.915  33.395  0.00  0.00     0.220 A 
ATOM      4  C   UNL d   1     -52.987  24.612  33.365  0.00  0.00     0.106 A 
ATOM      5  O   UNL d   1     -52.359  25.150  33.361  0.00  0.00    -0.304 OA
ATOM      6  C   UNL d   1     -53.798  24.707  33.353  0.00  0.00     0.067 A 
ATOM      7  C   UNL d   1     -53.160  23.194  33.395  0.00  0.00     0.009 A 
ATOM      8  O   UNL d   1     -51.300  23.295  33.416  0.00  0.00    -0.284 OA
ATOM      9  C   UNL d   1     -54.293  24.048  33.361  0.00  0.00     0.198 A 
ATOM     10  C   UNL d   1     -53.973  23.297  33.382  0.00  0.00     0.042 A 
ATOM     11  O   UNL d   1     -55.110  24.150  33.348  0.00  0.00    -0.286 OA
ENDROOT
BRANCH   1  12
ATOM     12  C   UNL d   1     -50.896  25.042  33.382  0.00  0.00     0.028 C 
BRANCH  12  13
ATOM     13  C   UNL d   1     -50.786  25.863  33.422  0.00  0.00     0.002 A 
ATOM     14  C   UNL d   1     -50.024  26.161  33.484  0.00  0.00    -0.000 A 
ATOM     15  C   UNL d   1     -49.900  26.970  33.526  0.00  0.00    -0.004 A 
ATOM     16  C   UNL d   1     -50.551  27.491  33.504  0.00  0.00    -0.023 A 
ATOM     17  C   UNL d   1     -51.318  27.186  33.441  0.00  0.00    -0.004 A 
ATOM     18  C   UNL d   1     -51.429  26.367  33.401  0.00  0.00    -0.000 A 
BRANCH  16  19
ATOM     19  C   UNL d   1     -50.429  28.313  33.546  0.00  0.00     0.019 C 
ATOM     20  C   UNL d   1     -50.311  29.123  33.587  0.00  0.00     0.004 C 
ATOM     21  C   UNL d   1     -49.625  28.199  33.383  0.00  0.00     0.004 C 
ATOM     22  C   UNL d   1     -51.231  28.414  33.707  0.00  0.00     0.004 C 
ENDBRANCH  16  19
ENDBRANCH  12  13
ENDBRANCH   1  12
TORSDOF 3
ENDMDL
