MODEL 1
REMARK VINA RESULT:       6.5      0.000      0.000
REMARK  6 active torsions:
REMARK  status: ('A' for Active; 'I' for Inactive)
REMARK       I    between atoms: C_6  and  N_1 
REMARK    1  A    between atoms: C_7  and  C_3 
REMARK    2  A    between atoms: C_14  and  C_4 
REMARK    3  A    between atoms: C_20  and  C_6 
REMARK    4  A    between atoms: C_11  and  C_22 
REMARK    5  A    between atoms: C_21  and  C_20 
REMARK    6  A    between atoms: C_22  and  C_21 
ROOT
ATOM      1  N   UNL d   1      58.069  -2.627  29.680  0.00  0.00    -0.195 N 
ATOM      2  N   UNL d   1      57.912  -3.453  29.662  0.00  0.00    -0.163 NA
ATOM      3  C   UNL d   1      58.635  -2.470  29.118  0.00  0.00     0.088 A 
ATOM      4  C   UNL d   1      58.397  -3.785  29.079  0.00  0.00     0.103 A 
ATOM      5  C   UNL d   1      58.844  -3.156  28.747  0.00  0.00     0.040 A 
ATOM      6  C   UNL d   1      57.677  -2.074  30.214  0.00  0.00     0.280 C 
ATOM      7  O   UNL d   1      57.104  -2.355  30.754  0.00  0.00    -0.265 OA
ENDROOT
BRANCH   3   8
ATOM      8  C   UNL d   1      58.948  -1.722  28.954  0.00  0.00     0.019 A 
ATOM      9  C   UNL d   1      59.725  -1.563  29.071  0.00  0.00     0.022 A 
ATOM     10  C   UNL d   1      60.038  -0.815  28.907  0.00  0.00     0.099 A 
ATOM     11  N   UNL d   1      60.809  -0.685  29.032  0.00  0.00    -0.241 NA
ATOM     12  C   UNL d   1      59.547  -0.216  28.616  0.00  0.00     0.099 A 
ATOM     13  C   UNL d   1      61.133   0.090  28.861  0.00  0.00     0.120 A 
ATOM     14  C   UNL d   1      60.664   0.682  28.578  0.00  0.00     0.120 A 
ATOM     15  N   UNL d   1      59.848   0.505  28.457  0.00  0.00    -0.241 NA
ATOM     16  C   UNL d   1      58.756  -0.400  28.504  0.00  0.00     0.021 A 
ATOM     17  C   UNL d   1      58.455  -1.122  28.662  0.00  0.00     0.003 A 
ENDBRANCH   3   8
BRANCH   6  18
ATOM     18  C   UNL d   1      57.883  -1.287  30.170  0.00  0.00     0.063 C 
BRANCH  18  19
ATOM     19  C   UNL d   1      57.417  -0.723  30.570  0.00  0.00     0.011 C 
BRANCH  19  20
ATOM     20  C   UNL d   1      57.745  -0.352  31.225  0.00  0.00     0.070 C 
BRANCH  20  21
ATOM     21  C   UNL d   1      57.306   0.153  31.701  0.00  0.00     0.211 C 
ATOM     22  O   UNL d   1      57.622   0.398  32.428  0.00  0.00    -0.644 OA
ATOM     23  O   UNL d   1      56.562   0.418  31.473  0.00  0.00    -0.644 OA
ENDBRANCH  20  21
ENDBRANCH  19  20
ENDBRANCH  18  19
ENDBRANCH   6  18
BRANCH   4  24
ATOM     24  C   UNL d   1      58.428  -4.604  28.867  0.00  0.00     0.019 A 
ATOM     25  C   UNL d   1      57.751  -4.997  28.692  0.00  0.00     0.002 A 
ATOM     26  C   UNL d   1      57.765  -5.796  28.484  0.00  0.00     0.000 A 
ATOM     27  C   UNL d   1      58.482  -6.187  28.456  0.00  0.00     0.000 A 
ATOM     28  C   UNL d   1      59.177  -5.779  28.636  0.00  0.00     0.000 A 
ATOM     29  C   UNL d   1      59.163  -4.981  28.845  0.00  0.00     0.002 A 
ENDBRANCH   4  24
TORSDOF 6
ENDMDL
