MODEL 1
REMARK VINA RESULT:      -2.8      0.000      0.000
REMARK  3 active torsions:
REMARK  status: ('A' for Active; 'I' for Inactive)
REMARK    1  A    between atoms: S_10  and  C_6 
REMARK    2  A    between atoms: C_14  and  S_10 
REMARK    3  A    between atoms: C_15  and  C_14 
ROOT
ATOM      1  C   UNL d   1      30.915  16.875 -24.079  0.00  0.00     0.141 A 
ATOM      2  O   UNL d   1      30.176  17.171 -24.298  0.00  0.00    -0.303 OA
ATOM      3  C   UNL d   1      30.796  16.183 -23.648  0.00  0.00     0.110 A 
ATOM      4  C   UNL d   1      29.983  16.050 -23.599  0.00  0.00     0.043 A 
ATOM      5  C   UNL d   1      29.600  16.662 -24.000  0.00  0.00     0.102 A 
ATOM      6  C   UNL d   1      31.682  17.148 -24.219  0.00  0.00     0.137 A 
ATOM      7  N   UNL d   1      32.328  16.727 -23.926  0.00  0.00    -0.215 NA
ATOM      8  N   UNL d   1      31.442  15.762 -23.355  0.00  0.00    -0.222 NA
ATOM      9  C   UNL d   1      32.209  16.035 -23.494  0.00  0.00     0.200 A 
ATOM     10  C   UNL d   1      29.541  15.453 -23.241  0.00  0.00     0.004 A 
ATOM     11  C   UNL d   1      28.776  16.674 -24.044  0.00  0.00     0.025 A 
ATOM     12  C   UNL d   1      28.717  15.466 -23.284  0.00  0.00     0.000 A 
ATOM     13  C   UNL d   1      28.335  16.076 -23.685  0.00  0.00     0.002 A 
ENDROOT
BRANCH   6  14
ATOM     14  S   UNL d   1      31.802  17.840 -24.650  0.00  0.00    -0.062 SA
BRANCH  14  15
ATOM     15  C   UNL d   1      32.532  18.224 -24.620  0.00  0.00     0.082 C 
BRANCH  15  16
ATOM     16  C   UNL d   1      32.670  18.884 -25.097  0.00  0.00     0.241 C 
ATOM     17  O   UNL d   1      33.201  19.464 -24.851  0.00  0.00    -0.283 OA
ENDBRANCH  15  16
ENDBRANCH  14  15
ENDBRANCH   6  14
TORSDOF 3
ENDMDL
MODEL 2
REMARK VINA RESULT:      -2.5      5.134      6.422
REMARK  3 active torsions:
REMARK  status: ('A' for Active; 'I' for Inactive)
REMARK    1  A    between atoms: S_10  and  C_6 
REMARK    2  A    between atoms: C_14  and  S_10 
REMARK    3  A    between atoms: C_15  and  C_14 
ROOT
ATOM      1  C   UNL d   1      33.067  21.563 -21.268  0.00  0.00     0.141 A 
ATOM      2  O   UNL d   1      33.097  20.781 -21.006  0.00  0.00    -0.303 OA
ATOM      3  C   UNL d   1      33.098  21.558 -22.091  0.00  0.00     0.110 A 
ATOM      4  C   UNL d   1      33.149  20.773 -22.340  0.00  0.00     0.043 A 
ATOM      5  C   UNL d   1      33.148  20.292 -21.668  0.00  0.00     0.102 A 
ATOM      6  C   UNL d   1      33.014  22.280 -20.861  0.00  0.00     0.137 A 
ATOM      7  N   UNL d   1      32.993  22.990 -21.280  0.00  0.00    -0.215 NA
ATOM      8  N   UNL d   1      33.078  22.268 -22.510  0.00  0.00    -0.222 NA
ATOM      9  C   UNL d   1      33.025  22.985 -22.104  0.00  0.00     0.200 A 
ATOM     10  C   UNL d   1      33.195  20.432 -23.090  0.00  0.00     0.004 A 
ATOM     11  C   UNL d   1      33.194  19.472 -21.747  0.00  0.00     0.025 A 
ATOM     12  C   UNL d   1      33.241  19.612 -23.169  0.00  0.00     0.000 A 
ATOM     13  C   UNL d   1      33.240  19.133 -22.498  0.00  0.00     0.002 A 
ENDROOT
BRANCH   6  14
ATOM     14  S   UNL d   1      32.982  22.285 -20.037  0.00  0.00    -0.062 SA
BRANCH  14  15
ATOM     15  C   UNL d   1      33.008  23.002 -19.628  0.00  0.00     0.082 C 
BRANCH  15  16
ATOM     16  C   UNL d   1      33.139  23.006 -18.813  0.00  0.00     0.241 C 
ATOM     17  O   UNL d   1      32.778  23.577 -18.341  0.00  0.00    -0.283 OA
ENDBRANCH  15  16
ENDBRANCH  14  15
ENDBRANCH   6  14
TORSDOF 3
ENDMDL
MODEL 3
REMARK VINA RESULT:      -2.5      4.980      6.518
REMARK  3 active torsions:
REMARK  status: ('A' for Active; 'I' for Inactive)
REMARK    1  A    between atoms: S_10  and  C_6 
REMARK    2  A    between atoms: C_14  and  S_10 
REMARK    3  A    between atoms: C_15  and  C_14 
ROOT
ATOM      1  C   UNL d   1      33.107  21.390 -21.512  0.00  0.00     0.141 A 
ATOM      2  O   UNL d   1      33.035  21.302 -20.694  0.00  0.00    -0.303 OA
ATOM      3  C   UNL d   1      33.112  22.197 -21.682  0.00  0.00     0.110 A 
ATOM      4  C   UNL d   1      33.044  22.608 -20.970  0.00  0.00     0.043 A 
ATOM      5  C   UNL d   1      32.996  22.055 -20.359  0.00  0.00     0.102 A 
ATOM      6  C   UNL d   1      33.169  20.839 -22.123  0.00  0.00     0.137 A 
ATOM      7  N   UNL d   1      33.235  21.096 -22.904  0.00  0.00    -0.215 NA
ATOM      8  N   UNL d   1      33.179  22.454 -22.463  0.00  0.00    -0.222 NA
ATOM      9  C   UNL d   1      33.241  21.903 -23.074  0.00  0.00     0.200 A 
ATOM     10  C   UNL d   1      33.018  23.415 -20.798  0.00  0.00     0.004 A 
ATOM     11  C   UNL d   1      32.923  22.308 -19.578  0.00  0.00     0.025 A 
ATOM     12  C   UNL d   1      32.945  23.668 -20.016  0.00  0.00     0.000 A 
ATOM     13  C   UNL d   1      32.898  23.115 -19.407  0.00  0.00     0.002 A 
ENDROOT
BRANCH   6  14
ATOM     14  S   UNL d   1      33.164  20.032 -21.953  0.00  0.00    -0.062 SA
BRANCH  14  15
ATOM     15  C   UNL d   1      33.084  19.483 -22.564  0.00  0.00     0.082 C 
BRANCH  15  16
ATOM     16  C   UNL d   1      33.241  18.684 -22.423  0.00  0.00     0.241 C 
ATOM     17  O   UNL d   1      32.858  18.105 -22.867  0.00  0.00    -0.283 OA
ENDBRANCH  15  16
ENDBRANCH  14  15
ENDBRANCH   6  14
TORSDOF 3
ENDMDL
MODEL 4
REMARK VINA RESULT:      -2.2      3.622      4.761
REMARK  3 active torsions:
REMARK  status: ('A' for Active; 'I' for Inactive)
REMARK    1  A    between atoms: S_10  and  C_6 
REMARK    2  A    between atoms: C_14  and  S_10 
REMARK    3  A    between atoms: C_15  and  C_14 
ROOT
ATOM      1  C   UNL d   1      33.223  20.212 -22.423  0.00  0.00     0.141 A 
ATOM      2  O   UNL d   1      33.217  20.087 -23.239  0.00  0.00    -0.303 OA
ATOM      3  C   UNL d   1      33.233  19.475 -22.052  0.00  0.00     0.110 A 
ATOM      4  C   UNL d   1      33.231  18.895 -22.639  0.00  0.00     0.043 A 
ATOM      5  C   UNL d   1      33.222  19.273 -23.372  0.00  0.00     0.102 A 
ATOM      6  C   UNL d   1      33.222  20.902 -21.970  0.00  0.00     0.137 A 
ATOM      7  N   UNL d   1      33.230  20.854 -21.146  0.00  0.00    -0.215 NA
ATOM      8  N   UNL d   1      33.241  19.427 -21.229  0.00  0.00    -0.222 NA
ATOM      9  C   UNL d   1      33.240  20.117 -20.776  0.00  0.00     0.200 A 
ATOM     10  C   UNL d   1      33.238  18.071 -22.601  0.00  0.00     0.004 A 
ATOM     11  C   UNL d   1      33.219  18.828 -24.067  0.00  0.00     0.025 A 
ATOM     12  C   UNL d   1      33.235  17.625 -23.295  0.00  0.00     0.000 A 
ATOM     13  C   UNL d   1      33.225  18.004 -24.027  0.00  0.00     0.002 A 
ENDROOT
BRANCH   6  14
ATOM     14  S   UNL d   1      33.213  21.638 -22.340  0.00  0.00    -0.062 SA
BRANCH  14  15
ATOM     15  C   UNL d   1      32.966  22.307 -21.923  0.00  0.00     0.082 C 
BRANCH  15  16
ATOM     16  C   UNL d   1      32.994  23.050 -22.282  0.00  0.00     0.241 C 
ATOM     17  O   UNL d   1      32.415  23.611 -22.111  0.00  0.00    -0.283 OA
ENDBRANCH  15  16
ENDBRANCH  14  15
ENDBRANCH   6  14
TORSDOF 3
ENDMDL
MODEL 5
REMARK VINA RESULT:      -2.0      6.293      7.408
REMARK  3 active torsions:
REMARK  status: ('A' for Active; 'I' for Inactive)
REMARK    1  A    between atoms: S_10  and  C_6 
REMARK    2  A    between atoms: C_14  and  S_10 
REMARK    3  A    between atoms: C_15  and  C_14 
ROOT
ATOM      1  C   UNL d   1      33.238  22.614 -21.033  0.00  0.00     0.141 A 
ATOM      2  O   UNL d   1      33.238  23.328 -21.448  0.00  0.00    -0.303 OA
ATOM      3  C   UNL d   1      33.238  22.000 -21.583  0.00  0.00     0.110 A 
ATOM      4  C   UNL d   1      33.239  22.333 -22.338  0.00  0.00     0.043 A 
ATOM      5  C   UNL d   1      33.239  23.154 -22.254  0.00  0.00     0.102 A 
ATOM      6  C   UNL d   1      33.237  22.445 -20.225  0.00  0.00     0.137 A 
ATOM      7  N   UNL d   1      33.236  21.662 -19.968  0.00  0.00    -0.215 NA
ATOM      8  N   UNL d   1      33.238  21.216 -21.326  0.00  0.00    -0.222 NA
ATOM      9  C   UNL d   1      33.237  21.047 -20.518  0.00  0.00     0.200 A 
ATOM     10  C   UNL d   1      33.240  21.996 -23.091  0.00  0.00     0.004 A 
ATOM     11  C   UNL d   1      33.240  23.637 -22.923  0.00  0.00     0.025 A 
ATOM     12  C   UNL d   1      33.241  22.479 -23.759  0.00  0.00     0.000 A 
ATOM     13  C   UNL d   1      33.241  23.299 -23.676  0.00  0.00     0.002 A 
ENDROOT
BRANCH   6  14
ATOM     14  S   UNL d   1      33.236  23.060 -19.675  0.00  0.00    -0.062 SA
BRANCH  14  15
ATOM     15  C   UNL d   1      32.841  22.970 -18.956  0.00  0.00     0.082 C 
BRANCH  15  16
ATOM     16  C   UNL d   1      33.038  23.451 -18.315  0.00  0.00     0.241 C 
ATOM     17  O   UNL d   1      32.453  23.693 -17.787  0.00  0.00    -0.283 OA
ENDBRANCH  15  16
ENDBRANCH  14  15
ENDBRANCH   6  14
TORSDOF 3
ENDMDL
MODEL 6
REMARK VINA RESULT:      -1.2      1.466      3.082
REMARK  3 active torsions:
REMARK  status: ('A' for Active; 'I' for Inactive)
REMARK    1  A    between atoms: S_10  and  C_6 
REMARK    2  A    between atoms: C_14  and  S_10 
REMARK    3  A    between atoms: C_15  and  C_14 
ROOT
ATOM      1  C   UNL d   1      30.703  16.817 -24.433  0.00  0.00     0.141 A 
ATOM      2  O   UNL d   1      31.289  17.397 -24.389  0.00  0.00    -0.303 OA
ATOM      3  C   UNL d   1      30.997  16.130 -24.083  0.00  0.00     0.110 A 
ATOM      4  C   UNL d   1      31.765  16.286 -23.823  0.00  0.00     0.043 A 
ATOM      5  C   UNL d   1      31.945  17.069 -24.012  0.00  0.00     0.102 A 
ATOM      6  C   UNL d   1      29.940  16.825 -24.747  0.00  0.00     0.137 A 
ATOM      7  N   UNL d   1      29.472  16.147 -24.710  0.00  0.00    -0.215 NA
ATOM      8  N   UNL d   1      30.529  15.453 -24.046  0.00  0.00    -0.222 NA
ATOM      9  C   UNL d   1      29.766  15.461 -24.360  0.00  0.00     0.200 A 
ATOM     10  C   UNL d   1      32.323  15.816 -23.438  0.00  0.00     0.004 A 
ATOM     11  C   UNL d   1      32.683  17.382 -23.817  0.00  0.00     0.025 A 
ATOM     12  C   UNL d   1      33.061  16.129 -23.242  0.00  0.00     0.000 A 
ATOM     13  C   UNL d   1      33.241  16.911 -23.432  0.00  0.00     0.002 A 
ENDROOT
BRANCH   6  14
ATOM     14  S   UNL d   1      29.646  17.511 -25.097  0.00  0.00    -0.062 SA
BRANCH  14  15
ATOM     15  C   UNL d   1      28.875  17.759 -24.936  0.00  0.00     0.082 C 
BRANCH  15  16
ATOM     16  C   UNL d   1      28.653  18.539 -25.088  0.00  0.00     0.241 C 
ATOM     17  O   UNL d   1      28.038  18.883 -24.658  0.00  0.00    -0.283 OA
ENDBRANCH  15  16
ENDBRANCH  14  15
ENDBRANCH   6  14
TORSDOF 3
ENDMDL
MODEL 7
REMARK VINA RESULT:      -0.3      3.400      5.163
REMARK  3 active torsions:
REMARK  status: ('A' for Active; 'I' for Inactive)
REMARK    1  A    between atoms: S_10  and  C_6 
REMARK    2  A    between atoms: C_14  and  S_10 
REMARK    3  A    between atoms: C_15  and  C_14 
ROOT
ATOM      1  C   UNL d   1      33.231  19.659 -22.500  0.00  0.00     0.141 A 
ATOM      2  O   UNL d   1      33.225  19.622 -21.675  0.00  0.00    -0.303 OA
ATOM      3  C   UNL d   1      33.230  20.454 -22.719  0.00  0.00     0.110 A 
ATOM      4  C   UNL d   1      33.224  20.909 -22.030  0.00  0.00     0.043 A 
ATOM      5  C   UNL d   1      33.221  20.394 -21.385  0.00  0.00     0.102 A 
ATOM      6  C   UNL d   1      33.236  19.072 -23.079  0.00  0.00     0.137 A 
ATOM      7  N   UNL d   1      33.241  19.280 -23.877  0.00  0.00    -0.215 NA
ATOM      8  N   UNL d   1      33.235  20.663 -23.516  0.00  0.00    -0.222 NA
ATOM      9  C   UNL d   1      33.240  20.075 -24.096  0.00  0.00     0.200 A 
ATOM     10  C   UNL d   1      33.221  21.724 -21.906  0.00  0.00     0.004 A 
ATOM     11  C   UNL d   1      33.215  20.694 -20.616  0.00  0.00     0.025 A 
ATOM     12  C   UNL d   1      33.215  22.025 -21.137  0.00  0.00     0.000 A 
ATOM     13  C   UNL d   1      33.212  21.510 -20.493  0.00  0.00     0.002 A 
ENDROOT
BRANCH   6  14
ATOM     14  S   UNL d   1      33.237  18.277 -22.860  0.00  0.00    -0.062 SA
BRANCH  14  15
ATOM     15  C   UNL d   1      33.036  17.697 -23.412  0.00  0.00     0.082 C 
BRANCH  15  16
ATOM     16  C   UNL d   1      33.001  16.904 -23.183  0.00  0.00     0.241 C 
ATOM     17  O   UNL d   1      32.633  16.351 -23.670  0.00  0.00    -0.283 OA
ENDBRANCH  15  16
ENDBRANCH  14  15
ENDBRANCH   6  14
TORSDOF 3
ENDMDL
