MODEL 1
REMARK VINA RESULT:      -1.7      0.000      0.000
REMARK  3 active torsions:
REMARK  status: ('A' for Active; 'I' for Inactive)
REMARK    1  A    between atoms: N_2  and  S_1 
REMARK    2  A    between atoms: C_5  and  S_1 
REMARK    3  A    between atoms: C_4  and  N_3 
ROOT
ATOM      1  N   UNL d   1      32.799  19.839 -22.278  0.00  0.00    -0.226 N 
ATOM      2  N   UNL d   1      32.757  18.543 -23.297  0.00  0.00    -0.301 N 
ATOM      3  C   UNL d   1      32.345  19.865 -22.960  0.00  0.00     0.111 A 
ATOM      4  C   UNL d   1      33.241  19.156 -22.097  0.00  0.00     0.111 A 
ATOM      5  C   UNL d   1      32.324  19.217 -23.470  0.00  0.00     0.100 A 
ATOM      6  C   UNL d   1      33.220  18.508 -22.607  0.00  0.00     0.100 A 
ENDROOT
BRANCH   1   7
ATOM      7  S   UNL d   1      32.821  20.487 -21.768  0.00  0.00     0.271 S 
ATOM      8  O   UNL d   1      33.183  20.937 -22.355  0.00  0.00    -0.200 OA
ATOM      9  O   UNL d   1      32.458  20.036 -21.179  0.00  0.00    -0.200 OA
BRANCH   7  10
ATOM     10  C   UNL d   1      32.842  21.135 -21.258  0.00  0.00     0.104 A 
ATOM     11  C   UNL d   1      33.181  21.064 -20.514  0.00  0.00     0.015 A 
ATOM     12  C   UNL d   1      33.202  21.711 -20.005  0.00  0.00     0.030 A 
ATOM     13  C   UNL d   1      32.885  22.430 -20.239  0.00  0.00     0.140 A 
ATOM     14  C   UNL d   1      32.539  22.509 -20.992  0.00  0.00     0.030 A 
ATOM     15  F   UNL d   1      32.906  23.078 -19.729  0.00  0.00    -0.204 F 
ATOM     16  C   UNL d   1      32.518  21.862 -21.501  0.00  0.00     0.015 A 
ENDBRANCH   7  10
ENDBRANCH   1   7
BRANCH   2  17
ATOM     17  C   UNL d   1      32.736  17.898 -23.805  0.00  0.00     0.064 A 
ATOM     18  C   UNL d   1      32.976  17.978 -24.585  0.00  0.00     0.016 A 
ATOM     19  C   UNL d   1      32.955  17.330 -25.095  0.00  0.00     0.001 A 
ATOM     20  C   UNL d   1      33.240  18.712 -24.861  0.00  0.00     0.002 C 
ATOM     21  C   UNL d   1      32.693  16.603 -24.824  0.00  0.00     0.000 A 
ATOM     22  C   UNL d   1      32.448  16.512 -24.035  0.00  0.00     0.001 A 
ATOM     23  C   UNL d   1      32.469  17.160 -23.525  0.00  0.00     0.016 A 
ATOM     24  C   UNL d   1      32.228  17.079 -22.744  0.00  0.00     0.002 C 
ENDBRANCH   2  17
TORSDOF 3
ENDMDL
MODEL 2
REMARK VINA RESULT:      -1.5      0.709      1.086
REMARK  3 active torsions:
REMARK  status: ('A' for Active; 'I' for Inactive)
REMARK    1  A    between atoms: N_2  and  S_1 
REMARK    2  A    between atoms: C_5  and  S_1 
REMARK    3  A    between atoms: C_4  and  N_3 
ROOT
ATOM      1  N   UNL d   1      32.649  20.354 -22.122  0.00  0.00    -0.226 N 
ATOM      2  N   UNL d   1      32.649  19.088 -23.180  0.00  0.00    -0.301 N 
ATOM      3  C   UNL d   1      33.241  20.287 -22.686  0.00  0.00     0.111 A 
ATOM      4  C   UNL d   1      32.045  19.782 -22.082  0.00  0.00     0.111 A 
ATOM      5  C   UNL d   1      33.241  19.655 -23.215  0.00  0.00     0.100 A 
ATOM      6  C   UNL d   1      32.045  19.149 -22.611  0.00  0.00     0.100 A 
ENDROOT
BRANCH   1   7
ATOM      7  S   UNL d   1      32.648  20.987 -21.592  0.00  0.00     0.271 S 
ATOM      8  O   UNL d   1      32.089  20.598 -21.128  0.00  0.00    -0.200 OA
ATOM      9  O   UNL d   1      33.209  21.376 -22.057  0.00  0.00    -0.200 OA
BRANCH   7  10
ATOM     10  C   UNL d   1      32.648  21.619 -21.063  0.00  0.00     0.104 A 
ATOM     11  C   UNL d   1      32.093  22.218 -21.137  0.00  0.00     0.015 A 
ATOM     12  C   UNL d   1      32.093  22.850 -20.608  0.00  0.00     0.030 A 
ATOM     13  C   UNL d   1      32.648  22.883 -20.005  0.00  0.00     0.140 A 
ATOM     14  C   UNL d   1      33.214  22.278 -19.924  0.00  0.00     0.030 A 
ATOM     15  F   UNL d   1      32.648  23.516 -19.476  0.00  0.00    -0.204 F 
ATOM     16  C   UNL d   1      33.214  21.647 -20.453  0.00  0.00     0.015 A 
ENDBRANCH   7  10
ENDBRANCH   1   7
BRANCH   2  17
ATOM     17  C   UNL d   1      32.649  18.459 -23.707  0.00  0.00     0.064 A 
ATOM     18  C   UNL d   1      32.412  18.571 -24.485  0.00  0.00     0.016 A 
ATOM     19  C   UNL d   1      32.412  17.938 -25.014  0.00  0.00     0.001 A 
ATOM     20  C   UNL d   1      32.171  19.321 -24.738  0.00  0.00     0.002 C 
ATOM     21  C   UNL d   1      32.649  17.195 -24.765  0.00  0.00     0.000 A 
ATOM     22  C   UNL d   1      32.891  17.072 -23.979  0.00  0.00     0.001 A 
ATOM     23  C   UNL d   1      32.891  17.705 -23.450  0.00  0.00     0.016 A 
ATOM     24  C   UNL d   1      33.129  17.592 -22.672  0.00  0.00     0.002 C 
ENDBRANCH   2  17
TORSDOF 3
ENDMDL
MODEL 3
REMARK VINA RESULT:      -0.7      2.275      4.869
REMARK  3 active torsions:
REMARK  status: ('A' for Active; 'I' for Inactive)
REMARK    1  A    between atoms: N_2  and  S_1 
REMARK    2  A    between atoms: C_5  and  S_1 
REMARK    3  A    between atoms: C_4  and  N_3 
ROOT
ATOM      1  N   UNL d   1      32.789  19.327 -23.242  0.00  0.00    -0.226 N 
ATOM      2  N   UNL d   1      32.967  20.790 -22.500  0.00  0.00    -0.301 N 
ATOM      3  C   UNL d   1      33.152  19.949 -23.636  0.00  0.00     0.111 A 
ATOM      4  C   UNL d   1      32.510  19.433 -22.465  0.00  0.00     0.111 A 
ATOM      5  C   UNL d   1      33.241  20.680 -23.266  0.00  0.00     0.100 A 
ATOM      6  C   UNL d   1      32.599  20.165 -22.094  0.00  0.00     0.100 A 
ENDROOT
BRANCH   1   7
ATOM      7  S   UNL d   1      32.700  18.596 -23.613  0.00  0.00     0.271 S 
ATOM      8  O   UNL d   1      32.937  18.929 -24.328  0.00  0.00    -0.200 OA
ATOM      9  O   UNL d   1      32.463  18.261 -22.896  0.00  0.00    -0.200 OA
BRANCH   7  10
ATOM     10  C   UNL d   1      32.611  17.864 -23.983  0.00  0.00     0.104 A 
ATOM     11  C   UNL d   1      33.223  17.318 -23.969  0.00  0.00     0.015 A 
ATOM     12  C   UNL d   1      33.134  16.587 -24.339  0.00  0.00     0.030 A 
ATOM     13  C   UNL d   1      32.434  16.402 -24.724  0.00  0.00     0.140 A 
ATOM     14  C   UNL d   1      31.809  16.952 -24.742  0.00  0.00     0.030 A 
ATOM     15  F   UNL d   1      32.345  15.671 -25.095  0.00  0.00    -0.204 F 
ATOM     16  C   UNL d   1      31.898  17.683 -24.372  0.00  0.00     0.015 A 
ENDBRANCH   7  10
ENDBRANCH   1   7
BRANCH   2  17
ATOM     17  C   UNL d   1      33.056  21.519 -22.132  0.00  0.00     0.064 A 
ATOM     18  C   UNL d   1      33.111  22.204 -22.579  0.00  0.00     0.016 A 
ATOM     19  C   UNL d   1      33.200  22.936 -22.208  0.00  0.00     0.001 A 
ATOM     20  C   UNL d   1      33.076  22.161 -23.404  0.00  0.00     0.002 C 
ATOM     21  C   UNL d   1      33.234  22.980 -21.391  0.00  0.00     0.000 A 
ATOM     22  C   UNL d   1      33.179  22.291 -20.930  0.00  0.00     0.001 A 
ATOM     23  C   UNL d   1      33.090  21.559 -21.301  0.00  0.00     0.016 A 
ATOM     24  C   UNL d   1      33.035  20.873 -20.852  0.00  0.00     0.002 C 
ENDBRANCH   2  17
TORSDOF 3
ENDMDL
