MODEL 1
REMARK VINA RESULT:      49.4      0.000      0.000
REMARK  8 active torsions:
REMARK  status: ('A' for Active; 'I' for Inactive)
REMARK    1  A    between atoms: C_6  and  C_1 
REMARK    2  A    between atoms: C_8  and  N_3 
REMARK    3  A    between atoms: C_7  and  C_6 
REMARK    4  A    between atoms: C_9  and  C_7 
REMARK    5  A    between atoms: C_14  and  C_8 
REMARK    6  A    between atoms: C_17  and  C_14 
REMARK    7  A    between atoms: C_15  and  C_16 
REMARK    8  A    between atoms: C_16  and  C_17 
ROOT
ATOM      1  C   UNL d   1      58.951  49.670  51.214  0.00  0.00     0.148 A 
ATOM      2  N   UNL d   1      59.107  49.689  52.133  0.00  0.00    -0.227 NA
ATOM      3  N   UNL d   1      59.780  49.656  50.802  0.00  0.00    -0.289 N 
ATOM      4  C   UNL d   1      60.441  49.665  51.447  0.00  0.00     0.083 A 
ATOM      5  C   UNL d   1      60.016  49.685  52.290  0.00  0.00     0.099 A 
ATOM      6  C   UNL d   1      61.371  49.657  51.390  0.00  0.00     0.019 A 
ATOM      7  C   UNL d   1      60.533  49.698  53.049  0.00  0.00     0.021 A 
ATOM      8  C   UNL d   1      61.865  49.670  52.167  0.00  0.00     0.002 A 
ATOM      9  C   UNL d   1      61.440  49.690  53.009  0.00  0.00     0.002 A 
ENDROOT
BRANCH   1  10
ATOM     10  C   UNL d   1      58.510  49.660  50.573  0.00  0.00     0.037 C 
BRANCH  10  11
ATOM     11  C   UNL d   1      57.694  49.705  50.577  0.00  0.00     0.003 C 
BRANCH  11  12
ATOM     12  C   UNL d   1      57.205  49.219  50.117  0.00  0.00     0.000 A 
ATOM     13  C   UNL d   1      57.190  49.283  49.302  0.00  0.00     0.000 A 
ATOM     14  C   UNL d   1      56.705  48.800  48.850  0.00  0.00     0.000 A 
ATOM     15  C   UNL d   1      56.220  48.237  49.228  0.00  0.00     0.000 A 
ATOM     16  C   UNL d   1      56.236  48.175  50.045  0.00  0.00     0.000 A 
ATOM     17  C   UNL d   1      56.720  48.657  50.494  0.00  0.00     0.000 A 
ENDBRANCH  11  12
ENDBRANCH  10  11
ENDBRANCH   1  10
BRANCH   3  18
ATOM     18  C   UNL d   1      60.455  49.642  50.363  0.00  0.00     0.082 C 
BRANCH  18  19
ATOM     19  C   UNL d   1      60.554  49.077  49.779  0.00  0.00     0.019 C 
BRANCH  19  20
ATOM     20  C   UNL d   1      61.273  48.703  49.681  0.00  0.00     0.002 C 
BRANCH  20  21
ATOM     21  C   UNL d   1      61.312  47.928  49.400  0.00  0.00     0.000 C 
BRANCH  21  22
ATOM     22  C   UNL d   1      61.854  47.391  49.708  0.00  0.00     0.000 C 
ATOM     23  C   UNL d   1      61.844  46.597  49.481  0.00  0.00     0.000 C 
ENDBRANCH  21  22
ENDBRANCH  20  21
ENDBRANCH  19  20
ENDBRANCH  18  19
ENDBRANCH   3  18
TORSDOF 8
ENDMDL
