MODEL 1
REMARK VINA RESULT:      10.2      0.000      0.000
REMARK  5 active torsions:
REMARK  status: ('A' for Active; 'I' for Inactive)
REMARK    1  A    between atoms: N_10  and  C_2 
REMARK    2  A    between atoms: C_7  and  C_5 
REMARK    3  A    between atoms: C_6  and  C_9 
REMARK    4  A    between atoms: C_8  and  C_7 
REMARK       I    between atoms: N_11  and  C_8 
REMARK    5  A    between atoms: C_14  and  N_11 
ROOT
ATOM      1  C   UNL d   1      45.915 -16.748  44.493  0.00  0.00     0.280 C 
ATOM      2  N   UNL d   1      46.039 -16.078  44.955  0.00  0.00    -0.208 NA
ATOM      3  O   UNL d   1      45.317 -16.748  43.926  0.00  0.00    -0.265 OA
ENDROOT
BRANCH   1   4
ATOM      4  C   UNL d   1      46.384 -17.417  44.596  0.00  0.00     0.074 C 
BRANCH   4   5
ATOM      5  C   UNL d   1      46.374 -18.023  44.038  0.00  0.00     0.093 A 
ATOM      6  C   UNL d   1      46.352 -18.830  44.204  0.00  0.00     0.272 A 
ATOM      7  N   UNL d   1      46.348 -19.233  43.491  0.00  0.00    -0.251 N 
ATOM      8  O   UNL d   1      46.337 -19.171  44.955  0.00  0.00    -0.266 OA
ATOM      9  C   UNL d   1      46.367 -18.676  42.882  0.00  0.00     0.182 A 
ATOM     10  C   UNL d   1      46.328 -20.054  43.393  0.00  0.00     0.104 C 
ATOM     11  S   UNL d   1      46.383 -17.929  43.223  0.00  0.00    -0.045 SA
BRANCH   9  12
ATOM     12  N   UNL d   1      46.370 -18.840  42.073  0.00  0.00    -0.219 NA
ATOM     13  C   UNL d   1      46.629 -18.269  41.535  0.00  0.00     0.122 C 
ENDBRANCH   9  12
ENDBRANCH   4   5
ENDBRANCH   1   4
BRANCH   2  14
ATOM     14  C   UNL d   1      45.565 -15.411  44.847  0.00  0.00     0.085 A 
ATOM     15  C   UNL d   1      45.906 -14.682  44.650  0.00  0.00     0.023 A 
ATOM     16  C   UNL d   1      45.426 -14.018  44.543  0.00  0.00     0.073 A 
ATOM     17  C   UNL d   1      44.612 -14.082  44.633  0.00  0.00     0.004 A 
ATOM     18  C   UNL d   1      44.272 -14.811  44.830  0.00  0.00     0.002 A 
ATOM     19  C   UNL d   1      44.746 -15.474  44.937  0.00  0.00     0.019 A 
BRANCH  16  20
ATOM     20  C   UNL d   1      45.766 -13.291  44.347  0.00  0.00     0.419 C 
ATOM     21  F   UNL d   1      46.075 -12.631  44.168  0.00  0.00    -0.166 F 
ATOM     22  F   UNL d   1      46.306 -12.799  44.802  0.00  0.00    -0.166 F 
ATOM     23  F   UNL d   1      45.674 -12.821  43.628  0.00  0.00    -0.166 F 
ENDBRANCH  16  20
ENDBRANCH   2  14
TORSDOF 5
ENDMDL
