MODEL 1
REMARK VINA RESULT:      -2.9      0.000      0.000
REMARK  5 active torsions:
REMARK  status: ('A' for Active; 'I' for Inactive)
REMARK    1  A    between atoms: N_2  and  S_1 
REMARK    2  A    between atoms: C_3  and  S_1 
REMARK    3  A    between atoms: C_6  and  O_7 
REMARK    4  A    between atoms: O_7  and  C_11 
REMARK    5  A    between atoms: O_16  and  C_8 
ROOT
ATOM      1  C   UNL d   1      32.987  19.762 -22.125  0.00  0.00     0.104 A 
ATOM      2  C   UNL d   1      32.887  19.737 -21.314  0.00  0.00     0.015 A 
ATOM      3  C   UNL d   1      33.165  20.484 -22.500  0.00  0.00     0.015 A 
ATOM      4  C   UNL d   1      33.141  21.141 -21.246  0.00  0.00     0.100 A 
ATOM      5  C   UNL d   1      33.241  21.169 -22.058  0.00  0.00     0.025 A 
ATOM      6  C   UNL d   1      32.962  20.419 -20.871  0.00  0.00     0.025 A 
ENDROOT
BRANCH   4   7
ATOM      7  O   UNL d   1      33.216  21.835 -20.789  0.00  0.00    -0.305 OA
BRANCH   7   8
ATOM      8  C   UNL d   1      32.678  22.461 -20.868  0.00  0.00     0.122 A 
ATOM      9  C   UNL d   1      32.498  22.935 -20.220  0.00  0.00     0.117 A 
ATOM     10  C   UNL d   1      31.960  23.559 -20.305  0.00  0.00     0.026 A 
ATOM     11  C   UNL d   1      31.611  23.700 -21.035  0.00  0.00     0.002 A 
ATOM     12  C   UNL d   1      31.792  23.225 -21.684  0.00  0.00     0.002 A 
ATOM     13  C   UNL d   1      32.328  22.603 -21.599  0.00  0.00     0.027 A 
BRANCH   9  14
ATOM     14  O   UNL d   1      32.853  22.785 -19.494  0.00  0.00    -0.326 OA
ATOM     15  C   UNL d   1      32.850  23.358 -18.915  0.00  0.00     0.181 C 
ENDBRANCH   9  14
ENDBRANCH   7   8
ENDBRANCH   4   7
BRANCH   1  16
ATOM     16  S   UNL d   1      32.910  19.068 -22.566  0.00  0.00     0.271 S 
ATOM     17  O   UNL d   1      33.128  18.335 -22.238  0.00  0.00    -0.200 OA
ATOM     18  O   UNL d   1      32.614  19.097 -23.337  0.00  0.00    -0.200 OA
BRANCH  16  19
ATOM     19  N   UNL d   1      32.760  18.508 -23.155  0.00  0.00    -0.229 N 
ATOM     20  C   UNL d   1      32.530  18.668 -23.939  0.00  0.00     0.092 A 
ATOM     21  C   UNL d   1      32.438  17.952 -24.343  0.00  0.00     0.021 A 
ATOM     22  C   UNL d   1      32.608  17.342 -23.818  0.00  0.00     0.021 A 
ATOM     23  C   UNL d   1      32.807  17.676 -23.082  0.00  0.00     0.092 A 
ENDBRANCH  16  19
ENDBRANCH   1  16
TORSDOF 5
ENDMDL
MODEL 2
REMARK VINA RESULT:      -2.7      1.182      1.778
REMARK  5 active torsions:
REMARK  status: ('A' for Active; 'I' for Inactive)
REMARK    1  A    between atoms: N_2  and  S_1 
REMARK    2  A    between atoms: C_3  and  S_1 
REMARK    3  A    between atoms: C_6  and  O_7 
REMARK    4  A    between atoms: O_7  and  C_11 
REMARK    5  A    between atoms: O_16  and  C_8 
ROOT
ATOM      1  C   UNL d   1      32.918  18.850 -22.872  0.00  0.00     0.104 A 
ATOM      2  C   UNL d   1      32.820  19.415 -23.454  0.00  0.00     0.015 A 
ATOM      3  C   UNL d   1      33.125  19.080 -22.099  0.00  0.00     0.015 A 
ATOM      4  C   UNL d   1      33.133  20.436 -22.505  0.00  0.00     0.100 A 
ATOM      5  C   UNL d   1      33.231  19.872 -21.920  0.00  0.00     0.025 A 
ATOM      6  C   UNL d   1      32.925  20.206 -23.278  0.00  0.00     0.025 A 
ENDROOT
BRANCH   4   7
ATOM      7  O   UNL d   1      33.239  21.245 -22.331  0.00  0.00    -0.305 OA
BRANCH   7   8
ATOM      8  C   UNL d   1      32.814  21.612 -21.720  0.00  0.00     0.122 A 
ATOM      9  C   UNL d   1      32.687  22.424 -21.736  0.00  0.00     0.117 A 
ATOM     10  C   UNL d   1      32.263  22.785 -21.123  0.00  0.00     0.026 A 
ATOM     11  C   UNL d   1      31.973  22.329 -20.504  0.00  0.00     0.002 A 
ATOM     12  C   UNL d   1      32.102  21.514 -20.489  0.00  0.00     0.002 A 
ATOM     13  C   UNL d   1      32.525  21.156 -21.100  0.00  0.00     0.027 A 
BRANCH   9  14
ATOM     14  O   UNL d   1      32.981  22.871 -22.360  0.00  0.00    -0.326 OA
ATOM     15  C   UNL d   1      32.828  23.671 -22.394  0.00  0.00     0.181 C 
ENDBRANCH   9  14
ENDBRANCH   7   8
ENDBRANCH   4   7
BRANCH   1  16
ATOM     16  S   UNL d   1      32.810  18.052 -23.057  0.00  0.00     0.271 S 
ATOM     17  O   UNL d   1      33.241  17.465 -22.653  0.00  0.00    -0.200 OA
ATOM     18  O   UNL d   1      32.274  17.830 -23.645  0.00  0.00    -0.200 OA
BRANCH  16  19
ATOM     19  N   UNL d   1      32.564  17.333 -23.381  0.00  0.00    -0.229 N 
ATOM     20  C   UNL d   1      33.035  16.656 -23.492  0.00  0.00     0.092 A 
ATOM     21  C   UNL d   1      32.574  16.059 -23.832  0.00  0.00     0.021 A 
ATOM     22  C   UNL d   1      31.814  16.357 -23.937  0.00  0.00     0.021 A 
ATOM     23  C   UNL d   1      31.798  17.143 -23.661  0.00  0.00     0.092 A 
ENDBRANCH  16  19
ENDBRANCH   1  16
TORSDOF 5
ENDMDL
MODEL 3
REMARK VINA RESULT:      -2.0      1.389      4.904
REMARK  5 active torsions:
REMARK  status: ('A' for Active; 'I' for Inactive)
REMARK    1  A    between atoms: N_2  and  S_1 
REMARK    2  A    between atoms: C_3  and  S_1 
REMARK    3  A    between atoms: C_6  and  O_7 
REMARK    4  A    between atoms: O_7  and  C_11 
REMARK    5  A    between atoms: O_16  and  C_8 
ROOT
ATOM      1  C   UNL d   1      32.769  21.163 -21.381  0.00  0.00     0.104 A 
ATOM      2  C   UNL d   1      32.613  20.458 -20.999  0.00  0.00     0.015 A 
ATOM      3  C   UNL d   1      33.084  21.157 -22.152  0.00  0.00     0.015 A 
ATOM      4  C   UNL d   1      33.081  19.741 -22.143  0.00  0.00     0.100 A 
ATOM      5  C   UNL d   1      33.238  20.446 -22.528  0.00  0.00     0.025 A 
ATOM      6  C   UNL d   1      32.765  19.747 -21.372  0.00  0.00     0.025 A 
ENDROOT
BRANCH   4   7
ATOM      7  O   UNL d   1      33.234  19.012 -22.518  0.00  0.00    -0.305 OA
BRANCH   7   8
ATOM      8  C   UNL d   1      32.918  18.841 -23.266  0.00  0.00     0.122 A 
ATOM      9  C   UNL d   1      32.772  18.061 -23.482  0.00  0.00     0.117 A 
ATOM     10  C   UNL d   1      32.456  17.895 -24.230  0.00  0.00     0.026 A 
ATOM     11  C   UNL d   1      32.293  18.510 -24.750  0.00  0.00     0.002 A 
ATOM     12  C   UNL d   1      32.441  19.292 -24.532  0.00  0.00     0.002 A 
ATOM     13  C   UNL d   1      32.755  19.456 -23.786  0.00  0.00     0.027 A 
BRANCH   9  14
ATOM     14  O   UNL d   1      32.939  17.453 -22.955  0.00  0.00    -0.326 OA
ATOM     15  C   UNL d   1      33.195  16.732 -23.235  0.00  0.00     0.181 C 
ENDBRANCH   9  14
ENDBRANCH   7   8
ENDBRANCH   4   7
BRANCH   1  16
ATOM     16  S   UNL d   1      32.612  21.878 -20.998  0.00  0.00     0.271 S 
ATOM     17  O   UNL d   1      32.214  22.489 -21.398  0.00  0.00    -0.200 OA
ATOM     18  O   UNL d   1      32.850  21.990 -20.215  0.00  0.00    -0.200 OA
BRANCH  16  19
ATOM     19  N   UNL d   1      32.553  22.497 -20.454  0.00  0.00    -0.229 N 
ATOM     20  C   UNL d   1      32.989  22.574 -19.749  0.00  0.00     0.092 A 
ATOM     21  C   UNL d   1      32.761  23.273 -19.368  0.00  0.00     0.021 A 
ATOM     22  C   UNL d   1      32.184  23.635 -19.829  0.00  0.00     0.021 A 
ATOM     23  C   UNL d   1      32.049  23.162 -20.501  0.00  0.00     0.092 A 
ENDBRANCH  16  19
ENDBRANCH   1  16
TORSDOF 5
ENDMDL
