MODEL 1
REMARK VINA RESULT:      -7.8      0.000      0.000
REMARK  5 active torsions:
REMARK  status: ('A' for Active; 'I' for Inactive)
REMARK    1  A    between atoms: N_2  and  C_7 
REMARK    2  A    between atoms: N_6  and  C_3 
REMARK    3  A    between atoms: N_8  and  N_6 
REMARK    4  A    between atoms: C_15  and  N_8 
REMARK    5  A    between atoms: C_16  and  C_15 
ROOT
ATOM      1  C   UNL d   1      53.146  34.879  54.309  0.00  0.00     0.127 A 
ATOM      2  C   UNL d   1      53.550  34.420  54.862  0.00  0.00     0.024 A 
ATOM      3  C   UNL d   1      53.066  34.594  53.537  0.00  0.00     0.024 A 
ATOM      4  C   UNL d   1      53.788  33.412  53.887  0.00  0.00     0.021 A 
ATOM      5  C   UNL d   1      53.390  33.859  53.332  0.00  0.00     0.003 A 
ATOM      6  C   UNL d   1      53.865  33.691  54.639  0.00  0.00     0.003 A 
ENDROOT
BRANCH   4   7
ATOM      7  C   UNL d   1      54.111  32.679  53.681  0.00  0.00     0.122 C 
BRANCH   7   8
ATOM      8  N   UNL d   1      53.637  32.012  53.680  0.00  0.00    -0.144 NA
BRANCH   8   9
ATOM      9  N   UNL d   1      53.939  31.290  53.355  0.00  0.00    -0.121 NA
BRANCH   9  10
ATOM     10  C   UNL d   1      53.489  30.593  53.478  0.00  0.00     0.217 A 
ATOM     11  N   UNL d   1      53.659  30.056  54.049  0.00  0.00    -0.181 NA
ATOM     12  C   UNL d   1      53.099  29.442  54.006  0.00  0.00     0.288 A 
ATOM     13  O   UNL d   1      53.106  28.780  54.523  0.00  0.00    -0.265 OA
ATOM     14  C   UNL d   1      52.584  29.605  53.406  0.00  0.00     0.101 A 
ATOM     15  S   UNL d   1      52.830  30.327  53.076  0.00  0.00    -0.041 SA
ENDBRANCH   9  10
ENDBRANCH   8   9
ENDBRANCH   7   8
ENDBRANCH   4   7
BRANCH   1  16
ATOM     16  N   UNL d   1      52.830  35.588  54.494  0.00  0.00    -0.114 N 
ATOM     17  O   UNL d   1      53.276  36.274  54.631  0.00  0.00    -0.532 OA
ATOM     18  O   UNL d   1      52.046  35.757  54.578  0.00  0.00    -0.532 OA
ENDBRANCH   1  16
TORSDOF 5
ENDMDL
MODEL 2
REMARK VINA RESULT:      -7.4      1.593      4.858
REMARK  5 active torsions:
REMARK  status: ('A' for Active; 'I' for Inactive)
REMARK    1  A    between atoms: N_2  and  C_7 
REMARK    2  A    between atoms: N_6  and  C_3 
REMARK    3  A    between atoms: N_8  and  N_6 
REMARK    4  A    between atoms: C_15  and  N_8 
REMARK    5  A    between atoms: C_16  and  C_15 
ROOT
ATOM      1  C   UNL d   1      53.208  29.483  54.113  0.00  0.00     0.127 A 
ATOM      2  C   UNL d   1      52.555  29.546  53.615  0.00  0.00     0.024 A 
ATOM      3  C   UNL d   1      53.759  30.100  54.126  0.00  0.00     0.024 A 
ATOM      4  C   UNL d   1      52.997  30.817  53.154  0.00  0.00     0.021 A 
ATOM      5  C   UNL d   1      53.648  30.765  53.644  0.00  0.00     0.003 A 
ATOM      6  C   UNL d   1      52.460  30.215  53.142  0.00  0.00     0.003 A 
ENDROOT
BRANCH   4   7
ATOM      7  C   UNL d   1      52.886  31.480  52.673  0.00  0.00     0.122 C 
BRANCH   7   8
ATOM      8  N   UNL d   1      52.630  32.184  53.003  0.00  0.00    -0.144 NA
BRANCH   8   9
ATOM      9  N   UNL d   1      52.512  32.857  52.502  0.00  0.00    -0.121 NA
BRANCH   9  10
ATOM     10  C   UNL d   1      52.307  33.582  52.871  0.00  0.00     0.217 A 
ATOM     11  N   UNL d   1      52.843  34.062  53.225  0.00  0.00    -0.181 NA
ATOM     12  C   UNL d   1      52.442  34.725  53.528  0.00  0.00     0.288 A 
ATOM     13  O   UNL d   1      52.831  35.347  53.937  0.00  0.00    -0.265 OA
ATOM     14  C   UNL d   1      51.656  34.650  53.359  0.00  0.00     0.101 A 
ATOM     15  S   UNL d   1      51.573  33.932  52.947  0.00  0.00    -0.041 SA
ENDBRANCH   9  10
ENDBRANCH   8   9
ENDBRANCH   7   8
ENDBRANCH   4   7
BRANCH   1  16
ATOM     16  N   UNL d   1      53.327  28.849  54.582  0.00  0.00    -0.114 N 
ATOM     17  O   UNL d   1      53.066  28.797  55.369  0.00  0.00    -0.532 OA
ATOM     18  O   UNL d   1      53.709  28.168  54.382  0.00  0.00    -0.532 OA
ENDBRANCH   1  16
TORSDOF 5
ENDMDL
MODEL 3
REMARK VINA RESULT:      -7.1      2.724      3.583
REMARK  5 active torsions:
REMARK  status: ('A' for Active; 'I' for Inactive)
REMARK    1  A    between atoms: N_2  and  C_7 
REMARK    2  A    between atoms: N_6  and  C_3 
REMARK    3  A    between atoms: N_8  and  N_6 
REMARK    4  A    between atoms: C_15  and  N_8 
REMARK    5  A    between atoms: C_16  and  C_15 
ROOT
ATOM      1  C   UNL d   1      50.313  34.254  52.558  0.00  0.00     0.127 A 
ATOM      2  C   UNL d   1      50.996  34.423  52.129  0.00  0.00     0.024 A 
ATOM      3  C   UNL d   1      50.341  33.658  53.131  0.00  0.00     0.024 A 
ATOM      4  C   UNL d   1      51.719  33.421  52.833  0.00  0.00     0.021 A 
ATOM      5  C   UNL d   1      51.048  33.245  53.265  0.00  0.00     0.003 A 
ATOM      6  C   UNL d   1      51.690  34.002  52.275  0.00  0.00     0.003 A 
ENDROOT
BRANCH   4   7
ATOM      7  C   UNL d   1      52.422  33.009  52.967  0.00  0.00     0.122 C 
BRANCH   7   8
ATOM      8  N   UNL d   1      52.878  33.185  53.624  0.00  0.00    -0.144 NA
BRANCH   8   9
ATOM      9  N   UNL d   1      53.640  32.823  53.707  0.00  0.00    -0.121 NA
BRANCH   9  10
ATOM     10  C   UNL d   1      54.105  33.049  54.368  0.00  0.00     0.217 A 
ATOM     11  N   UNL d   1      54.719  33.562  54.318  0.00  0.00    -0.181 NA
ATOM     12  C   UNL d   1      55.047  33.654  55.076  0.00  0.00     0.288 A 
ATOM     13  O   UNL d   1      55.703  34.154  55.233  0.00  0.00    -0.265 OA
ATOM     14  C   UNL d   1      54.631  33.194  55.594  0.00  0.00     0.101 A 
ATOM     15  S   UNL d   1      54.040  32.815  55.148  0.00  0.00    -0.041 SA
ENDBRANCH   9  10
ENDBRANCH   8   9
ENDBRANCH   7   8
ENDBRANCH   4   7
BRANCH   1  16
ATOM     16  N   UNL d   1      49.628  34.644  52.439  0.00  0.00    -0.114 N 
ATOM     17  O   UNL d   1      49.171  34.580  51.749  0.00  0.00    -0.532 OA
ATOM     18  O   UNL d   1      49.269  35.152  52.952  0.00  0.00    -0.532 OA
ENDBRANCH   1  16
TORSDOF 5
ENDMDL
MODEL 4
REMARK VINA RESULT:      -7.0      2.005      2.352
REMARK  5 active torsions:
REMARK  status: ('A' for Active; 'I' for Inactive)
REMARK    1  A    between atoms: N_2  and  C_7 
REMARK    2  A    between atoms: N_6  and  C_3 
REMARK    3  A    between atoms: N_8  and  N_6 
REMARK    4  A    between atoms: C_15  and  N_8 
REMARK    5  A    between atoms: C_16  and  C_15 
ROOT
ATOM      1  C   UNL d   1      50.562  34.195  52.664  0.00  0.00     0.127 A 
ATOM      2  C   UNL d   1      51.245  34.270  52.208  0.00  0.00     0.024 A 
ATOM      3  C   UNL d   1      50.570  33.679  53.310  0.00  0.00     0.024 A 
ATOM      4  C   UNL d   1      51.928  33.331  53.030  0.00  0.00     0.021 A 
ATOM      5  C   UNL d   1      51.257  33.249  53.489  0.00  0.00     0.003 A 
ATOM      6  C   UNL d   1      51.918  33.834  52.400  0.00  0.00     0.003 A 
ENDROOT
BRANCH   4   7
ATOM      7  C   UNL d   1      52.611  32.902  53.208  0.00  0.00     0.122 C 
BRANCH   7   8
ATOM      8  N   UNL d   1      52.605  32.086  53.154  0.00  0.00    -0.144 NA
BRANCH   8   9
ATOM      9  N   UNL d   1      53.306  31.652  53.351  0.00  0.00    -0.121 NA
BRANCH   9  10
ATOM     10  C   UNL d   1      53.234  30.822  53.442  0.00  0.00     0.217 A 
ATOM     11  N   UNL d   1      53.367  30.443  54.137  0.00  0.00    -0.181 NA
ATOM     12  C   UNL d   1      53.244  29.629  54.020  0.00  0.00     0.288 A 
ATOM     13  O   UNL d   1      53.334  29.061  54.631  0.00  0.00    -0.265 OA
ATOM     14  C   UNL d   1      53.034  29.508  53.249  0.00  0.00     0.101 A 
ATOM     15  S   UNL d   1      53.029  30.258  52.888  0.00  0.00    -0.041 SA
ENDBRANCH   9  10
ENDBRANCH   8   9
ENDBRANCH   7   8
ENDBRANCH   4   7
BRANCH   1  16
ATOM     16  N   UNL d   1      49.896  34.603  52.503  0.00  0.00    -0.114 N 
ATOM     17  O   UNL d   1      49.544  35.144  53.026  0.00  0.00    -0.532 OA
ATOM     18  O   UNL d   1      49.459  34.563  51.827  0.00  0.00    -0.532 OA
ENDBRANCH   1  16
TORSDOF 5
ENDMDL
MODEL 5
REMARK VINA RESULT:      -5.8      3.878      5.612
REMARK  5 active torsions:
REMARK  status: ('A' for Active; 'I' for Inactive)
REMARK    1  A    between atoms: N_2  and  C_7 
REMARK    2  A    between atoms: N_6  and  C_3 
REMARK    3  A    between atoms: N_8  and  N_6 
REMARK    4  A    between atoms: C_15  and  N_8 
REMARK    5  A    between atoms: C_16  and  C_15 
ROOT
ATOM      1  C   UNL d   1      52.215  33.575  53.423  0.00  0.00     0.127 A 
ATOM      2  C   UNL d   1      52.187  34.339  53.114  0.00  0.00     0.024 A 
ATOM      3  C   UNL d   1      51.534  33.107  53.388  0.00  0.00     0.024 A 
ATOM      4  C   UNL d   1      50.825  34.166  52.742  0.00  0.00     0.021 A 
ATOM      5  C   UNL d   1      50.841  33.408  53.046  0.00  0.00     0.003 A 
ATOM      6  C   UNL d   1      51.489  34.621  52.778  0.00  0.00     0.003 A 
ENDROOT
BRANCH   4   7
ATOM      7  C   UNL d   1      50.134  34.465  52.402  0.00  0.00     0.122 C 
BRANCH   7   8
ATOM      8  N   UNL d   1      49.630  34.932  52.847  0.00  0.00    -0.144 NA
BRANCH   8   9
ATOM      9  N   UNL d   1      48.871  35.140  52.531  0.00  0.00    -0.121 NA
BRANCH   9  10
ATOM     10  C   UNL d   1      48.426  35.717  52.945  0.00  0.00     0.217 A 
ATOM     11  N   UNL d   1      48.479  35.828  53.738  0.00  0.00    -0.181 NA
ATOM     12  C   UNL d   1      47.961  36.442  53.953  0.00  0.00     0.288 A 
ATOM     13  O   UNL d   1      47.871  36.709  54.743  0.00  0.00    -0.265 OA
ATOM     14  C   UNL d   1      47.588  36.709  53.288  0.00  0.00     0.101 A 
ATOM     15  S   UNL d   1      47.881  36.253  52.656  0.00  0.00    -0.041 SA
ENDBRANCH   9  10
ENDBRANCH   8   9
ENDBRANCH   7   8
ENDBRANCH   4   7
BRANCH   1  16
ATOM     16  N   UNL d   1      52.874  33.274  53.755  0.00  0.00    -0.114 N 
ATOM     17  O   UNL d   1      53.116  33.428  54.534  0.00  0.00    -0.532 OA
ATOM     18  O   UNL d   1      53.407  32.781  53.403  0.00  0.00    -0.532 OA
ENDBRANCH   1  16
TORSDOF 5
ENDMDL
MODEL 6
REMARK VINA RESULT:      -5.8      2.972      4.236
REMARK  5 active torsions:
REMARK  status: ('A' for Active; 'I' for Inactive)
REMARK    1  A    between atoms: N_2  and  C_7 
REMARK    2  A    between atoms: N_6  and  C_3 
REMARK    3  A    between atoms: N_8  and  N_6 
REMARK    4  A    between atoms: C_15  and  N_8 
REMARK    5  A    between atoms: C_16  and  C_15 
ROOT
ATOM      1  C   UNL d   1      53.991  33.577  54.647  0.00  0.00     0.127 A 
ATOM      2  C   UNL d   1      53.819  33.053  54.034  0.00  0.00     0.024 A 
ATOM      3  C   UNL d   1      53.655  34.333  54.629  0.00  0.00     0.024 A 
ATOM      4  C   UNL d   1      52.992  34.022  53.402  0.00  0.00     0.021 A 
ATOM      5  C   UNL d   1      53.155  34.549  54.003  0.00  0.00     0.003 A 
ATOM      6  C   UNL d   1      53.320  33.286  53.420  0.00  0.00     0.003 A 
ENDROOT
BRANCH   4   7
ATOM      7  C   UNL d   1      52.494  34.239  52.779  0.00  0.00     0.122 C 
BRANCH   7   8
ATOM      8  N   UNL d   1      51.682  34.227  52.884  0.00  0.00    -0.144 NA
BRANCH   8   9
ATOM      9  N   UNL d   1      51.180  34.097  52.214  0.00  0.00    -0.121 NA
BRANCH   9  10
ATOM     10  C   UNL d   1      50.389  34.369  52.265  0.00  0.00     0.217 A 
ATOM     11  N   UNL d   1      49.900  34.423  51.632  0.00  0.00    -0.181 NA
ATOM     12  C   UNL d   1      49.165  34.712  51.891  0.00  0.00     0.288 A 
ATOM     13  O   UNL d   1      48.515  34.839  51.374  0.00  0.00    -0.265 OA
ATOM     14  C   UNL d   1      49.203  34.836  52.688  0.00  0.00     0.101 A 
ATOM     15  S   UNL d   1      49.972  34.621  52.922  0.00  0.00    -0.041 SA
ENDBRANCH   9  10
ENDBRANCH   8   9
ENDBRANCH   7   8
ENDBRANCH   4   7
BRANCH   1  16
ATOM     16  N   UNL d   1      54.469  33.381  55.254  0.00  0.00    -0.114 N 
ATOM     17  O   UNL d   1      55.139  33.817  55.478  0.00  0.00    -0.532 OA
ATOM     18  O   UNL d   1      54.390  32.744  55.742  0.00  0.00    -0.532 OA
ENDBRANCH   1  16
TORSDOF 5
ENDMDL
MODEL 7
REMARK VINA RESULT:      -5.7      2.316      4.787
REMARK  5 active torsions:
REMARK  status: ('A' for Active; 'I' for Inactive)
REMARK    1  A    between atoms: N_2  and  C_7 
REMARK    2  A    between atoms: N_6  and  C_3 
REMARK    3  A    between atoms: N_8  and  N_6 
REMARK    4  A    between atoms: C_15  and  N_8 
REMARK    5  A    between atoms: C_16  and  C_15 
ROOT
ATOM      1  C   UNL d   1      53.309  30.891  53.528  0.00  0.00     0.127 A 
ATOM      2  C   UNL d   1      52.729  31.059  52.968  0.00  0.00     0.024 A 
ATOM      3  C   UNL d   1      53.675  31.518  53.923  0.00  0.00     0.024 A 
ATOM      4  C   UNL d   1      52.879  32.455  53.196  0.00  0.00     0.021 A 
ATOM      5  C   UNL d   1      53.456  32.299  53.753  0.00  0.00     0.003 A 
ATOM      6  C   UNL d   1      52.523  31.843  52.812  0.00  0.00     0.003 A 
ENDROOT
BRANCH   4   7
ATOM      7  C   UNL d   1      52.661  33.234  53.027  0.00  0.00     0.122 C 
BRANCH   7   8
ATOM      8  N   UNL d   1      51.869  33.430  52.965  0.00  0.00    -0.144 NA
BRANCH   8   9
ATOM      9  N   UNL d   1      51.640  34.246  52.998  0.00  0.00    -0.121 NA
BRANCH   9  10
ATOM     10  C   UNL d   1      50.846  34.433  52.805  0.00  0.00     0.217 A 
ATOM     11  N   UNL d   1      50.370  34.871  53.279  0.00  0.00    -0.181 NA
ATOM     12  C   UNL d   1      49.627  34.943  52.911  0.00  0.00     0.288 A 
ATOM     13  O   UNL d   1      48.988  35.368  53.251  0.00  0.00    -0.265 OA
ATOM     14  C   UNL d   1      49.649  34.546  52.208  0.00  0.00     0.101 A 
ATOM     15  S   UNL d   1      50.414  34.226  52.143  0.00  0.00    -0.041 SA
ENDBRANCH   9  10
ENDBRANCH   8   9
ENDBRANCH   7   8
ENDBRANCH   4   7
BRANCH   1  16
ATOM     16  N   UNL d   1      53.530  30.144  53.701  0.00  0.00    -0.114 N 
ATOM     17  O   UNL d   1      53.432  29.791  54.446  0.00  0.00    -0.532 OA
ATOM     18  O   UNL d   1      53.876  29.616  53.200  0.00  0.00    -0.532 OA
ENDBRANCH   1  16
TORSDOF 5
ENDMDL
MODEL 8
REMARK VINA RESULT:      -5.0      3.715      4.728
REMARK  5 active torsions:
REMARK  status: ('A' for Active; 'I' for Inactive)
REMARK    1  A    between atoms: N_2  and  C_7 
REMARK    2  A    between atoms: N_6  and  C_3 
REMARK    3  A    between atoms: N_8  and  N_6 
REMARK    4  A    between atoms: C_15  and  N_8 
REMARK    5  A    between atoms: C_16  and  C_15 
ROOT
ATOM      1  C   UNL d   1      48.496  35.272  52.087  0.00  0.00     0.127 A 
ATOM      2  C   UNL d   1      48.865  35.310  52.823  0.00  0.00     0.024 A 
ATOM      3  C   UNL d   1      48.852  34.828  51.486  0.00  0.00     0.024 A 
ATOM      4  C   UNL d   1      49.923  34.477  52.365  0.00  0.00     0.021 A 
ATOM      5  C   UNL d   1      49.567  34.433  51.632  0.00  0.00     0.003 A 
ATOM      6  C   UNL d   1      49.575  34.910  52.949  0.00  0.00     0.003 A 
ENDROOT
BRANCH   4   7
ATOM      7  C   UNL d   1      50.635  34.083  52.509  0.00  0.00     0.122 C 
BRANCH   7   8
ATOM      8  N   UNL d   1      51.205  34.432  52.981  0.00  0.00    -0.144 NA
BRANCH   8   9
ATOM      9  N   UNL d   1      52.019  34.225  52.869  0.00  0.00    -0.121 NA
BRANCH   9  10
ATOM     10  C   UNL d   1      52.531  34.299  53.528  0.00  0.00     0.217 A 
ATOM     11  N   UNL d   1      52.786  33.673  53.959  0.00  0.00    -0.181 NA
ATOM     12  C   UNL d   1      53.282  33.955  54.565  0.00  0.00     0.288 A 
ATOM     13  O   UNL d   1      53.650  33.450  55.126  0.00  0.00    -0.265 OA
ATOM     14  C   UNL d   1      53.330  34.758  54.504  0.00  0.00     0.101 A 
ATOM     15  S   UNL d   1      52.859  34.973  53.853  0.00  0.00    -0.041 SA
ENDBRANCH   9  10
ENDBRANCH   8   9
ENDBRANCH   7   8
ENDBRANCH   4   7
BRANCH   1  16
ATOM     16  N   UNL d   1      47.809  35.647  51.934  0.00  0.00    -0.114 N 
ATOM     17  O   UNL d   1      47.244  35.379  51.388  0.00  0.00    -0.532 OA
ATOM     18  O   UNL d   1      47.551  36.332  52.271  0.00  0.00    -0.532 OA
ENDBRANCH   1  16
TORSDOF 5
ENDMDL
