MODEL 1
REMARK VINA RESULT:      -6.6      0.000      0.000
REMARK  3 active torsions:
REMARK  status: ('A' for Active; 'I' for Inactive)
REMARK    1  A    between atoms: C_4  and  C_1 
REMARK       I    between atoms: N_6  and  C_4 
REMARK    2  A    between atoms: C_8  and  C_5 
REMARK    3  A    between atoms: C_7  and  N_6 
ROOT
ATOM      1  C   UNL d   1      57.134  -0.410  31.621  0.00  0.00     0.192 A 
ATOM      2  C   UNL d   1      56.192  -1.283  32.273  0.00  0.00     0.296 A 
ATOM      3  O   UNL d   1      56.768  -1.158  31.687  0.00  0.00    -0.290 OA
ATOM      4  C   UNL d   1      55.977  -0.673  32.790  0.00  0.00     0.063 A 
ATOM      5  C   UNL d   1      56.348   0.072  32.717  0.00  0.00     0.004 A 
ATOM      6  C   UNL d   1      56.922   0.204  32.137  0.00  0.00     0.010 A 
ATOM      7  O   UNL d   1      55.832  -2.019  32.338  0.00  0.00    -0.259 OA
ATOM      8  C   UNL d   1      57.489   0.329  31.561  0.00  0.00     0.045 C 
ATOM      9  C   UNL d   1      56.133   0.682  33.234  0.00  0.00    -0.000 A 
ATOM     10  C   UNL d   1      55.410  -0.797  33.366  0.00  0.00     0.005 A 
ATOM     11  C   UNL d   1      55.560   0.546  33.811  0.00  0.00    -0.000 A 
ATOM     12  C   UNL d   1      55.200  -0.190  33.877  0.00  0.00     0.000 A 
ENDROOT
BRANCH   1  13
ATOM     13  C   UNL d   1      57.474  -0.865  31.034  0.00  0.00     0.285 C 
ATOM     14  N   UNL d   1      57.912  -0.505  30.435  0.00  0.00    -0.209 NA
ATOM     15  O   UNL d   1      57.376  -1.685  31.043  0.00  0.00    -0.267 OA
BRANCH  14  16
ATOM     16  C   UNL d   1      58.253  -0.969  29.846  0.00  0.00     0.090 A 
ATOM     17  C   UNL d   1      58.547  -0.614  29.172  0.00  0.00     0.082 A 
ATOM     18  C   UNL d   1      58.889  -1.077  28.580  0.00  0.00     0.008 A 
ATOM     19  C   UNL d   1      58.933  -1.895  28.670  0.00  0.00     0.000 A 
ATOM     20  C   UNL d   1      58.633  -2.249  29.355  0.00  0.00     0.002 A 
ATOM     21  C   UNL d   1      58.294  -1.780  29.938  0.00  0.00     0.019 A 
BRANCH  17  22
ATOM     22  C   UNL d   1      58.502   0.207  29.084  0.00  0.00     0.212 C 
ATOM     23  O   UNL d   1      59.120   0.682  29.361  0.00  0.00    -0.644 OA
ATOM     24  O   UNL d   1      57.850   0.544  28.725  0.00  0.00    -0.644 OA
ENDBRANCH  17  22
ENDBRANCH  14  16
ENDBRANCH   1  13
TORSDOF 3
ENDMDL
MODEL 2
REMARK VINA RESULT:      -4.7      1.492      1.980
REMARK  3 active torsions:
REMARK  status: ('A' for Active; 'I' for Inactive)
REMARK    1  A    between atoms: C_4  and  C_1 
REMARK       I    between atoms: N_6  and  C_4 
REMARK    2  A    between atoms: C_8  and  C_5 
REMARK    3  A    between atoms: C_7  and  N_6 
ROOT
ATOM      1  C   UNL d   1      57.115   0.567  32.136  0.00  0.00     0.192 A 
ATOM      2  C   UNL d   1      57.309   0.643  33.561  0.00  0.00     0.296 A 
ATOM      3  O   UNL d   1      57.627   0.605  32.794  0.00  0.00    -0.290 OA
ATOM      4  C   UNL d   1      56.489   0.643  33.677  0.00  0.00     0.063 A 
ATOM      5  C   UNL d   1      55.984   0.605  33.013  0.00  0.00     0.004 A 
ATOM      6  C   UNL d   1      56.293   0.567  32.248  0.00  0.00     0.010 A 
ATOM      7  O   UNL d   1      57.813   0.681  34.209  0.00  0.00    -0.259 OA
ATOM      8  C   UNL d   1      56.605   0.530  31.493  0.00  0.00     0.045 C 
ATOM      9  C   UNL d   1      55.164   0.604  33.130  0.00  0.00    -0.000 A 
ATOM     10  C   UNL d   1      56.177   0.680  34.433  0.00  0.00     0.005 A 
ATOM     11  C   UNL d   1      54.860   0.642  33.895  0.00  0.00    -0.000 A 
ATOM     12  C   UNL d   1      55.364   0.680  34.544  0.00  0.00     0.000 A 
ENDROOT
BRANCH   1  13
ATOM     13  C   UNL d   1      57.868   0.556  31.820  0.00  0.00     0.285 C 
ATOM     14  N   UNL d   1      57.972   0.466  31.006  0.00  0.00    -0.209 NA
ATOM     15  O   UNL d   1      58.523   0.636  32.317  0.00  0.00    -0.267 OA
BRANCH  14  16
ATOM     16  C   UNL d   1      58.733   0.456  30.693  0.00  0.00     0.090 A 
ATOM     17  C   UNL d   1      58.849   0.219  29.920  0.00  0.00     0.082 A 
ATOM     18  C   UNL d   1      59.612   0.208  29.603  0.00  0.00     0.008 A 
ATOM     19  C   UNL d   1      60.254   0.436  30.067  0.00  0.00     0.000 A 
ATOM     20  C   UNL d   1      60.131   0.674  30.849  0.00  0.00     0.002 A 
ATOM     21  C   UNL d   1      59.369   0.682  31.155  0.00  0.00     0.019 A 
BRANCH  17  22
ATOM     22  C   UNL d   1      58.203  -0.008  29.456  0.00  0.00     0.212 C 
ATOM     23  O   UNL d   1      57.797   0.561  29.014  0.00  0.00    -0.644 OA
ATOM     24  O   UNL d   1      57.970  -0.791  29.437  0.00  0.00    -0.644 OA
ENDBRANCH  17  22
ENDBRANCH  14  16
ENDBRANCH   1  13
TORSDOF 3
ENDMDL
MODEL 3
REMARK VINA RESULT:      -4.6      1.328      1.918
REMARK  3 active torsions:
REMARK  status: ('A' for Active; 'I' for Inactive)
REMARK    1  A    between atoms: C_4  and  C_1 
REMARK       I    between atoms: N_6  and  C_4 
REMARK    2  A    between atoms: C_8  and  C_5 
REMARK    3  A    between atoms: C_7  and  N_6 
ROOT
ATOM      1  C   UNL d   1      57.578  -0.013  31.195  0.00  0.00     0.192 A 
ATOM      2  C   UNL d   1      57.979   0.405  32.513  0.00  0.00     0.296 A 
ATOM      3  O   UNL d   1      58.167   0.268  31.716  0.00  0.00    -0.290 OA
ATOM      4  C   UNL d   1      57.214   0.266  32.796  0.00  0.00     0.063 A 
ATOM      5  C   UNL d   1      56.630  -0.015  32.268  0.00  0.00     0.004 A 
ATOM      6  C   UNL d   1      56.810  -0.154  31.474  0.00  0.00     0.010 A 
ATOM      7  O   UNL d   1      58.559   0.682  33.026  0.00  0.00    -0.259 OA
ATOM      8  C   UNL d   1      56.993  -0.290  30.688  0.00  0.00     0.045 C 
ATOM      9  C   UNL d   1      55.865  -0.155  32.551  0.00  0.00    -0.000 A 
ATOM     10  C   UNL d   1      57.030   0.402  33.581  0.00  0.00     0.005 A 
ATOM     11  C   UNL d   1      55.690  -0.015  33.345  0.00  0.00    -0.000 A 
ATOM     12  C   UNL d   1      56.270   0.262  33.857  0.00  0.00     0.000 A 
ENDROOT
BRANCH   1  13
ATOM     13  C   UNL d   1      58.250   0.059  30.736  0.00  0.00     0.285 C 
ATOM     14  N   UNL d   1      58.401  -0.489  30.138  0.00  0.00    -0.209 NA
ATOM     15  O   UNL d   1      58.775   0.682  30.872  0.00  0.00    -0.267 OA
BRANCH  14  16
ATOM     16  C   UNL d   1      59.080  -0.411  29.678  0.00  0.00     0.090 A 
ATOM     17  C   UNL d   1      59.291  -1.010  29.164  0.00  0.00     0.082 A 
ATOM     18  C   UNL d   1      59.971  -0.935  28.703  0.00  0.00     0.008 A 
ATOM     19  C   UNL d   1      60.435  -0.256  28.760  0.00  0.00     0.000 A 
ATOM     20  C   UNL d   1      60.217   0.348  29.282  0.00  0.00     0.002 A 
ATOM     21  C   UNL d   1      59.539   0.263  29.738  0.00  0.00     0.019 A 
BRANCH  17  22
ATOM     22  C   UNL d   1      58.824  -1.690  29.108  0.00  0.00     0.212 C 
ATOM     23  O   UNL d   1      58.981  -2.335  29.602  0.00  0.00    -0.644 OA
ATOM     24  O   UNL d   1      58.212  -1.721  28.568  0.00  0.00    -0.644 OA
ENDBRANCH  17  22
ENDBRANCH  14  16
ENDBRANCH   1  13
TORSDOF 3
ENDMDL
