MODEL 1
REMARK VINA RESULT:      -3.8      0.000      0.000
REMARK  3 active torsions:
REMARK  status: ('A' for Active; 'I' for Inactive)
REMARK    1  A    between atoms: C_6  and  C_16 
REMARK    2  A    between atoms: S_14  and  C_8 
REMARK    3  A    between atoms: C_16  and  S_14 
ROOT
ATOM      1  C   UNL d   1      56.530   0.421  33.044  0.00  0.00     0.141 A 
ATOM      2  O   UNL d   1      55.752   0.330  32.783  0.00  0.00    -0.303 OA
ATOM      3  C   UNL d   1      56.512   0.567  33.855  0.00  0.00     0.110 A 
ATOM      4  C   UNL d   1      55.723   0.567  34.097  0.00  0.00     0.043 A 
ATOM      5  C   UNL d   1      57.254   0.389  32.646  0.00  0.00     0.137 A 
ATOM      6  C   UNL d   1      55.254   0.421  33.434  0.00  0.00     0.102 A 
ATOM      7  N   UNL d   1      57.958   0.503  33.062  0.00  0.00    -0.215 NA
ATOM      8  N   UNL d   1      57.216   0.681  34.271  0.00  0.00    -0.222 NA
ATOM      9  C   UNL d   1      57.939   0.649  33.873  0.00  0.00     0.200 A 
ATOM     10  C   UNL d   1      55.372   0.682  34.834  0.00  0.00     0.004 A 
ATOM     11  C   UNL d   1      54.432   0.389  33.509  0.00  0.00     0.025 A 
ATOM     12  C   UNL d   1      54.550   0.650  34.909  0.00  0.00     0.000 A 
ATOM     13  C   UNL d   1      54.080   0.504  34.246  0.00  0.00     0.002 A 
ENDROOT
BRANCH   5  14
ATOM     14  S   UNL d   1      57.272   0.242  31.834  0.00  0.00    -0.062 SA
BRANCH  14  15
ATOM     15  C   UNL d   1      57.772   0.682  31.347  0.00  0.00     0.076 C 
BRANCH  15  16
ATOM     16  C   UNL d   1      58.129   0.325  30.695  0.00  0.00     0.169 A 
ATOM     17  N   UNL d   1      57.903  -0.389  30.347  0.00  0.00    -0.225 NA
ATOM     18  C   UNL d   1      58.409  -0.536  29.713  0.00  0.00     0.101 A 
ATOM     19  C   UNL d   1      58.449  -1.155  29.170  0.00  0.00     0.021 A 
ATOM     20  C   UNL d   1      58.949   0.087  29.667  0.00  0.00     0.101 A 
ATOM     21  C   UNL d   1      59.029  -1.152  28.582  0.00  0.00     0.002 A 
ATOM     22  C   UNL d   1      59.567  -0.531  28.537  0.00  0.00     0.002 A 
ATOM     23  C   UNL d   1      59.527   0.089  29.080  0.00  0.00     0.021 A 
ATOM     24  N   UNL d   1      58.776   0.618  30.274  0.00  0.00    -0.225 NA
ENDBRANCH  15  16
ENDBRANCH  14  15
ENDBRANCH   5  14
TORSDOF 3
ENDMDL
MODEL 2
REMARK VINA RESULT:      -3.7     10.153     11.069
REMARK  3 active torsions:
REMARK  status: ('A' for Active; 'I' for Inactive)
REMARK    1  A    between atoms: C_6  and  C_16 
REMARK    2  A    between atoms: S_14  and  C_8 
REMARK    3  A    between atoms: C_16  and  S_14 
ROOT
ATOM      1  C   UNL d   1      59.272  -9.814  30.739  0.00  0.00     0.141 A 
ATOM      2  O   UNL d   1      58.466  -9.816  30.916  0.00  0.00    -0.303 OA
ATOM      3  C   UNL d   1      59.353  -9.812  29.918  0.00  0.00     0.110 A 
ATOM      4  C   UNL d   1      58.597  -9.813  29.588  0.00  0.00     0.043 A 
ATOM      5  C   UNL d   1      59.945  -9.813  31.219  0.00  0.00     0.137 A 
ATOM      6  C   UNL d   1      58.050  -9.816  30.204  0.00  0.00     0.102 A 
ATOM      7  N   UNL d   1      60.696  -9.810  30.877  0.00  0.00    -0.215 NA
ATOM      8  N   UNL d   1      60.104  -9.809  29.576  0.00  0.00    -0.222 NA
ATOM      9  C   UNL d   1      60.776  -9.808  30.057  0.00  0.00     0.200 A 
ATOM     10  C   UNL d   1      58.337  -9.812  28.804  0.00  0.00     0.004 A 
ATOM     11  C   UNL d   1      57.241  -9.818  30.038  0.00  0.00     0.025 A 
ATOM     12  C   UNL d   1      57.527  -9.814  28.639  0.00  0.00     0.000 A 
ATOM     13  C   UNL d   1      56.979  -9.817  29.256  0.00  0.00     0.002 A 
ENDROOT
BRANCH   5  14
ATOM     14  S   UNL d   1      59.864  -9.815  32.041  0.00  0.00    -0.062 SA
BRANCH  14  15
ATOM     15  C   UNL d   1      60.512  -9.633  32.519  0.00  0.00     0.076 C 
BRANCH  15  16
ATOM     16  C   UNL d   1      60.400  -9.477  33.320  0.00  0.00     0.169 A 
ATOM     17  N   UNL d   1      60.842  -8.955  33.781  0.00  0.00    -0.225 NA
ATOM     18  C   UNL d   1      60.541  -8.971  34.548  0.00  0.00     0.101 A 
ATOM     19  C   UNL d   1      60.757  -8.570  35.236  0.00  0.00     0.021 A 
ATOM     20  C   UNL d   1      59.911  -9.504  34.564  0.00  0.00     0.101 A 
ATOM     21  C   UNL d   1      60.344  -8.702  35.938  0.00  0.00     0.002 A 
ATOM     22  C   UNL d   1      59.716  -9.234  35.953  0.00  0.00     0.002 A 
ATOM     23  C   UNL d   1      59.499  -9.636  35.265  0.00  0.00     0.021 A 
ATOM     24  N   UNL d   1      59.824  -9.817  33.805  0.00  0.00    -0.225 NA
ENDBRANCH  15  16
ENDBRANCH  14  15
ENDBRANCH   5  14
TORSDOF 3
ENDMDL
MODEL 3
REMARK VINA RESULT:      -3.1      1.272      1.916
REMARK  3 active torsions:
REMARK  status: ('A' for Active; 'I' for Inactive)
REMARK    1  A    between atoms: C_6  and  C_16 
REMARK    2  A    between atoms: S_14  and  C_8 
REMARK    3  A    between atoms: C_16  and  S_14 
ROOT
ATOM      1  C   UNL d   1      57.275  -0.117  31.971  0.00  0.00     0.141 A 
ATOM      2  O   UNL d   1      56.516  -0.442  31.979  0.00  0.00    -0.303 OA
ATOM      3  C   UNL d   1      57.383   0.296  32.676  0.00  0.00     0.110 A 
ATOM      4  C   UNL d   1      56.692   0.228  33.121  0.00  0.00     0.043 A 
ATOM      5  C   UNL d   1      57.882  -0.145  31.411  0.00  0.00     0.137 A 
ATOM      6  C   UNL d   1      56.157  -0.228  32.690  0.00  0.00     0.102 A 
ATOM      7  N   UNL d   1      58.597   0.241  31.559  0.00  0.00    -0.215 NA
ATOM      8  N   UNL d   1      58.098   0.682  32.824  0.00  0.00    -0.222 NA
ATOM      9  C   UNL d   1      58.705   0.654  32.264  0.00  0.00     0.200 A 
ATOM     10  C   UNL d   1      56.481   0.522  33.863  0.00  0.00     0.004 A 
ATOM     11  C   UNL d   1      55.409  -0.390  33.001  0.00  0.00     0.025 A 
ATOM     12  C   UNL d   1      55.733   0.360  34.173  0.00  0.00     0.000 A 
ATOM     13  C   UNL d   1      55.197  -0.096  33.742  0.00  0.00     0.002 A 
ENDROOT
BRANCH   5  14
ATOM     14  S   UNL d   1      57.774  -0.559  30.705  0.00  0.00    -0.062 SA
BRANCH  14  15
ATOM     15  C   UNL d   1      58.325  -0.486  30.096  0.00  0.00     0.076 C 
BRANCH  15  16
ATOM     16  C   UNL d   1      58.620  -1.162  29.726  0.00  0.00     0.169 A 
ATOM     17  N   UNL d   1      59.413  -1.319  29.561  0.00  0.00    -0.225 NA
ATOM     18  C   UNL d   1      59.457  -2.053  29.190  0.00  0.00     0.101 A 
ATOM     19  C   UNL d   1      60.094  -2.491  28.902  0.00  0.00     0.021 A 
ATOM     20  C   UNL d   1      58.690  -2.352  29.123  0.00  0.00     0.101 A 
ATOM     21  C   UNL d   1      59.966  -3.225  28.548  0.00  0.00     0.002 A 
ATOM     22  C   UNL d   1      59.201  -3.523  28.482  0.00  0.00     0.002 A 
ATOM     23  C   UNL d   1      58.562  -3.086  28.770  0.00  0.00     0.021 A 
ATOM     24  N   UNL d   1      58.173  -1.801  29.455  0.00  0.00    -0.225 NA
ENDBRANCH  15  16
ENDBRANCH  14  15
ENDBRANCH   5  14
TORSDOF 3
ENDMDL
MODEL 4
REMARK VINA RESULT:      -2.0      1.065      5.123
REMARK  3 active torsions:
REMARK  status: ('A' for Active; 'I' for Inactive)
REMARK    1  A    between atoms: C_6  and  C_16 
REMARK    2  A    between atoms: S_14  and  C_8 
REMARK    3  A    between atoms: C_16  and  S_14 
ROOT
ATOM      1  C   UNL d   1      58.406   0.269  31.058  0.00  0.00     0.141 A 
ATOM      2  O   UNL d   1      57.908   0.052  30.436  0.00  0.00    -0.303 OA
ATOM      3  C   UNL d   1      59.183   0.242  30.783  0.00  0.00     0.110 A 
ATOM      4  C   UNL d   1      59.166   0.008  29.992  0.00  0.00     0.043 A 
ATOM      5  C   UNL d   1      58.252   0.489  31.839  0.00  0.00     0.137 A 
ATOM      6  C   UNL d   1      58.379  -0.109  29.778  0.00  0.00     0.102 A 
ATOM      7  N   UNL d   1      58.876   0.680  32.344  0.00  0.00    -0.215 NA
ATOM      8  N   UNL d   1      59.807   0.434  31.288  0.00  0.00    -0.222 NA
ATOM      9  C   UNL d   1      59.653   0.653  32.070  0.00  0.00     0.200 A 
ATOM     10  C   UNL d   1      59.767  -0.113  29.440  0.00  0.00     0.004 A 
ATOM     11  C   UNL d   1      58.191  -0.348  29.010  0.00  0.00     0.025 A 
ATOM     12  C   UNL d   1      59.579  -0.352  28.672  0.00  0.00     0.000 A 
ATOM     13  C   UNL d   1      58.790  -0.470  28.457  0.00  0.00     0.002 A 
ENDROOT
BRANCH   5  14
ATOM     14  S   UNL d   1      57.474   0.516  32.114  0.00  0.00    -0.062 SA
BRANCH  14  15
ATOM     15  C   UNL d   1      57.198  -0.067  32.628  0.00  0.00     0.076 C 
BRANCH  15  16
ATOM     16  C   UNL d   1      56.554   0.089  33.119  0.00  0.00     0.169 A 
ATOM     17  N   UNL d   1      55.758   0.060  32.902  0.00  0.00    -0.225 NA
ATOM     18  C   UNL d   1      55.305   0.255  33.562  0.00  0.00     0.101 A 
ATOM     19  C   UNL d   1      54.490   0.316  33.675  0.00  0.00     0.021 A 
ATOM     20  C   UNL d   1      55.820   0.406  34.190  0.00  0.00     0.101 A 
ATOM     21  C   UNL d   1      54.190   0.527  34.415  0.00  0.00     0.002 A 
ATOM     22  C   UNL d   1      54.704   0.677  35.040  0.00  0.00     0.002 A 
ATOM     23  C   UNL d   1      55.520   0.616  34.928  0.00  0.00     0.021 A 
ATOM     24  N   UNL d   1      56.591   0.303  33.915  0.00  0.00    -0.225 NA
ENDBRANCH  15  16
ENDBRANCH  14  15
ENDBRANCH   5  14
TORSDOF 3
ENDMDL
MODEL 5
REMARK VINA RESULT:      -1.6      1.339      1.799
REMARK  3 active torsions:
REMARK  status: ('A' for Active; 'I' for Inactive)
REMARK    1  A    between atoms: C_6  and  C_16 
REMARK    2  A    between atoms: S_14  and  C_8 
REMARK    3  A    between atoms: C_16  and  S_14 
ROOT
ATOM      1  C   UNL d   1      56.806  -0.324  32.563  0.00  0.00     0.141 A 
ATOM      2  O   UNL d   1      57.049   0.276  33.076  0.00  0.00    -0.303 OA
ATOM      3  C   UNL d   1      56.192  -0.737  32.927  0.00  0.00     0.110 A 
ATOM      4  C   UNL d   1      56.055  -0.394  33.665  0.00  0.00     0.043 A 
ATOM      5  C   UNL d   1      57.065  -0.546  31.811  0.00  0.00     0.137 A 
ATOM      6  C   UNL d   1      56.584   0.232  33.756  0.00  0.00     0.102 A 
ATOM      7  N   UNL d   1      56.709  -1.183  31.425  0.00  0.00    -0.215 NA
ATOM      8  N   UNL d   1      55.836  -1.373  32.540  0.00  0.00    -0.222 NA
ATOM      9  C   UNL d   1      56.095  -1.596  31.788  0.00  0.00     0.200 A 
ATOM     10  C   UNL d   1      55.516  -0.570  34.264  0.00  0.00     0.004 A 
ATOM     11  C   UNL d   1      56.575   0.682  34.449  0.00  0.00     0.025 A 
ATOM     12  C   UNL d   1      55.507  -0.120  34.956  0.00  0.00     0.000 A 
ATOM     13  C   UNL d   1      56.037   0.506  35.049  0.00  0.00     0.002 A 
ENDROOT
BRANCH   5  14
ATOM     14  S   UNL d   1      57.680  -0.133  31.447  0.00  0.00    -0.062 SA
BRANCH  14  15
ATOM     15  C   UNL d   1      57.778  -0.176  30.630  0.00  0.00     0.076 C 
BRANCH  15  16
ATOM     16  C   UNL d   1      58.507   0.014  30.293  0.00  0.00     0.169 A 
ATOM     17  N   UNL d   1      58.675   0.053  29.486  0.00  0.00    -0.225 NA
ATOM     18  C   UNL d   1      59.467   0.262  29.399  0.00  0.00     0.101 A 
ATOM     19  C   UNL d   1      59.937   0.382  28.731  0.00  0.00     0.021 A 
ATOM     20  C   UNL d   1      59.792   0.352  30.152  0.00  0.00     0.101 A 
ATOM     21  C   UNL d   1      60.731   0.592  28.817  0.00  0.00     0.002 A 
ATOM     22  C   UNL d   1      61.054   0.681  29.569  0.00  0.00     0.002 A 
ATOM     23  C   UNL d   1      60.584   0.561  30.237  0.00  0.00     0.021 A 
ATOM     24  N   UNL d   1      59.198   0.198  30.704  0.00  0.00    -0.225 NA
ENDBRANCH  15  16
ENDBRANCH  14  15
ENDBRANCH   5  14
TORSDOF 3
ENDMDL
