MODEL 1
REMARK VINA RESULT:      -7.8      0.000      0.000
REMARK  5 active torsions:
REMARK  status: ('A' for Active; 'I' for Inactive)
REMARK    1  A    between atoms: C_2  and  C_1 
REMARK    2  A    between atoms: C_8  and  C_2 
REMARK    3  A    between atoms: O_18  and  C_7 
REMARK    4  A    between atoms: C_13  and  C_8 
REMARK    5  A    between atoms: O_20  and  C_11 
ROOT
ATOM      1  C   UNL d   1      53.320  32.112  53.628  0.00  0.00     0.202 C 
ATOM      2  O   UNL d   1      53.933  32.492  53.227  0.00  0.00    -0.286 OA
ENDROOT
BRANCH   1   3
ATOM      3  C   UNL d   1      53.208  31.300  53.535  0.00  0.00     0.117 A 
ATOM      4  C   UNL d   1      53.453  30.780  54.130  0.00  0.00     0.205 A 
ATOM      5  C   UNL d   1      53.342  29.970  54.041  0.00  0.00     0.084 A 
ATOM      6  O   UNL d   1      53.811  31.068  54.815  0.00  0.00    -0.286 OA
ATOM      7  C   UNL d   1      52.986  29.675  53.358  0.00  0.00     0.202 A 
ATOM      8  C   UNL d   1      52.740  30.189  52.764  0.00  0.00     0.084 A 
ATOM      9  O   UNL d   1      52.875  28.856  53.271  0.00  0.00    -0.286 OA
ATOM     10  C   UNL d   1      52.851  31.005  52.853  0.00  0.00     0.205 A 
ATOM     11  O   UNL d   1      52.605  31.519  52.259  0.00  0.00    -0.286 OA
ENDBRANCH   1   3
BRANCH   1  12
ATOM     12  C   UNL d   1      52.825  32.543  54.118  0.00  0.00     0.042 C 
BRANCH  12  13
ATOM     13  C   UNL d   1      52.847  33.366  54.111  0.00  0.00     0.005 A 
ATOM     14  C   UNL d   1      52.278  33.787  53.689  0.00  0.00     0.026 A 
ATOM     15  C   UNL d   1      52.299  34.610  53.682  0.00  0.00     0.116 A 
ATOM     16  C   UNL d   1      52.889  35.012  54.096  0.00  0.00     0.116 A 
ATOM     17  C   UNL d   1      53.458  34.587  54.519  0.00  0.00     0.026 A 
ATOM     18  C   UNL d   1      53.431  33.760  54.522  0.00  0.00     0.002 A 
BRANCH  15  19
ATOM     19  O   UNL d   1      51.727  35.037  53.258  0.00  0.00    -0.326 OA
ATOM     20  C   UNL d   1      51.093  34.645  52.909  0.00  0.00     0.181 C 
ENDBRANCH  15  19
BRANCH  16  21
ATOM     21  O   UNL d   1      52.918  35.841  54.095  0.00  0.00    -0.326 OA
ATOM     22  C   UNL d   1      53.355  36.245  54.654  0.00  0.00     0.181 C 
ENDBRANCH  16  21
ENDBRANCH  12  13
ENDBRANCH   1  12
TORSDOF 5
ENDMDL
MODEL 2
REMARK VINA RESULT:      -7.4      1.843      3.603
REMARK  5 active torsions:
REMARK  status: ('A' for Active; 'I' for Inactive)
REMARK    1  A    between atoms: C_2  and  C_1 
REMARK    2  A    between atoms: C_8  and  C_2 
REMARK    3  A    between atoms: O_18  and  C_7 
REMARK    4  A    between atoms: C_13  and  C_8 
REMARK    5  A    between atoms: O_20  and  C_11 
ROOT
ATOM      1  C   UNL d   1      52.173  34.097  53.191  0.00  0.00     0.202 C 
ATOM      2  O   UNL d   1      52.334  34.585  52.545  0.00  0.00    -0.286 OA
ENDROOT
BRANCH   1   3
ATOM      3  C   UNL d   1      52.782  33.872  53.699  0.00  0.00     0.117 A 
ATOM      4  C   UNL d   1      53.128  33.126  53.622  0.00  0.00     0.205 A 
ATOM      5  C   UNL d   1      53.736  32.898  54.127  0.00  0.00     0.084 A 
ATOM      6  O   UNL d   1      52.869  32.603  53.038  0.00  0.00    -0.286 OA
ATOM      7  C   UNL d   1      54.001  33.415  54.713  0.00  0.00     0.202 A 
ATOM      8  C   UNL d   1      53.658  34.159  54.793  0.00  0.00     0.084 A 
ATOM      9  O   UNL d   1      54.615  33.182  55.223  0.00  0.00    -0.286 OA
ATOM     10  C   UNL d   1      53.047  34.389  54.285  0.00  0.00     0.205 A 
ATOM     11  O   UNL d   1      52.705  35.134  54.365  0.00  0.00    -0.286 OA
ENDBRANCH   1   3
BRANCH   1  12
ATOM     12  C   UNL d   1      51.408  33.838  53.325  0.00  0.00     0.042 C 
BRANCH  12  13
ATOM     13  C   UNL d   1      50.791  34.095  52.844  0.00  0.00     0.005 A 
ATOM     14  C   UNL d   1      50.205  34.583  53.155  0.00  0.00     0.026 A 
ATOM     15  C   UNL d   1      49.589  34.840  52.674  0.00  0.00     0.116 A 
ATOM     16  C   UNL d   1      49.558  34.609  51.882  0.00  0.00     0.116 A 
ATOM     17  C   UNL d   1      50.147  34.119  51.572  0.00  0.00     0.026 A 
ATOM     18  C   UNL d   1      50.764  33.864  52.061  0.00  0.00     0.002 A 
BRANCH  15  19
ATOM     19  O   UNL d   1      48.996  35.333  52.984  0.00  0.00    -0.326 OA
ATOM     20  C   UNL d   1      49.032  35.578  53.769  0.00  0.00     0.181 C 
ENDBRANCH  15  19
BRANCH  16  21
ATOM     21  O   UNL d   1      48.940  34.863  51.389  0.00  0.00    -0.326 OA
ATOM     22  C   UNL d   1      48.802  34.500  50.672  0.00  0.00     0.181 C 
ENDBRANCH  16  21
ENDBRANCH  12  13
ENDBRANCH   1  12
TORSDOF 5
ENDMDL
MODEL 3
REMARK VINA RESULT:      -7.3      1.381      3.943
REMARK  5 active torsions:
REMARK  status: ('A' for Active; 'I' for Inactive)
REMARK    1  A    between atoms: C_2  and  C_1 
REMARK    2  A    between atoms: C_8  and  C_2 
REMARK    3  A    between atoms: O_18  and  C_7 
REMARK    4  A    between atoms: C_13  and  C_8 
REMARK    5  A    between atoms: O_20  and  C_11 
ROOT
ATOM      1  C   UNL d   1      51.702  34.323  53.032  0.00  0.00     0.202 C 
ATOM      2  O   UNL d   1      52.313  34.858  52.882  0.00  0.00    -0.286 OA
ENDROOT
BRANCH   1   3
ATOM      3  C   UNL d   1      50.987  34.389  52.626  0.00  0.00     0.117 A 
ATOM      4  C   UNL d   1      50.933  34.130  51.843  0.00  0.00     0.205 A 
ATOM      5  C   UNL d   1      50.222  34.194  51.436  0.00  0.00     0.084 A 
ATOM      6  O   UNL d   1      51.591  33.805  51.464  0.00  0.00    -0.286 OA
ATOM      7  C   UNL d   1      49.561  34.518  51.808  0.00  0.00     0.202 A 
ATOM      8  C   UNL d   1      49.611  34.777  52.587  0.00  0.00     0.084 A 
ATOM      9  O   UNL d   1      48.843  34.582  51.393  0.00  0.00    -0.286 OA
ATOM     10  C   UNL d   1      50.326  34.713  52.999  0.00  0.00     0.205 A 
ATOM     11  O   UNL d   1      50.376  34.972  53.778  0.00  0.00    -0.286 OA
ENDBRANCH   1   3
BRANCH   1  12
ATOM     12  C   UNL d   1      51.808  33.728  53.585  0.00  0.00     0.042 C 
BRANCH  12  13
ATOM     13  C   UNL d   1      52.555  33.580  53.899  0.00  0.00     0.005 A 
ATOM     14  C   UNL d   1      52.936  32.869  53.732  0.00  0.00     0.026 A 
ATOM     15  C   UNL d   1      53.683  32.721  54.046  0.00  0.00     0.116 A 
ATOM     16  C   UNL d   1      54.048  33.284  54.526  0.00  0.00     0.116 A 
ATOM     17  C   UNL d   1      53.663  33.996  54.692  0.00  0.00     0.026 A 
ATOM     18  C   UNL d   1      52.913  34.139  54.374  0.00  0.00     0.002 A 
BRANCH  15  19
ATOM     19  O   UNL d   1      54.070  32.005  53.880  0.00  0.00    -0.326 OA
ATOM     20  C   UNL d   1      53.649  31.370  53.570  0.00  0.00     0.181 C 
ENDBRANCH  15  19
BRANCH  16  21
ATOM     21  O   UNL d   1      54.801  33.144  54.848  0.00  0.00    -0.326 OA
ATOM     22  C   UNL d   1      55.189  33.724  55.269  0.00  0.00     0.181 C 
ENDBRANCH  16  21
ENDBRANCH  12  13
ENDBRANCH   1  12
TORSDOF 5
ENDMDL
MODEL 4
REMARK VINA RESULT:      -6.6      1.944      4.581
REMARK  5 active torsions:
REMARK  status: ('A' for Active; 'I' for Inactive)
REMARK    1  A    between atoms: C_2  and  C_1 
REMARK    2  A    between atoms: C_8  and  C_2 
REMARK    3  A    between atoms: O_18  and  C_7 
REMARK    4  A    between atoms: C_13  and  C_8 
REMARK    5  A    between atoms: O_20  and  C_11 
ROOT
ATOM      1  C   UNL d   1      50.315  34.245  52.716  0.00  0.00     0.202 C 
ATOM      2  O   UNL d   1      50.249  33.653  53.287  0.00  0.00    -0.286 OA
ENDROOT
BRANCH   1   3
ATOM      3  C   UNL d   1      49.639  34.617  52.426  0.00  0.00     0.117 A 
ATOM      4  C   UNL d   1      49.225  35.149  52.905  0.00  0.00     0.205 A 
ATOM      5  C   UNL d   1      48.549  35.521  52.619  0.00  0.00     0.084 A 
ATOM      6  O   UNL d   1      49.484  35.311  53.671  0.00  0.00    -0.286 OA
ATOM      7  C   UNL d   1      48.284  35.364  51.854  0.00  0.00     0.202 A 
ATOM      8  C   UNL d   1      48.694  34.835  51.375  0.00  0.00     0.084 A 
ATOM      9  O   UNL d   1      47.601  35.742  51.568  0.00  0.00    -0.286 OA
ATOM     10  C   UNL d   1      49.373  34.460  51.661  0.00  0.00     0.205 A 
ATOM     11  O   UNL d   1      49.783  33.931  51.182  0.00  0.00    -0.286 OA
ENDBRANCH   1   3
BRANCH   1  12
ATOM     12  C   UNL d   1      51.055  34.462  52.439  0.00  0.00     0.042 C 
BRANCH  12  13
ATOM     13  C   UNL d   1      51.736  34.175  52.802  0.00  0.00     0.005 A 
ATOM     14  C   UNL d   1      52.178  34.669  53.291  0.00  0.00     0.026 A 
ATOM     15  C   UNL d   1      52.859  34.383  53.654  0.00  0.00     0.116 A 
ATOM     16  C   UNL d   1      53.098  33.603  53.529  0.00  0.00     0.116 A 
ATOM     17  C   UNL d   1      52.653  33.110  53.037  0.00  0.00     0.026 A 
ATOM     18  C   UNL d   1      51.970  33.404  52.675  0.00  0.00     0.002 A 
BRANCH  15  19
ATOM     19  O   UNL d   1      53.307  34.878  54.148  0.00  0.00    -0.326 OA
ATOM     20  C   UNL d   1      52.986  35.583  54.428  0.00  0.00     0.181 C 
ENDBRANCH  15  19
BRANCH  16  21
ATOM     21  O   UNL d   1      53.783  33.306  53.891  0.00  0.00    -0.326 OA
ATOM     22  C   UNL d   1      54.062  32.560  53.709  0.00  0.00     0.181 C 
ENDBRANCH  16  21
ENDBRANCH  12  13
ENDBRANCH   1  12
TORSDOF 5
ENDMDL
MODEL 5
REMARK VINA RESULT:      -6.3      0.966      4.336
REMARK  5 active torsions:
REMARK  status: ('A' for Active; 'I' for Inactive)
REMARK    1  A    between atoms: C_2  and  C_1 
REMARK    2  A    between atoms: C_8  and  C_2 
REMARK    3  A    between atoms: O_18  and  C_7 
REMARK    4  A    between atoms: C_13  and  C_8 
REMARK    5  A    between atoms: O_20  and  C_11 
ROOT
ATOM      1  C   UNL d   1      53.543  32.806  53.863  0.00  0.00     0.202 C 
ATOM      2  O   UNL d   1      54.313  32.532  53.751  0.00  0.00    -0.286 OA
ENDROOT
BRANCH   1   3
ATOM      3  C   UNL d   1      53.406  33.605  54.013  0.00  0.00     0.117 A 
ATOM      4  C   UNL d   1      53.680  33.944  54.716  0.00  0.00     0.205 A 
ATOM      5  C   UNL d   1      53.546  34.741  54.869  0.00  0.00     0.084 A 
ATOM      6  O   UNL d   1      54.089  33.488  55.268  0.00  0.00    -0.286 OA
ATOM      7  C   UNL d   1      53.138  35.204  54.321  0.00  0.00     0.202 A 
ATOM      8  C   UNL d   1      52.864  34.869  53.621  0.00  0.00     0.084 A 
ATOM      9  O   UNL d   1      53.004  36.008  54.479  0.00  0.00    -0.286 OA
ATOM     10  C   UNL d   1      52.998  34.068  53.465  0.00  0.00     0.205 A 
ATOM     11  O   UNL d   1      52.724  33.733  52.765  0.00  0.00    -0.286 OA
ENDBRANCH   1   3
BRANCH   1  12
ATOM     12  C   UNL d   1      52.914  32.281  53.825  0.00  0.00     0.042 C 
BRANCH  12  13
ATOM     13  C   UNL d   1      53.044  31.471  53.897  0.00  0.00     0.005 A 
ATOM     14  C   UNL d   1      52.963  30.983  53.239  0.00  0.00     0.026 A 
ATOM     15  C   UNL d   1      53.092  30.173  53.311  0.00  0.00     0.116 A 
ATOM     16  C   UNL d   1      53.302  29.851  54.041  0.00  0.00     0.116 A 
ATOM     17  C   UNL d   1      53.383  30.344  54.700  0.00  0.00     0.026 A 
ATOM     18  C   UNL d   1      53.252  31.156  54.621  0.00  0.00     0.002 A 
BRANCH  15  19
ATOM     19  O   UNL d   1      53.012  29.678  52.649  0.00  0.00    -0.326 OA
ATOM     20  C   UNL d   1      53.018  29.998  51.891  0.00  0.00     0.181 C 
ENDBRANCH  15  19
BRANCH  16  21
ATOM     21  O   UNL d   1      53.435  29.036  54.123  0.00  0.00    -0.326 OA
ATOM     22  C   UNL d   1      53.488  28.694  54.862  0.00  0.00     0.181 C 
ENDBRANCH  16  21
ENDBRANCH  12  13
ENDBRANCH   1  12
TORSDOF 5
ENDMDL
