MODEL 1
REMARK VINA RESULT:      -7.3      0.000      0.000
REMARK  2 active torsions:
REMARK  status: ('A' for Active; 'I' for Inactive)
REMARK    1  A    between atoms: C_2  and  S_1 
REMARK    2  A    between atoms: C_7  and  C_3 
ROOT
ATOM      1  C   UNL d   1     -48.333  12.878  22.347  0.00  0.00     0.117 A 
ATOM      2  C   UNL d   1     -47.022  12.818  22.928  0.00  0.00     0.076 A 
ATOM      3  C   UNL d   1     -47.591  13.215  22.477  0.00  0.00     0.021 A 
ATOM      4  C   UNL d   1     -48.514  12.141  22.666  0.00  0.00     0.071 A 
ATOM      5  C   UNL d   1     -47.203  12.081  23.248  0.00  0.00     0.065 A 
ATOM      6  C   UNL d   1     -47.952  11.741  23.116  0.00  0.00     0.024 A 
ATOM      7 CL   UNL d   1     -46.641  11.681  23.698  0.00  0.00    -0.082 Cl
ATOM      8 CL   UNL d   1     -49.255  11.805  22.536  0.00  0.00    -0.082 Cl
ENDROOT
BRANCH   1   9
ATOM      9  S   UNL d   1     -48.896  13.282  21.894  0.00  0.00     0.303 S 
ATOM     10  O   UNL d   1     -49.191  13.638  22.569  0.00  0.00    -0.197 OA
ATOM     11  O   UNL d   1     -48.602  12.923  21.200  0.00  0.00    -0.197 OA
ATOM     12  N   UNL d   1     -49.455  13.681  21.434  0.00  0.00    -0.043 N 
ENDBRANCH   1   9
BRANCH   2  13
ATOM     13  C   UNL d   1     -46.281  13.158  23.056  0.00  0.00     0.212 C 
ATOM     14  O   UNL d   1     -46.159  13.658  23.698  0.00  0.00    -0.644 OA
ATOM     15  O   UNL d   1     -45.661  12.993  22.535  0.00  0.00    -0.644 OA
ENDBRANCH   2  13
TORSDOF 2
ENDMDL
MODEL 2
REMARK VINA RESULT:      -7.0      1.480      2.145
REMARK  2 active torsions:
REMARK  status: ('A' for Active; 'I' for Inactive)
REMARK    1  A    between atoms: C_2  and  S_1 
REMARK    2  A    between atoms: C_7  and  C_3 
ROOT
ATOM      1  C   UNL d   1     -48.053  13.678  22.778  0.00  0.00     0.117 A 
ATOM      2  C   UNL d   1     -48.124  12.266  23.025  0.00  0.00     0.076 A 
ATOM      3  C   UNL d   1     -48.482  12.974  22.788  0.00  0.00     0.021 A 
ATOM      4  C   UNL d   1     -47.261  13.683  23.004  0.00  0.00     0.071 A 
ATOM      5  C   UNL d   1     -47.332  12.271  23.252  0.00  0.00     0.065 A 
ATOM      6  C   UNL d   1     -46.899  12.982  23.241  0.00  0.00     0.024 A 
ATOM      7 CL   UNL d   1     -46.970  11.570  23.488  0.00  0.00    -0.082 Cl
ATOM      8 CL   UNL d   1     -46.833  14.387  22.994  0.00  0.00    -0.082 Cl
ENDROOT
BRANCH   1   9
ATOM      9  S   UNL d   1     -48.418  14.381  22.540  0.00  0.00     0.303 S 
ATOM     10  O   UNL d   1     -48.604  14.554  23.318  0.00  0.00    -0.197 OA
ATOM     11  O   UNL d   1     -48.234  14.213  21.743  0.00  0.00    -0.197 OA
ATOM     12  N   UNL d   1     -48.782  15.081  22.293  0.00  0.00    -0.043 N 
ENDBRANCH   1   9
BRANCH   2  13
ATOM     13  C   UNL d   1     -48.557  11.564  23.034  0.00  0.00     0.212 C 
ATOM     14  O   UNL d   1     -48.535  11.055  22.388  0.00  0.00    -0.644 OA
ATOM     15  O   UNL d   1     -49.013  11.373  23.697  0.00  0.00    -0.644 OA
ENDBRANCH   2  13
TORSDOF 2
ENDMDL
