MODEL 1
REMARK VINA RESULT:      -3.1      0.000      0.000
REMARK  1 active torsions:
REMARK  status: ('A' for Active; 'I' for Inactive)
REMARK    1  A    between atoms: C_11  and  N_5 
ROOT
ATOM      1  C   UNL d   1      32.915  20.818 -21.933  0.00  0.00     0.130 A 
ATOM      2  C   UNL d   1      33.028  21.228 -22.642  0.00  0.00     0.157 A 
ATOM      3  N   UNL d   1      33.040  22.045 -22.647  0.00  0.00    -0.210 NA
ATOM      4  C   UNL d   1      32.814  21.232 -21.227  0.00  0.00     0.272 A 
ATOM      5  N   UNL d   1      32.826  22.053 -21.230  0.00  0.00    -0.259 N 
ATOM      6  C   UNL d   1      32.903  19.994 -21.934  0.00  0.00     0.204 A 
ATOM      7  N   UNL d   1      33.128  20.811 -23.341  0.00  0.00    -0.289 N 
ATOM      8  C   UNL d   1      32.939  22.465 -21.937  0.00  0.00     0.152 A 
ATOM      9  C   UNL d   1      33.002  19.584 -22.629  0.00  0.00     0.055 A 
ATOM     10  C   UNL d   1      33.115  19.987 -23.335  0.00  0.00     0.069 A 
ATOM     11  O   UNL d   1      32.701  20.822 -20.524  0.00  0.00    -0.266 OA
ATOM     12  O   UNL d   1      32.790  19.590 -21.226  0.00  0.00    -0.286 OA
ATOM     13  C   UNL d   1      33.240  21.214 -24.048  0.00  0.00     0.101 C 
ATOM     14  C   UNL d   1      32.951  23.289 -21.942  0.00  0.00     0.041 C 
ATOM     15  C   UNL d   1      32.990  18.757 -22.624  0.00  0.00     0.005 A 
ATOM     16  C   UNL d   1      33.216  19.567 -24.045  0.00  0.00     0.018 A 
ATOM     17  C   UNL d   1      33.091  18.345 -23.330  0.00  0.00     0.000 A 
ATOM     18  C   UNL d   1      33.203  18.748 -24.037  0.00  0.00     0.002 A 
ENDROOT
BRANCH   5  19
ATOM     19  C   UNL d   1      32.724  22.464 -20.521  0.00  0.00     0.068 A 
ATOM     20  C   UNL d   1      33.236  22.332 -19.880  0.00  0.00     0.020 A 
ATOM     21  C   UNL d   1      33.134  22.743 -19.170  0.00  0.00     0.031 A 
ATOM     22  C   UNL d   1      32.522  23.289 -19.090  0.00  0.00     0.140 A 
ATOM     23  C   UNL d   1      32.004  23.427 -19.729  0.00  0.00     0.031 A 
ATOM     24  F   UNL d   1      32.418  23.702 -18.378  0.00  0.00    -0.204 F 
ATOM     25  C   UNL d   1      32.110  23.011 -20.443  0.00  0.00     0.020 A 
ENDBRANCH   5  19
TORSDOF 1
ENDMDL
MODEL 2
REMARK VINA RESULT:      -2.5      0.730      1.199
REMARK  1 active torsions:
REMARK  status: ('A' for Active; 'I' for Inactive)
REMARK    1  A    between atoms: C_11  and  N_5 
ROOT
ATOM      1  C   UNL d   1      32.961  20.119 -22.709  0.00  0.00     0.130 A 
ATOM      2  C   UNL d   1      33.055  20.503 -23.434  0.00  0.00     0.157 A 
ATOM      3  N   UNL d   1      33.059  21.320 -23.470  0.00  0.00    -0.210 NA
ATOM      4  C   UNL d   1      32.869  20.558 -22.016  0.00  0.00     0.272 A 
ATOM      5  N   UNL d   1      32.872  21.379 -22.050  0.00  0.00    -0.259 N 
ATOM      6  C   UNL d   1      32.958  19.295 -22.678  0.00  0.00     0.204 A 
ATOM      7  N   UNL d   1      33.146  20.061 -24.119  0.00  0.00    -0.289 N 
ATOM      8  C   UNL d   1      32.966  21.765 -22.774  0.00  0.00     0.152 A 
ATOM      9  C   UNL d   1      33.049  18.861 -23.359  0.00  0.00     0.055 A 
ATOM     10  C   UNL d   1      33.143  19.238 -24.082  0.00  0.00     0.069 A 
ATOM     11  O   UNL d   1      32.775  20.174 -21.297  0.00  0.00    -0.266 OA
ATOM     12  O   UNL d   1      32.864  18.918 -21.953  0.00  0.00    -0.286 OA
ATOM     13  C   UNL d   1      33.241  20.438 -24.843  0.00  0.00     0.101 C 
ATOM     14  C   UNL d   1      32.970  22.588 -22.810  0.00  0.00     0.041 C 
ATOM     15  C   UNL d   1      33.046  18.034 -23.323  0.00  0.00     0.005 A 
ATOM     16  C   UNL d   1      33.235  18.793 -24.778  0.00  0.00     0.018 A 
ATOM     17  C   UNL d   1      33.137  17.597 -24.015  0.00  0.00     0.000 A 
ATOM     18  C   UNL d   1      33.232  17.974 -24.738  0.00  0.00     0.002 A 
ENDROOT
BRANCH   5  19
ATOM     19  C   UNL d   1      32.780  21.814 -21.355  0.00  0.00     0.068 A 
ATOM     20  C   UNL d   1      32.227  22.433 -21.314  0.00  0.00     0.020 A 
ATOM     21  C   UNL d   1      32.136  22.868 -20.618  0.00  0.00     0.031 A 
ATOM     22  C   UNL d   1      32.592  22.694 -19.954  0.00  0.00     0.140 A 
ATOM     23  C   UNL d   1      33.150  22.074 -19.987  0.00  0.00     0.031 A 
ATOM     24  F   UNL d   1      32.501  23.130 -19.255  0.00  0.00    -0.204 F 
ATOM     25  C   UNL d   1      33.239  21.637 -20.691  0.00  0.00     0.020 A 
ENDBRANCH   5  19
TORSDOF 1
ENDMDL
MODEL 3
REMARK VINA RESULT:      -1.4      5.629      6.724
REMARK  1 active torsions:
REMARK  status: ('A' for Active; 'I' for Inactive)
REMARK    1  A    between atoms: C_11  and  N_5 
ROOT
ATOM      1  C   UNL d   1      30.331  16.506 -23.890  0.00  0.00     0.130 A 
ATOM      2  C   UNL d   1      30.401  17.160 -24.390  0.00  0.00     0.157 A 
ATOM      3  N   UNL d   1      29.731  17.533 -24.675  0.00  0.00    -0.210 NA
ATOM      4  C   UNL d   1      29.586  16.225 -23.675  0.00  0.00     0.272 A 
ATOM      5  N   UNL d   1      28.912  16.598 -23.961  0.00  0.00    -0.259 N 
ATOM      6  C   UNL d   1      31.009  16.133 -23.605  0.00  0.00     0.204 A 
ATOM      7  N   UNL d   1      31.145  17.434 -24.599  0.00  0.00    -0.289 N 
ATOM      8  C   UNL d   1      28.978  17.253 -24.461  0.00  0.00     0.152 A 
ATOM      9  C   UNL d   1      31.745  16.408 -23.815  0.00  0.00     0.055 A 
ATOM     10  C   UNL d   1      31.819  17.057 -24.311  0.00  0.00     0.069 A 
ATOM     11  O   UNL d   1      29.520  15.575 -23.178  0.00  0.00    -0.266 OA
ATOM     12  O   UNL d   1      30.935  15.482 -23.108  0.00  0.00    -0.286 OA
ATOM     13  C   UNL d   1      31.219  18.084 -25.096  0.00  0.00     0.101 C 
ATOM     14  C   UNL d   1      28.304  17.628 -24.748  0.00  0.00     0.041 C 
ATOM     15  C   UNL d   1      32.422  16.031 -23.527  0.00  0.00     0.005 A 
ATOM     16  C   UNL d   1      32.572  17.337 -24.525  0.00  0.00     0.018 A 
ATOM     17  C   UNL d   1      33.166  16.311 -23.742  0.00  0.00     0.000 A 
ATOM     18  C   UNL d   1      33.241  16.961 -24.238  0.00  0.00     0.002 A 
ENDROOT
BRANCH   5  19
ATOM     19  C   UNL d   1      28.167  16.315 -23.744  0.00  0.00     0.068 A 
ATOM     20  C   UNL d   1      27.789  16.600 -23.062  0.00  0.00     0.020 A 
ATOM     21  C   UNL d   1      27.044  16.316 -22.845  0.00  0.00     0.031 A 
ATOM     22  C   UNL d   1      26.667  15.744 -23.304  0.00  0.00     0.140 A 
ATOM     23  C   UNL d   1      27.040  15.453 -23.991  0.00  0.00     0.031 A 
ATOM     24  F   UNL d   1      25.919  15.458 -23.088  0.00  0.00    -0.204 F 
ATOM     25  C   UNL d   1      27.792  15.742 -24.206  0.00  0.00     0.020 A 
ENDBRANCH   5  19
TORSDOF 1
ENDMDL
MODEL 4
REMARK VINA RESULT:      -1.3      1.498      2.467
REMARK  1 active torsions:
REMARK  status: ('A' for Active; 'I' for Inactive)
REMARK    1  A    between atoms: C_11  and  N_5 
ROOT
ATOM      1  C   UNL d   1      32.755  19.467 -23.021  0.00  0.00     0.130 A 
ATOM      2  C   UNL d   1      32.972  18.876 -22.486  0.00  0.00     0.157 A 
ATOM      3  N   UNL d   1      33.133  19.066 -21.707  0.00  0.00    -0.210 NA
ATOM      4  C   UNL d   1      32.700  20.252 -22.773  0.00  0.00     0.272 A 
ATOM      5  N   UNL d   1      32.861  20.444 -21.990  0.00  0.00    -0.259 N 
ATOM      6  C   UNL d   1      32.594  19.271 -23.806  0.00  0.00     0.204 A 
ATOM      7  N   UNL d   1      33.025  18.098 -22.739  0.00  0.00    -0.289 N 
ATOM      8  C   UNL d   1      33.078  19.855 -21.453  0.00  0.00     0.152 A 
ATOM      9  C   UNL d   1      32.648  18.499 -24.053  0.00  0.00     0.055 A 
ATOM     10  C   UNL d   1      32.863  17.908 -23.525  0.00  0.00     0.069 A 
ATOM     11  O   UNL d   1      32.484  20.837 -23.307  0.00  0.00    -0.266 OA
ATOM     12  O   UNL d   1      32.379  19.863 -24.335  0.00  0.00    -0.286 OA
ATOM     13  C   UNL d   1      33.241  17.507 -22.211  0.00  0.00     0.101 C 
ATOM     14  C   UNL d   1      33.240  20.046 -20.668  0.00  0.00     0.041 C 
ATOM     15  C   UNL d   1      32.486  18.307 -24.841  0.00  0.00     0.005 A 
ATOM     16  C   UNL d   1      32.918  17.119 -23.779  0.00  0.00     0.018 A 
ATOM     17  C   UNL d   1      32.541  17.523 -25.088  0.00  0.00     0.000 A 
ATOM     18  C   UNL d   1      32.756  16.932 -24.560  0.00  0.00     0.002 A 
ENDROOT
BRANCH   5  19
ATOM     19  C   UNL d   1      32.804  21.231 -21.745  0.00  0.00     0.068 A 
ATOM     20  C   UNL d   1      32.314  21.440 -21.109  0.00  0.00     0.020 A 
ATOM     21  C   UNL d   1      32.257  22.227 -20.865  0.00  0.00     0.031 A 
ATOM     22  C   UNL d   1      32.689  22.815 -21.249  0.00  0.00     0.140 A 
ATOM     23  C   UNL d   1      33.184  22.612 -21.889  0.00  0.00     0.031 A 
ATOM     24  F   UNL d   1      32.633  23.605 -21.005  0.00  0.00    -0.204 F 
ATOM     25  C   UNL d   1      33.238  21.817 -22.133  0.00  0.00     0.020 A 
ENDBRANCH   5  19
TORSDOF 1
ENDMDL
MODEL 5
REMARK VINA RESULT:      -1.1      2.103      4.586
REMARK  1 active torsions:
REMARK  status: ('A' for Active; 'I' for Inactive)
REMARK    1  A    between atoms: C_11  and  N_5 
ROOT
ATOM      1  C   UNL d   1      32.760  21.081 -21.823  0.00  0.00     0.130 A 
ATOM      2  C   UNL d   1      32.959  20.764 -21.087  0.00  0.00     0.157 A 
ATOM      3  N   UNL d   1      33.118  19.966 -21.011  0.00  0.00    -0.210 NA
ATOM      4  C   UNL d   1      32.720  20.593 -22.487  0.00  0.00     0.272 A 
ATOM      5  N   UNL d   1      32.879  19.790 -22.413  0.00  0.00    -0.259 N 
ATOM      6  C   UNL d   1      32.601  21.887 -21.894  0.00  0.00     0.204 A 
ATOM      7  N   UNL d   1      32.998  21.255 -20.430  0.00  0.00    -0.289 N 
ATOM      8  C   UNL d   1      33.078  19.471 -21.678  0.00  0.00     0.152 A 
ATOM      9  C   UNL d   1      32.640  22.369 -21.241  0.00  0.00     0.055 A 
ATOM     10  C   UNL d   1      32.838  22.059 -20.507  0.00  0.00     0.069 A 
ATOM     11  O   UNL d   1      32.522  20.910 -23.218  0.00  0.00    -0.266 OA
ATOM     12  O   UNL d   1      32.403  22.197 -22.629  0.00  0.00    -0.286 OA
ATOM     13  C   UNL d   1      33.195  20.945 -19.695  0.00  0.00     0.101 C 
ATOM     14  C   UNL d   1      33.238  18.667 -21.602  0.00  0.00     0.041 C 
ATOM     15  C   UNL d   1      32.480  23.177 -21.317  0.00  0.00     0.005 A 
ATOM     16  C   UNL d   1      32.877  22.554 -19.840  0.00  0.00     0.018 A 
ATOM     17  C   UNL d   1      32.520  23.664 -20.653  0.00  0.00     0.000 A 
ATOM     18  C   UNL d   1      32.718  23.354 -19.919  0.00  0.00     0.002 A 
ENDROOT
BRANCH   5  19
ATOM     19  C   UNL d   1      32.837  19.305 -23.080  0.00  0.00     0.068 A 
ATOM     20  C   UNL d   1      33.239  19.510 -23.777  0.00  0.00     0.020 A 
ATOM     21  C   UNL d   1      33.198  19.025 -24.444  0.00  0.00     0.031 A 
ATOM     22  C   UNL d   1      32.756  18.329 -24.426  0.00  0.00     0.140 A 
ATOM     23  C   UNL d   1      32.350  18.116 -23.729  0.00  0.00     0.031 A 
ATOM     24  F   UNL d   1      32.713  17.840 -25.094  0.00  0.00    -0.204 F 
ATOM     25  C   UNL d   1      32.394  18.608 -23.058  0.00  0.00     0.020 A 
ENDBRANCH   5  19
TORSDOF 1
ENDMDL
