MODEL 1
REMARK VINA RESULT:      -4.3      0.000      0.000
REMARK  6 active torsions:
REMARK  status: ('A' for Active; 'I' for Inactive)
REMARK    1  A    between atoms: S_6  and  C_1 
REMARK    2  A    between atoms: C_7  and  S_6 
REMARK    3  A    between atoms: C_8  and  C_7 
REMARK    4  A    between atoms: O_14  and  C_9 
REMARK    5  A    between atoms: C_17  and  O_14 
REMARK    6  A    between atoms: C_18  and  C_17 
ROOT
ATOM      1  C   UNL d   1      57.025  -0.554  31.405  0.00  0.00     0.038 C 
ENDROOT
BRANCH   1   2
ATOM      2  S   UNL d   1      57.435   0.036  30.997  0.00  0.00    -0.048 SA
BRANCH   2   3
ATOM      3  C   UNL d   1      57.982  -0.170  30.415  0.00  0.00     0.194 A 
ATOM      4  N   UNL d   1      58.447   0.343  29.972  0.00  0.00    -0.220 NA
ATOM      5  C   UNL d   1      58.917  -0.123  29.451  0.00  0.00     0.101 A 
ATOM      6  C   UNL d   1      59.477   0.097  28.887  0.00  0.00     0.021 A 
ATOM      7  C   UNL d   1      58.745  -0.917  29.569  0.00  0.00     0.101 A 
ATOM      8  C   UNL d   1      59.847  -0.473  28.461  0.00  0.00     0.002 A 
ATOM      9  C   UNL d   1      59.675  -1.267  28.580  0.00  0.00     0.002 A 
ATOM     10  C   UNL d   1      59.132  -1.494  29.125  0.00  0.00     0.021 A 
ATOM     11  N   UNL d   1      58.166  -0.956  30.166  0.00  0.00    -0.220 NA
ENDBRANCH   2   3
ENDBRANCH   1   2
BRANCH   1  12
ATOM     12  C   UNL d   1      56.544  -0.324  32.035  0.00  0.00     0.007 A 
ATOM     13  C   UNL d   1      56.258  -0.914  32.537  0.00  0.00     0.003 A 
ATOM     14  C   UNL d   1      55.775  -0.713  33.175  0.00  0.00     0.025 A 
ATOM     15  C   UNL d   1      55.578   0.077  33.312  0.00  0.00     0.100 A 
ATOM     16  C   UNL d   1      55.862   0.638  32.817  0.00  0.00     0.025 A 
ATOM     17  C   UNL d   1      56.345   0.437  32.179  0.00  0.00     0.003 A 
BRANCH  15  18
ATOM     18  O   UNL d   1      55.095   0.278  33.950  0.00  0.00    -0.305 OA
BRANCH  18  19
ATOM     19  C   UNL d   1      55.433   0.525  34.660  0.00  0.00     0.123 C 
BRANCH  19  20
ATOM     20  C   UNL d   1      54.953   0.682  35.313  0.00  0.00     0.027 C 
ATOM     21  C   UNL d   1      55.143   0.360  36.053  0.00  0.00     0.002 C 
ENDBRANCH  19  20
ENDBRANCH  18  19
ENDBRANCH  15  18
ENDBRANCH   1  12
TORSDOF 6
ENDMDL
MODEL 2
REMARK VINA RESULT:      -4.2      2.016      5.606
REMARK  6 active torsions:
REMARK  status: ('A' for Active; 'I' for Inactive)
REMARK    1  A    between atoms: S_6  and  C_1 
REMARK    2  A    between atoms: C_7  and  S_6 
REMARK    3  A    between atoms: C_8  and  C_7 
REMARK    4  A    between atoms: O_14  and  C_9 
REMARK    5  A    between atoms: C_17  and  O_14 
REMARK    6  A    between atoms: C_18  and  C_17 
ROOT
ATOM      1  C   UNL d   1      56.865  -0.060  31.816  0.00  0.00     0.038 C 
ENDROOT
BRANCH   1   2
ATOM      2  S   UNL d   1      56.636   0.658  32.155  0.00  0.00    -0.048 SA
BRANCH   2   3
ATOM      3  C   UNL d   1      56.206   0.663  32.859  0.00  0.00     0.194 A 
ATOM      4  N   UNL d   1      56.511   0.667  33.622  0.00  0.00    -0.220 NA
ATOM      5  C   UNL d   1      55.860   0.672  34.158  0.00  0.00     0.101 A 
ATOM      6  C   UNL d   1      55.840   0.677  34.982  0.00  0.00     0.021 A 
ATOM      7  C   UNL d   1      55.159   0.672  33.730  0.00  0.00     0.101 A 
ATOM      8  C   UNL d   1      55.130   0.681  35.355  0.00  0.00     0.002 A 
ATOM      9  C   UNL d   1      54.429   0.682  34.927  0.00  0.00     0.002 A 
ATOM     10  C   UNL d   1      54.436   0.677  34.125  0.00  0.00     0.021 A 
ATOM     11  N   UNL d   1      55.365   0.667  32.923  0.00  0.00    -0.220 NA
ENDBRANCH   2   3
ENDBRANCH   1   2
BRANCH   1  12
ATOM     12  C   UNL d   1      57.342  -0.035  31.143  0.00  0.00     0.007 A 
ATOM     13  C   UNL d   1      57.589  -0.752  30.818  0.00  0.00     0.003 A 
ATOM     14  C   UNL d   1      58.067  -0.757  30.146  0.00  0.00     0.025 A 
ATOM     15  C   UNL d   1      58.298  -0.045  29.798  0.00  0.00     0.100 A 
ATOM     16  C   UNL d   1      58.050   0.643  30.124  0.00  0.00     0.025 A 
ATOM     17  C   UNL d   1      57.573   0.648  30.796  0.00  0.00     0.003 A 
BRANCH  15  18
ATOM     18  O   UNL d   1      58.775  -0.050  29.125  0.00  0.00    -0.305 OA
BRANCH  18  19
ATOM     19  C   UNL d   1      59.539  -0.359  29.165  0.00  0.00     0.123 C 
BRANCH  19  20
ATOM     20  C   UNL d   1      60.081  -0.197  28.563  0.00  0.00     0.027 C 
ATOM     21  C   UNL d   1      60.847  -0.510  28.603  0.00  0.00     0.002 C 
ENDBRANCH  19  20
ENDBRANCH  18  19
ENDBRANCH  15  18
ENDBRANCH   1  12
TORSDOF 6
ENDMDL
