MODEL 1
REMARK VINA RESULT:      37.8      0.000      0.000
REMARK  5 active torsions:
REMARK  status: ('A' for Active; 'I' for Inactive)
REMARK    1  A    between atoms: C_10  and  N_1 
REMARK    2  A    between atoms: S_7  and  C_2 
REMARK    3  A    between atoms: C_12  and  S_7 
REMARK    4  A    between atoms: C_9  and  C_12 
REMARK    5  A    between atoms: O_16  and  C_9 
ROOT
ATOM      1  N   UNL d   1      14.043  12.986  -2.084  0.00  0.00    -0.254 N 
ATOM      2  C   UNL d   1      14.214  13.794  -2.167  0.00  0.00     0.182 A 
ATOM      3  C   UNL d   1      13.652  12.582  -2.694  0.00  0.00     0.274 A 
ATOM      4  C   UNL d   1      13.434  12.983  -3.382  0.00  0.00     0.104 A 
ATOM      5  N   UNL d   1      13.994  14.198  -2.859  0.00  0.00    -0.222 NA
ATOM      6  C   UNL d   1      13.605  13.791  -3.464  0.00  0.00     0.095 A 
ATOM      7  S   UNL d   1      13.051  12.737  -4.063  0.00  0.00    -0.080 SA
ATOM      8  O   UNL d   1      13.482  11.779  -2.613  0.00  0.00    -0.266 OA
ATOM      9  C   UNL d   1      13.326  14.039  -4.195  0.00  0.00     0.027 A 
ATOM     10  C   UNL d   1      12.986  13.399  -4.568  0.00  0.00     0.037 A 
ENDROOT
BRANCH   2  11
ATOM     11  S   UNL d   1      14.606  14.202  -1.554  0.00  0.00    -0.044 SA
BRANCH  11  12
ATOM     12  C   UNL d   1      14.763  15.011  -1.656  0.00  0.00     0.095 C 
ATOM     13  C   UNL d   1      14.707  15.347  -2.403  0.00  0.00     0.013 C 
BRANCH  12  14
ATOM     14  C   UNL d   1      14.921  15.356  -1.168  0.00  0.00     0.302 C 
ATOM     15  O   UNL d   1      14.936  15.025  -0.415  0.00  0.00    -0.259 OA
BRANCH  14  16
ATOM     16  O   UNL d   1      15.119  16.155  -1.278  0.00  0.00    -0.295 OA
ATOM     17  C   UNL d   1      15.235  16.650  -0.625  0.00  0.00     0.185 C 
ENDBRANCH  14  16
ENDBRANCH  12  14
ENDBRANCH  11  12
ENDBRANCH   2  11
BRANCH   1  18
ATOM     18  C   UNL d   1      14.259  12.585  -1.401  0.00  0.00     0.069 A 
ATOM     19  C   UNL d   1      15.056  12.406  -1.262  0.00  0.00     0.018 A 
ATOM     20  C   UNL d   1      15.276  12.003  -0.576  0.00  0.00     0.002 A 
ATOM     21  C   UNL d   1      14.702  11.779  -0.027  0.00  0.00     0.000 A 
ATOM     22  C   UNL d   1      13.905  11.959  -0.166  0.00  0.00     0.002 A 
ATOM     23  C   UNL d   1      13.685  12.361  -0.852  0.00  0.00     0.018 A 
ENDBRANCH   1  18
TORSDOF 5
ENDMDL
MODEL 2
REMARK VINA RESULT:      39.4      0.917      3.086
REMARK  5 active torsions:
REMARK  status: ('A' for Active; 'I' for Inactive)
REMARK    1  A    between atoms: C_10  and  N_1 
REMARK    2  A    between atoms: S_7  and  C_2 
REMARK    3  A    between atoms: C_12  and  S_7 
REMARK    4  A    between atoms: C_9  and  C_12 
REMARK    5  A    between atoms: O_16  and  C_9 
ROOT
ATOM      1  N   UNL d   1      14.502  13.801  -1.683  0.00  0.00    -0.254 N 
ATOM      2  C   UNL d   1      14.181  13.763  -2.448  0.00  0.00     0.182 A 
ATOM      3  C   UNL d   1      14.800  14.519  -1.396  0.00  0.00     0.274 A 
ATOM      4  C   UNL d   1      14.778  15.195  -1.869  0.00  0.00     0.104 A 
ATOM      5  N   UNL d   1      14.157  14.443  -2.925  0.00  0.00    -0.222 NA
ATOM      6  C   UNL d   1      14.456  15.157  -2.633  0.00  0.00     0.095 A 
ATOM      7  S   UNL d   1      15.025  15.965  -1.738  0.00  0.00    -0.080 SA
ATOM      8  O   UNL d   1      15.120  14.557  -0.636  0.00  0.00    -0.266 OA
ATOM      9  C   UNL d   1      14.507  15.904  -2.969  0.00  0.00     0.027 A 
ATOM     10  C   UNL d   1      14.854  16.404  -2.428  0.00  0.00     0.037 A 
ENDROOT
BRANCH   2  11
ATOM     11  S   UNL d   1      13.880  13.041  -2.738  0.00  0.00    -0.044 SA
BRANCH  11  12
ATOM     12  C   UNL d   1      13.530  13.035  -3.491  0.00  0.00     0.095 C 
ATOM     13  C   UNL d   1      13.392  13.742  -3.884  0.00  0.00     0.013 C 
BRANCH  12  14
ATOM     14  C   UNL d   1      13.376  12.496  -3.753  0.00  0.00     0.302 C 
ATOM     15  O   UNL d   1      13.378  11.805  -3.307  0.00  0.00    -0.259 OA
BRANCH  14  16
ATOM     16  O   UNL d   1      13.165  12.474  -4.555  0.00  0.00    -0.295 OA
ATOM     17  C   UNL d   1      12.867  11.779  -4.891  0.00  0.00     0.185 C 
ENDBRANCH  14  16
ENDBRANCH  12  14
ENDBRANCH  11  12
ENDBRANCH   2  11
BRANCH   1  18
ATOM     18  C   UNL d   1      14.526  13.129  -1.211  0.00  0.00     0.069 A 
ATOM     19  C   UNL d   1      13.983  13.040  -0.591  0.00  0.00     0.018 A 
ATOM     20  C   UNL d   1      14.005  12.366  -0.116  0.00  0.00     0.002 A 
ATOM     21  C   UNL d   1      14.567  11.779  -0.257  0.00  0.00     0.000 A 
ATOM     22  C   UNL d   1      15.110  11.868  -0.877  0.00  0.00     0.002 A 
ATOM     23  C   UNL d   1      15.088  12.542  -1.353  0.00  0.00     0.018 A 
ENDBRANCH   1  18
TORSDOF 5
ENDMDL
MODEL 3
REMARK VINA RESULT:      40.7      1.325      3.255
REMARK  5 active torsions:
REMARK  status: ('A' for Active; 'I' for Inactive)
REMARK    1  A    between atoms: C_10  and  N_1 
REMARK    2  A    between atoms: S_7  and  C_2 
REMARK    3  A    between atoms: C_12  and  S_7 
REMARK    4  A    between atoms: C_9  and  C_12 
REMARK    5  A    between atoms: O_16  and  C_9 
ROOT
ATOM      1  N   UNL d   1      13.949  13.657  -2.897  0.00  0.00    -0.254 N 
ATOM      2  C   UNL d   1      14.185  13.412  -2.140  0.00  0.00     0.182 A 
ATOM      3  C   UNL d   1      14.074  14.441  -3.135  0.00  0.00     0.274 A 
ATOM      4  C   UNL d   1      14.432  14.977  -2.621  0.00  0.00     0.104 A 
ATOM      5  N   UNL d   1      14.546  13.951  -1.621  0.00  0.00    -0.222 NA
ATOM      6  C   UNL d   1      14.668  14.732  -1.864  0.00  0.00     0.095 A 
ATOM      7  S   UNL d   1      14.624  15.770  -2.700  0.00  0.00    -0.080 SA
ATOM      8  O   UNL d   1      13.839  14.684  -3.888  0.00  0.00    -0.266 OA
ATOM      9  C   UNL d   1      15.005  15.375  -1.480  0.00  0.00     0.027 A 
ATOM     10  C   UNL d   1      14.981  16.014  -1.985  0.00  0.00     0.037 A 
ENDROOT
BRANCH   2  11
ATOM     11  S   UNL d   1      14.060  12.624  -1.899  0.00  0.00    -0.044 SA
BRANCH  11  12
ATOM     12  C   UNL d   1      14.555  12.307  -1.313  0.00  0.00     0.095 C 
ATOM     13  C   UNL d   1      15.363  12.250  -1.447  0.00  0.00     0.013 C 
BRANCH  12  14
ATOM     14  C   UNL d   1      14.313  12.116  -0.777  0.00  0.00     0.302 C 
ATOM     15  O   UNL d   1      14.770  12.120  -0.092  0.00  0.00    -0.259 OA
BRANCH  14  16
ATOM     16  O   UNL d   1      13.525  11.856  -0.751  0.00  0.00    -0.295 OA
ATOM     17  C   UNL d   1      13.133  11.779  -0.027  0.00  0.00     0.185 C 
ENDBRANCH  14  16
ENDBRANCH  12  14
ENDBRANCH  11  12
ENDBRANCH   2  11
BRANCH   1  18
ATOM     18  C   UNL d   1      13.591  13.124  -3.411  0.00  0.00     0.069 A 
ATOM     19  C   UNL d   1      13.135  13.403  -4.044  0.00  0.00     0.018 A 
ATOM     20  C   UNL d   1      12.776  12.870  -4.561  0.00  0.00     0.002 A 
ATOM     21  C   UNL d   1      12.870  12.058  -4.448  0.00  0.00     0.000 A 
ATOM     22  C   UNL d   1      13.326  11.779  -3.815  0.00  0.00     0.002 A 
ATOM     23  C   UNL d   1      13.685  12.312  -3.298  0.00  0.00     0.018 A 
ENDBRANCH   1  18
TORSDOF 5
ENDMDL
