MODEL 1
REMARK VINA RESULT:      -1.3      0.000      0.000
REMARK  7 active torsions:
REMARK  status: ('A' for Active; 'I' for Inactive)
REMARK       I    between atoms: C_2  and  N_1 
REMARK    1  A    between atoms: C_7  and  C_2 
REMARK    2  A    between atoms: C_10  and  C_3 
REMARK       I    between atoms: C_4  and  N_6 
REMARK    3  A    between atoms: C_5  and  C_4 
REMARK       I    between atoms: N_13  and  C_5 
REMARK    4  A    between atoms: N_6  and  C_10 
REMARK    5  A    between atoms: C_23  and  N_13 
REMARK    6  A    between atoms: O_22  and  C_24 
REMARK    7  A    between atoms: C_24  and  C_23 
ROOT
ATOM      1  N   UNL d   1      33.034  20.140 -23.204  0.00  0.00    -0.250 N 
ATOM      2  C   UNL d   1      32.925  19.960 -22.402  0.00  0.00     0.266 C 
ATOM      3  C   UNL d   1      33.036  19.604 -23.830  0.00  0.00     0.190 A 
ATOM      4  O   UNL d   1      32.805  19.183 -22.165  0.00  0.00    -0.267 OA
ATOM      5  O   UNL d   1      33.163  20.026 -24.536  0.00  0.00    -0.285 OA
ATOM      6  C   UNL d   1      33.159  20.889 -23.524  0.00  0.00     0.112 A 
ATOM      7  C   UNL d   1      33.240  20.823 -24.347  0.00  0.00     0.144 A 
ENDROOT
BRANCH   3   8
ATOM      8  C   UNL d   1      32.930  18.791 -23.764  0.00  0.00     0.146 C 
BRANCH   8   9
ATOM      9  N   UNL d   1      33.241  18.286 -24.336  0.00  0.00    -0.199 NA
ATOM     10  C   UNL d   1      32.877  17.567 -24.487  0.00  0.00     0.337 C 
ATOM     11  O   UNL d   1      33.188  17.063 -25.059  0.00  0.00    -0.260 OA
BRANCH  10  12
ATOM     12  C   UNL d   1      32.199  17.342 -24.070  0.00  0.00     0.337 C 
ATOM     13  O   UNL d   1      32.273  17.047 -23.304  0.00  0.00    -0.260 OA
ATOM     14  N   UNL d   1      31.452  17.409 -24.411  0.00  0.00    -0.200 NA
BRANCH  14  15
ATOM     15  C   UNL d   1      30.781  17.188 -24.006  0.00  0.00     0.129 C 
BRANCH  15  16
ATOM     16  C   UNL d   1      30.050  17.119 -24.387  0.00  0.00     0.137 C 
BRANCH  16  17
ATOM     17  O   UNL d   1      29.544  16.492 -24.217  0.00  0.00    -0.325 OA
ATOM     18  C   UNL d   1      28.720  16.573 -24.300  0.00  0.00     0.182 C 
ENDBRANCH  16  17
ENDBRANCH  15  16
ENDBRANCH  14  15
ENDBRANCH  10  12
ENDBRANCH   8   9
ENDBRANCH   3   8
BRANCH   2  19
ATOM     19  C   UNL d   1      32.939  20.573 -21.831  0.00  0.00     0.057 A 
ATOM     20  C   UNL d   1      33.228  20.427 -21.080  0.00  0.00     0.006 A 
ATOM     21  C   UNL d   1      33.240  21.032 -20.518  0.00  0.00     0.012 A 
ATOM     22  C   UNL d   1      32.962  21.780 -20.714  0.00  0.00     0.058 A 
ATOM     23  C   UNL d   1      32.670  21.927 -21.475  0.00  0.00     0.012 A 
ATOM     24 CL   UNL d   1      32.975  22.390 -20.144  0.00  0.00    -0.082 Cl
ATOM     25  C   UNL d   1      32.660  21.325 -22.025  0.00  0.00     0.006 A 
ENDBRANCH   2  19
TORSDOF 7
ENDMDL
MODEL 2
REMARK VINA RESULT:       0.7      2.188      5.163
REMARK  7 active torsions:
REMARK  status: ('A' for Active; 'I' for Inactive)
REMARK       I    between atoms: C_2  and  N_1 
REMARK    1  A    between atoms: C_7  and  C_2 
REMARK    2  A    between atoms: C_10  and  C_3 
REMARK       I    between atoms: C_4  and  N_6 
REMARK    3  A    between atoms: C_5  and  C_4 
REMARK       I    between atoms: N_13  and  C_5 
REMARK    4  A    between atoms: N_6  and  C_10 
REMARK    5  A    between atoms: C_23  and  N_13 
REMARK    6  A    between atoms: O_22  and  C_24 
REMARK    7  A    between atoms: C_24  and  C_23 
ROOT
ATOM      1  N   UNL d   1      31.018  16.883 -23.656  0.00  0.00    -0.250 N 
ATOM      2  C   UNL d   1      30.311  17.269 -23.850  0.00  0.00     0.266 C 
ATOM      3  C   UNL d   1      31.764  17.228 -23.598  0.00  0.00     0.190 A 
ATOM      4  O   UNL d   1      30.308  18.075 -24.008  0.00  0.00    -0.267 OA
ATOM      5  O   UNL d   1      32.311  16.636 -23.390  0.00  0.00    -0.285 OA
ATOM      6  C   UNL d   1      31.105  16.082 -23.485  0.00  0.00     0.112 A 
ATOM      7  C   UNL d   1      31.903  15.925 -23.320  0.00  0.00     0.144 A 
ENDROOT
BRANCH   3   8
ATOM      8  C   UNL d   1      31.935  18.023 -23.724  0.00  0.00     0.146 C 
BRANCH   8   9
ATOM      9  N   UNL d   1      32.314  18.258 -24.416  0.00  0.00    -0.199 NA
ATOM     10  C   UNL d   1      32.862  18.868 -24.394  0.00  0.00     0.337 C 
ATOM     11  O   UNL d   1      33.240  19.103 -25.086  0.00  0.00    -0.260 OA
BRANCH  10  12
ATOM     12  C   UNL d   1      33.038  19.250 -23.682  0.00  0.00     0.337 C 
ATOM     13  O   UNL d   1      33.241  18.803 -23.020  0.00  0.00    -0.260 OA
ATOM     14  N   UNL d   1      33.013  20.072 -23.627  0.00  0.00    -0.200 NA
BRANCH  14  15
ATOM     15  C   UNL d   1      33.186  20.454 -22.928  0.00  0.00     0.129 C 
BRANCH  15  16
ATOM     16  C   UNL d   1      32.827  21.173 -22.730  0.00  0.00     0.137 C 
BRANCH  16  17
ATOM     17  O   UNL d   1      32.804  21.431 -21.949  0.00  0.00    -0.325 OA
ATOM     18  C   UNL d   1      32.785  22.243 -21.767  0.00  0.00     0.182 C 
ENDBRANCH  16  17
ENDBRANCH  15  16
ENDBRANCH  14  15
ENDBRANCH  10  12
ENDBRANCH   8   9
ENDBRANCH   3   8
BRANCH   2  19
ATOM     19  C   UNL d   1      29.594  16.836 -23.887  0.00  0.00     0.057 A 
ATOM     20  C   UNL d   1      29.101  16.913 -24.535  0.00  0.00     0.006 A 
ATOM     21  C   UNL d   1      28.395  16.485 -24.569  0.00  0.00     0.012 A 
ATOM     22  C   UNL d   1      28.189  15.983 -23.952  0.00  0.00     0.058 A 
ATOM     23  C   UNL d   1      28.689  15.907 -23.296  0.00  0.00     0.012 A 
ATOM     24 CL   UNL d   1      27.475  15.552 -23.989  0.00  0.00    -0.082 Cl
ATOM     25  C   UNL d   1      29.384  16.331 -23.269  0.00  0.00     0.006 A 
ENDBRANCH   2  19
TORSDOF 7
ENDMDL
MODEL 3
REMARK VINA RESULT:       0.7      2.319      3.920
REMARK  7 active torsions:
REMARK  status: ('A' for Active; 'I' for Inactive)
REMARK       I    between atoms: C_2  and  N_1 
REMARK    1  A    between atoms: C_7  and  C_2 
REMARK    2  A    between atoms: C_10  and  C_3 
REMARK       I    between atoms: C_4  and  N_6 
REMARK    3  A    between atoms: C_5  and  C_4 
REMARK       I    between atoms: N_13  and  C_5 
REMARK    4  A    between atoms: N_6  and  C_10 
REMARK    5  A    between atoms: C_23  and  N_13 
REMARK    6  A    between atoms: O_22  and  C_24 
REMARK    7  A    between atoms: C_24  and  C_23 
ROOT
ATOM      1  N   UNL d   1      32.213  22.640 -20.229  0.00  0.00    -0.250 N 
ATOM      2  C   UNL d   1      32.746  22.316 -19.684  0.00  0.00     0.266 C 
ATOM      3  C   UNL d   1      32.110  22.407 -21.012  0.00  0.00     0.190 A 
ATOM      4  O   UNL d   1      33.241  21.699 -19.906  0.00  0.00    -0.267 OA
ATOM      5  O   UNL d   1      31.518  22.882 -21.353  0.00  0.00    -0.285 OA
ATOM      6  C   UNL d   1      31.685  23.257 -20.088  0.00  0.00     0.112 A 
ATOM      7  C   UNL d   1      31.254  23.410 -20.779  0.00  0.00     0.144 A 
ENDROOT
BRANCH   3   8
ATOM      8  C   UNL d   1      32.525  21.806 -21.391  0.00  0.00     0.146 C 
BRANCH   8   9
ATOM      9  N   UNL d   1      32.829  21.927 -22.147  0.00  0.00    -0.199 NA
ATOM     10  C   UNL d   1      32.937  21.288 -22.650  0.00  0.00     0.337 C 
ATOM     11  O   UNL d   1      33.241  21.409 -23.406  0.00  0.00    -0.260 OA
BRANCH  10  12
ATOM     12  C   UNL d   1      32.744  20.522 -22.406  0.00  0.00     0.337 C 
ATOM     13  O   UNL d   1      32.203  20.415 -21.793  0.00  0.00    -0.260 OA
ATOM     14  N   UNL d   1      33.086  19.865 -22.768  0.00  0.00    -0.200 NA
BRANCH  14  15
ATOM     15  C   UNL d   1      32.899  19.108 -22.532  0.00  0.00     0.129 C 
BRANCH  15  16
ATOM     16  C   UNL d   1      33.212  18.447 -22.919  0.00  0.00     0.137 C 
BRANCH  16  17
ATOM     17  O   UNL d   1      32.735  17.970 -23.391  0.00  0.00    -0.325 OA
ATOM     18  C   UNL d   1      32.703  17.147 -23.274  0.00  0.00     0.182 C 
ENDBRANCH  16  17
ENDBRANCH  15  16
ENDBRANCH  14  15
ENDBRANCH  10  12
ENDBRANCH   8   9
ENDBRANCH   3   8
BRANCH   2  19
ATOM     19  C   UNL d   1      32.782  22.618 -18.903  0.00  0.00     0.057 A 
ATOM     20  C   UNL d   1      32.962  23.406 -18.776  0.00  0.00     0.006 A 
ATOM     21  C   UNL d   1      32.996  23.702 -18.006  0.00  0.00     0.012 A 
ATOM     22  C   UNL d   1      32.850  23.205 -17.368  0.00  0.00     0.058 A 
ATOM     23  C   UNL d   1      32.668  22.408 -17.498  0.00  0.00     0.012 A 
ATOM     24 CL   UNL d   1      32.886  23.507 -16.591  0.00  0.00    -0.082 Cl
ATOM     25  C   UNL d   1      32.636  22.121 -18.261  0.00  0.00     0.006 A 
ENDBRANCH   2  19
TORSDOF 7
ENDMDL
