MODEL 1
REMARK VINA RESULT:      36.0      0.000      0.000
REMARK  6 active torsions:
REMARK  status: ('A' for Active; 'I' for Inactive)
REMARK    1  A    between atoms: N_2  and  S_1 
REMARK    2  A    between atoms: C_3  and  S_1 
REMARK    3  A    between atoms: O_13  and  C_8 
REMARK    4  A    between atoms: C_14  and  O_13 
REMARK    5  A    between atoms: C_15  and  C_14 
REMARK    6  A    between atoms: C_16  and  C_15 
ROOT
ATOM      1  C   UNL d   1      59.033  49.673  50.644  0.00  0.00     0.104 A 
ATOM      2  C   UNL d   1      59.048  49.683  49.818  0.00  0.00     0.015 A 
ATOM      3  C   UNL d   1      58.351  49.662  51.043  0.00  0.00     0.015 A 
ATOM      4  C   UNL d   1      57.633  49.671  49.794  0.00  0.00     0.100 A 
ATOM      5  C   UNL d   1      58.358  49.682  49.401  0.00  0.00     0.025 A 
ATOM      6  C   UNL d   1      57.619  49.661  50.620  0.00  0.00     0.025 A 
ENDROOT
BRANCH   1   7
ATOM      7  S   UNL d   1      59.756  49.675  51.062  0.00  0.00     0.271 S 
ATOM      8  O   UNL d   1      59.326  49.693  51.767  0.00  0.00    -0.200 OA
ATOM      9  O   UNL d   1      60.180  49.656  50.340  0.00  0.00    -0.200 OA
BRANCH   7  10
ATOM     10  N   UNL d   1      60.489  49.676  51.484  0.00  0.00    -0.229 N 
ATOM     11  C   UNL d   1      60.346  49.697  52.307  0.00  0.00     0.092 A 
ATOM     12  C   UNL d   1      60.905  49.705  52.913  0.00  0.00     0.020 A 
ATOM     13  C   UNL d   1      61.708  49.694  52.843  0.00  0.00     0.002 A 
ATOM     14  C   UNL d   1      62.194  49.673  52.197  0.00  0.00     0.002 A 
ATOM     15  C   UNL d   1      61.949  49.657  51.406  0.00  0.00     0.020 A 
ATOM     16  C   UNL d   1      61.207  49.658  51.084  0.00  0.00     0.092 A 
ENDBRANCH   7  10
ENDBRANCH   1   7
BRANCH   4  17
ATOM     17  O   UNL d   1      56.936  49.670  49.357  0.00  0.00    -0.305 OA
BRANCH  17  18
ATOM     18  C   UNL d   1      56.274  49.319  49.661  0.00  0.00     0.123 C 
BRANCH  18  19
ATOM     19  C   UNL d   1      56.260  48.493  49.792  0.00  0.00     0.027 C 
BRANCH  19  20
ATOM     20  C   UNL d   1      56.281  47.966  49.158  0.00  0.00     0.002 C 
ATOM     21  C   UNL d   1      56.450  47.156  49.270  0.00  0.00     0.000 C 
ENDBRANCH  19  20
ENDBRANCH  18  19
ENDBRANCH  17  18
ENDBRANCH   4  17
TORSDOF 6
ENDMDL
