MODEL 1
REMARK VINA RESULT:      -5.9      0.000      0.000
REMARK  5 active torsions:
REMARK  status: ('A' for Active; 'I' for Inactive)
REMARK    1  A    between atoms: C_15  and  C_4 
REMARK       I    between atoms: C_11  and  N_14 
REMARK    2  A    between atoms: C_19  and  C_11 
REMARK    3  A    between atoms: N_14  and  C_16 
REMARK    4  A    between atoms: C_16  and  C_15 
REMARK    5  A    between atoms: C_20  and  C_19 
ROOT
ATOM      1  N   UNL d   1     -42.935-122.296 -49.949  0.00  0.00    -0.208 NA
ATOM      2  C   UNL d   1     -42.595-122.082 -50.671  0.00  0.00     0.279 A 
ATOM      3  C   UNL d   1     -42.473-122.681 -49.369  0.00  0.00     0.085 A 
ATOM      4  C   UNL d   1     -41.791-122.252 -50.818  0.00  0.00     0.059 A 
ATOM      5  C   UNL d   1     -41.339-122.634 -50.241  0.00  0.00     0.006 A 
ATOM      6  C   UNL d   1     -41.680-122.845 -49.522  0.00  0.00     0.018 A 
ATOM      7  C   UNL d   1     -42.823-122.890 -48.649  0.00  0.00     0.019 A 
ATOM      8  C   UNL d   1     -41.226-123.228 -48.942  0.00  0.00     0.002 A 
ATOM      9  C   UNL d   1     -41.567-123.440 -48.223  0.00  0.00     0.000 A 
ATOM     10  C   UNL d   1     -42.370-123.270 -48.076  0.00  0.00     0.002 A 
ATOM     11  O   UNL d   1     -43.047-121.703 -51.244  0.00  0.00    -0.265 OA
ATOM     12  C   UNL d   1     -41.123-123.818 -47.649  0.00  0.00     0.000 C 
ATOM     13  C   UNL d   1     -42.711-123.481 -47.358  0.00  0.00     0.000 C 
ENDROOT
BRANCH   4  14
ATOM     14  C   UNL d   1     -41.458-122.039 -51.535  0.00  0.00     0.026 C 
BRANCH  14  15
ATOM     15  C   UNL d   1     -41.348-122.593 -52.129  0.00  0.00     0.102 C 
BRANCH  15  16
ATOM     16  N   UNL d   1     -41.236-122.362 -52.914  0.00  0.00    -0.206 NA
ATOM     17  C   UNL d   1     -41.256-122.921 -53.521  0.00  0.00     0.279 C 
ATOM     18  O   UNL d   1     -41.386-123.714 -53.351  0.00  0.00    -0.265 OA
BRANCH  17  19
ATOM     19  C   UNL d   1     -41.143-122.680 -54.305  0.00  0.00     0.062 C 
BRANCH  19  20
ATOM     20  C   UNL d   1     -41.793-122.615 -54.815  0.00  0.00     0.005 C 
ATOM     21  C   UNL d   1     -41.745-122.170 -55.496  0.00  0.00     0.000 C 
ENDBRANCH  19  20
ENDBRANCH  17  19
ENDBRANCH  15  16
ENDBRANCH  14  15
ENDBRANCH   4  14
TORSDOF 5
ENDMDL
MODEL 2
REMARK VINA RESULT:      -5.7      1.149      4.961
REMARK  5 active torsions:
REMARK  status: ('A' for Active; 'I' for Inactive)
REMARK    1  A    between atoms: C_15  and  C_4 
REMARK       I    between atoms: C_11  and  N_14 
REMARK    2  A    between atoms: C_19  and  C_11 
REMARK    3  A    between atoms: N_14  and  C_16 
REMARK    4  A    between atoms: C_16  and  C_15 
REMARK    5  A    between atoms: C_20  and  C_19 
ROOT
ATOM      1  N   UNL d   1     -41.759-121.550 -52.531  0.00  0.00    -0.208 NA
ATOM      2  C   UNL d   1     -41.582-121.733 -51.744  0.00  0.00     0.279 A 
ATOM      3  C   UNL d   1     -41.651-122.126 -53.125  0.00  0.00     0.085 A 
ATOM      4  C   UNL d   1     -41.297-122.492 -51.548  0.00  0.00     0.059 A 
ATOM      5  C   UNL d   1     -41.192-123.059 -52.141  0.00  0.00     0.006 A 
ATOM      6  C   UNL d   1     -41.369-122.875 -52.924  0.00  0.00     0.018 A 
ATOM      7  C   UNL d   1     -41.831-121.934 -53.910  0.00  0.00     0.019 A 
ATOM      8  C   UNL d   1     -41.264-123.442 -53.519  0.00  0.00     0.002 A 
ATOM      9  C   UNL d   1     -41.441-123.259 -54.302  0.00  0.00     0.000 A 
ATOM     10  C   UNL d   1     -41.726-122.500 -54.499  0.00  0.00     0.002 A 
ATOM     11  O   UNL d   1     -41.687-121.167 -51.156  0.00  0.00    -0.265 OA
ATOM     12  C   UNL d   1     -41.339-123.817 -54.892  0.00  0.00     0.000 C 
ATOM     13  C   UNL d   1     -41.903-122.316 -55.281  0.00  0.00     0.000 C 
ENDROOT
BRANCH   4  14
ATOM     14  C   UNL d   1     -41.123-122.668 -50.768  0.00  0.00     0.026 C 
BRANCH  14  15
ATOM     15  C   UNL d   1     -41.657-123.076 -50.299  0.00  0.00     0.102 C 
BRANCH  15  16
ATOM     16  N   UNL d   1     -41.477-123.274 -49.518  0.00  0.00    -0.206 NA
ATOM     17  C   UNL d   1     -42.048-123.622 -49.033  0.00  0.00     0.279 C 
ATOM     18  O   UNL d   1     -42.800-123.776 -49.323  0.00  0.00    -0.265 OA
BRANCH  17  19
ATOM     19  C   UNL d   1     -41.859-123.817 -48.252  0.00  0.00     0.062 C 
BRANCH  19  20
ATOM     20  C   UNL d   1     -42.382-123.623 -47.638  0.00  0.00     0.005 C 
ATOM     21  C   UNL d   1     -42.172-123.737 -46.859  0.00  0.00     0.000 C 
ENDBRANCH  19  20
ENDBRANCH  17  19
ENDBRANCH  15  16
ENDBRANCH  14  15
ENDBRANCH   4  14
TORSDOF 5
ENDMDL
MODEL 3
REMARK VINA RESULT:      -4.0      0.908      5.191
REMARK  5 active torsions:
REMARK  status: ('A' for Active; 'I' for Inactive)
REMARK    1  A    between atoms: C_15  and  C_4 
REMARK       I    between atoms: C_11  and  N_14 
REMARK    2  A    between atoms: C_19  and  C_11 
REMARK    3  A    between atoms: N_14  and  C_16 
REMARK    4  A    between atoms: C_16  and  C_15 
REMARK    5  A    between atoms: C_20  and  C_19 
ROOT
ATOM      1  N   UNL d   1     -41.418-123.519 -53.192  0.00  0.00    -0.208 NA
ATOM      2  C   UNL d   1     -41.352-123.277 -52.404  0.00  0.00     0.279 A 
ATOM      3  C   UNL d   1     -41.649-122.970 -53.777  0.00  0.00     0.085 A 
ATOM      4  C   UNL d   1     -41.517-122.487 -52.197  0.00  0.00     0.059 A 
ATOM      5  C   UNL d   1     -41.746-121.947 -52.780  0.00  0.00     0.006 A 
ATOM      6  C   UNL d   1     -41.811-122.189 -53.564  0.00  0.00     0.018 A 
ATOM      7  C   UNL d   1     -41.712-123.221 -54.563  0.00  0.00     0.019 A 
ATOM      8  C   UNL d   1     -42.041-121.649 -54.150  0.00  0.00     0.002 A 
ATOM      9  C   UNL d   1     -42.106-121.892 -54.935  0.00  0.00     0.000 A 
ATOM     10  C   UNL d   1     -41.941-122.682 -55.142  0.00  0.00     0.002 A 
ATOM     11  O   UNL d   1     -41.124-123.816 -51.826  0.00  0.00    -0.265 OA
ATOM     12  C   UNL d   1     -42.333-121.360 -55.515  0.00  0.00     0.000 C 
ATOM     13  C   UNL d   1     -42.006-122.925 -55.926  0.00  0.00     0.000 C 
ENDROOT
BRANCH   4  14
ATOM     14  C   UNL d   1     -41.451-122.252 -51.416  0.00  0.00     0.026 C 
BRANCH  14  15
ATOM     15  C   UNL d   1     -42.087-122.311 -50.903  0.00  0.00     0.102 C 
BRANCH  15  16
ATOM     16  N   UNL d   1     -41.974-122.426 -50.093  0.00  0.00    -0.206 NA
ATOM     17  C   UNL d   1     -42.616-122.594 -49.601  0.00  0.00     0.279 C 
ATOM     18  O   UNL d   1     -43.374-122.649 -49.913  0.00  0.00    -0.265 OA
BRANCH  17  19
ATOM     19  C   UNL d   1     -42.494-122.708 -48.791  0.00  0.00     0.062 C 
BRANCH  19  20
ATOM     20  C   UNL d   1     -42.849-123.350 -48.405  0.00  0.00     0.005 C 
ATOM     21  C   UNL d   1     -42.488-123.704 -47.766  0.00  0.00     0.000 C 
ENDBRANCH  19  20
ENDBRANCH  17  19
ENDBRANCH  15  16
ENDBRANCH  14  15
ENDBRANCH   4  14
TORSDOF 5
ENDMDL
