MODEL 1
REMARK VINA RESULT:      32.2      0.000      0.000
REMARK  1 active torsions:
REMARK  status: ('A' for Active; 'I' for Inactive)
REMARK    1  A    between atoms: C_7  and  N_1 
ROOT
ATOM      1  N   UNL d   1     -51.216  26.028  33.347  0.00  0.00    -0.242 N 
ATOM      2  C   UNL d   1     -52.013  26.005  33.339  0.00  0.00     0.267 A 
ATOM      3  C   UNL d   1     -50.722  25.338  33.346  0.00  0.00     0.267 A 
ATOM      4  C   UNL d   1     -52.376  25.256  33.328  0.00  0.00     0.057 A 
ATOM      5  C   UNL d   1     -51.123  24.623  33.335  0.00  0.00     0.057 A 
ATOM      6  C   UNL d   1     -51.946  24.600  33.326  0.00  0.00     0.009 A 
ATOM      7  O   UNL d   1     -49.901  25.361  33.354  0.00  0.00    -0.267 OA
ATOM      8  O   UNL d   1     -52.469  26.693  33.341  0.00  0.00    -0.267 OA
ATOM      9  C   UNL d   1     -52.315  23.851  33.315  0.00  0.00     0.000 A 
ATOM     10  C   UNL d   1     -50.668  23.934  33.333  0.00  0.00     0.005 A 
ATOM     11  C   UNL d   1     -53.212  25.233  33.320  0.00  0.00     0.005 A 
ATOM     12  C   UNL d   1     -51.030  23.211  33.322  0.00  0.00     0.000 A 
ATOM     13  C   UNL d   1     -53.605  24.518  33.309  0.00  0.00     0.000 A 
ATOM     14  C   UNL d   1     -51.852  23.189  33.314  0.00  0.00     0.000 A 
ATOM     15  C   UNL d   1     -53.119  23.816  33.307  0.00  0.00     0.000 A 
ENDROOT
BRANCH   1  16
ATOM     16  C   UNL d   1     -50.854  26.777  33.358  0.00  0.00     0.070 A 
ATOM     17  C   UNL d   1     -50.023  26.856  33.384  0.00  0.00     0.021 A 
ATOM     18  C   UNL d   1     -49.685  27.585  33.394  0.00  0.00     0.043 A 
ATOM     19  C   UNL d   1     -50.159  28.310  33.379  0.00  0.00     0.196 A 
ATOM     20  C   UNL d   1     -50.985  28.245  33.354  0.00  0.00     0.043 A 
ATOM     21  O   UNL d   1     -49.843  29.113  33.389  0.00  0.00    -0.287 OA
ATOM     22  C   UNL d   1     -51.326  27.471  33.344  0.00  0.00     0.021 A 
ENDBRANCH   1  16
TORSDOF 1
ENDMDL
MODEL 2
REMARK VINA RESULT:      34.0      0.638      1.092
REMARK  1 active torsions:
REMARK  status: ('A' for Active; 'I' for Inactive)
REMARK    1  A    between atoms: C_7  and  N_1 
ROOT
ATOM      1  N   UNL d   1     -51.284  26.030  33.325  0.00  0.00    -0.242 N 
ATOM      2  C   UNL d   1     -51.984  25.647  33.325  0.00  0.00     0.267 A 
ATOM      3  C   UNL d   1     -50.531  25.639  33.329  0.00  0.00     0.267 A 
ATOM      4  C   UNL d   1     -51.967  24.815  33.330  0.00  0.00     0.057 A 
ATOM      5  C   UNL d   1     -50.563  24.820  33.333  0.00  0.00     0.057 A 
ATOM      6  C   UNL d   1     -51.286  24.426  33.333  0.00  0.00     0.009 A 
ATOM      7  O   UNL d   1     -49.809  26.033  33.328  0.00  0.00    -0.267 OA
ATOM      8  O   UNL d   1     -52.702  26.053  33.322  0.00  0.00    -0.267 OA
ATOM      9  C   UNL d   1     -51.274  23.591  33.337  0.00  0.00     0.000 A 
ATOM     10  C   UNL d   1     -49.845  24.413  33.336  0.00  0.00     0.005 A 
ATOM     11  C   UNL d   1     -52.701  24.415  33.330  0.00  0.00     0.005 A 
ATOM     12  C   UNL d   1     -49.839  23.605  33.341  0.00  0.00     0.000 A 
ATOM     13  C   UNL d   1     -52.727  23.600  33.334  0.00  0.00     0.000 A 
ATOM     14  C   UNL d   1     -50.562  23.211  33.341  0.00  0.00     0.000 A 
ATOM     15  C   UNL d   1     -51.975  23.195  33.338  0.00  0.00     0.000 A 
ENDROOT
BRANCH   1  16
ATOM     16  C   UNL d   1     -51.301  26.861  33.321  0.00  0.00     0.070 A 
ATOM     17  C   UNL d   1     -52.024  27.280  33.326  0.00  0.00     0.021 A 
ATOM     18  C   UNL d   1     -52.028  28.084  33.322  0.00  0.00     0.043 A 
ATOM     19  C   UNL d   1     -51.294  28.545  33.312  0.00  0.00     0.196 A 
ATOM     20  C   UNL d   1     -50.571  28.141  33.306  0.00  0.00     0.043 A 
ATOM     21  O   UNL d   1     -51.247  29.406  33.306  0.00  0.00    -0.287 OA
ATOM     22  C   UNL d   1     -50.583  27.295  33.311  0.00  0.00     0.021 A 
ENDBRANCH   1  16
TORSDOF 1
ENDMDL
