MODEL 1
REMARK VINA RESULT:      -2.9      0.000      0.000
REMARK  7 active torsions:
REMARK  status: ('A' for Active; 'I' for Inactive)
REMARK    1  A    between atoms: C_6  and  C_2 
REMARK    2  A    between atoms: S_7  and  C_4 
REMARK    3  A    between atoms: C_12  and  S_7 
REMARK    4  A    between atoms: C_8  and  C_12 
REMARK    5  A    between atoms: O_16  and  C_8 
REMARK    6  A    between atoms: O_17  and  C_13 
REMARK    7  A    between atoms: C_18  and  O_16 
ROOT
ATOM      1  N   UNL d   1      32.840  18.780 -22.504  0.00  0.00    -0.212 NA
ATOM      2  C   UNL d   1      32.796  18.520 -23.279  0.00  0.00     0.171 A 
ATOM      3  N   UNL d   1      33.043  19.136 -23.774  0.00  0.00    -0.188 NA
ATOM      4  C   UNL d   1      33.113  19.559 -22.503  0.00  0.00     0.160 A 
ATOM      5  S   UNL d   1      33.239  19.779 -23.293  0.00  0.00     0.041 SA
ENDROOT
BRANCH   2   6
ATOM      6  C   UNL d   1      32.550  17.773 -23.535  0.00  0.00     0.037 A 
ATOM      7  C   UNL d   1      33.004  17.092 -23.377  0.00  0.00     0.005 A 
ATOM      8  C   UNL d   1      32.757  16.357 -23.631  0.00  0.00     0.024 A 
ATOM      9  C   UNL d   1      32.052  16.287 -24.048  0.00  0.00     0.094 A 
ATOM     10  C   UNL d   1      31.594  16.961 -24.210  0.00  0.00     0.024 A 
ATOM     11  C   UNL d   1      31.851  17.694 -23.950  0.00  0.00     0.005 A 
BRANCH   9  12
ATOM     12  O   UNL d   1      31.795  15.550 -24.309  0.00  0.00    -0.328 OA
ATOM     13  C   UNL d   1      31.181  15.500 -24.850  0.00  0.00     0.181 C 
ENDBRANCH   9  12
ENDBRANCH   2   6
BRANCH   4  14
ATOM     14  S   UNL d   1      33.241  20.039 -21.841  0.00  0.00    -0.054 SA
BRANCH  14  15
ATOM     15  C   UNL d   1      32.694  20.613 -21.639  0.00  0.00     0.106 C 
BRANCH  15  16
ATOM     16  C   UNL d   1      32.866  21.173 -21.056  0.00  0.00     0.307 C 
ATOM     17  O   UNL d   1      33.206  20.928 -20.341  0.00  0.00    -0.258 OA
BRANCH  16  18
ATOM     18  O   UNL d   1      32.703  21.974 -21.182  0.00  0.00    -0.271 OA
BRANCH  18  19
ATOM     19  C   UNL d   1      32.224  22.394 -20.647  0.00  0.00     0.126 C 
ATOM     20  C   UNL d   1      32.086  23.198 -20.760  0.00  0.00     0.029 C 
ENDBRANCH  18  19
ENDBRANCH  16  18
ENDBRANCH  15  16
ENDBRANCH  14  15
ENDBRANCH   4  14
TORSDOF 7
ENDMDL
MODEL 2
REMARK VINA RESULT:      -2.5      0.954      5.114
REMARK  7 active torsions:
REMARK  status: ('A' for Active; 'I' for Inactive)
REMARK    1  A    between atoms: C_6  and  C_2 
REMARK    2  A    between atoms: S_7  and  C_4 
REMARK    3  A    between atoms: C_12  and  S_7 
REMARK    4  A    between atoms: C_8  and  C_12 
REMARK    5  A    between atoms: O_16  and  C_8 
REMARK    6  A    between atoms: O_17  and  C_13 
REMARK    7  A    between atoms: C_18  and  O_16 
ROOT
ATOM      1  N   UNL d   1      32.966  19.044 -22.626  0.00  0.00    -0.212 NA
ATOM      2  C   UNL d   1      33.107  19.837 -22.769  0.00  0.00     0.171 A 
ATOM      3  N   UNL d   1      33.240  19.936 -23.580  0.00  0.00    -0.188 NA
ATOM      4  C   UNL d   1      33.007  18.636 -23.343  0.00  0.00     0.160 A 
ATOM      5  S   UNL d   1      33.178  19.193 -23.935  0.00  0.00     0.041 SA
ENDROOT
BRANCH   2   6
ATOM      6  C   UNL d   1      33.118  20.444 -22.207  0.00  0.00     0.037 A 
ATOM      7  C   UNL d   1      33.019  20.281 -21.395  0.00  0.00     0.005 A 
ATOM      8  C   UNL d   1      33.030  20.883 -20.844  0.00  0.00     0.024 A 
ATOM      9  C   UNL d   1      33.141  21.659 -21.092  0.00  0.00     0.094 A 
ATOM     10  C   UNL d   1      33.241  21.829 -21.899  0.00  0.00     0.024 A 
ATOM     11  C   UNL d   1      33.228  21.217 -22.444  0.00  0.00     0.005 A 
BRANCH   9  12
ATOM     12  O   UNL d   1      33.154  22.273 -20.544  0.00  0.00    -0.328 OA
ATOM     13  C   UNL d   1      32.451  22.563 -20.239  0.00  0.00     0.181 C 
ENDBRANCH   9  12
ENDBRANCH   2   6
BRANCH   4  14
ATOM     14  S   UNL d   1      32.901  17.824 -23.460  0.00  0.00    -0.054 SA
BRANCH  14  15
ATOM     15  C   UNL d   1      32.194  17.542 -23.760  0.00  0.00     0.106 C 
BRANCH  15  16
ATOM     16  C   UNL d   1      32.022  16.734 -23.745  0.00  0.00     0.307 C 
ATOM     17  O   UNL d   1      32.595  16.199 -23.475  0.00  0.00    -0.258 OA
BRANCH  16  18
ATOM     18  O   UNL d   1      31.285  16.457 -23.997  0.00  0.00    -0.271 OA
BRANCH  18  19
ATOM     19  C   UNL d   1      30.939  15.793 -23.634  0.00  0.00     0.126 C 
ATOM     20  C   UNL d   1      30.121  15.693 -23.648  0.00  0.00     0.029 C 
ENDBRANCH  18  19
ENDBRANCH  16  18
ENDBRANCH  15  16
ENDBRANCH  14  15
ENDBRANCH   4  14
TORSDOF 7
ENDMDL
MODEL 3
REMARK VINA RESULT:      -1.9      2.032      2.974
REMARK  7 active torsions:
REMARK  status: ('A' for Active; 'I' for Inactive)
REMARK    1  A    between atoms: C_6  and  C_2 
REMARK    2  A    between atoms: S_7  and  C_4 
REMARK    3  A    between atoms: C_12  and  S_7 
REMARK    4  A    between atoms: C_8  and  C_12 
REMARK    5  A    between atoms: O_16  and  C_8 
REMARK    6  A    between atoms: O_17  and  C_13 
REMARK    7  A    between atoms: C_18  and  O_16 
ROOT
ATOM      1  N   UNL d   1      33.159  21.456 -21.421  0.00  0.00    -0.212 NA
ATOM      2  C   UNL d   1      33.201  21.160 -22.183  0.00  0.00     0.171 A 
ATOM      3  N   UNL d   1      33.234  21.799 -22.709  0.00  0.00    -0.188 NA
ATOM      4  C   UNL d   1      33.164  22.281 -21.459  0.00  0.00     0.160 A 
ATOM      5  S   UNL d   1      33.211  22.492 -22.261  0.00  0.00     0.041 SA
ENDROOT
BRANCH   2   6
ATOM      6  C   UNL d   1      33.211  20.362 -22.402  0.00  0.00     0.037 A 
ATOM      7  C   UNL d   1      33.225  20.136 -23.204  0.00  0.00     0.005 A 
ATOM      8  C   UNL d   1      33.234  19.348 -23.415  0.00  0.00     0.024 A 
ATOM      9  C   UNL d   1      33.230  18.770 -22.830  0.00  0.00     0.094 A 
ATOM     10  C   UNL d   1      33.216  18.988 -22.028  0.00  0.00     0.024 A 
ATOM     11  C   UNL d   1      33.207  19.782 -21.828  0.00  0.00     0.005 A 
BRANCH   9  12
ATOM     12  O   UNL d   1      33.239  17.973 -23.032  0.00  0.00    -0.328 OA
ATOM     13  C   UNL d   1      32.549  17.533 -22.992  0.00  0.00     0.181 C 
ENDBRANCH   9  12
ENDBRANCH   2   6
BRANCH   4  14
ATOM     14  S   UNL d   1      33.129  22.808 -20.821  0.00  0.00    -0.054 SA
BRANCH  14  15
ATOM     15  C   UNL d   1      32.797  22.571 -20.112  0.00  0.00     0.106 C 
BRANCH  15  16
ATOM     16  C   UNL d   1      32.693  23.111 -19.495  0.00  0.00     0.307 C 
ATOM     17  O   UNL d   1      32.094  23.682 -19.548  0.00  0.00    -0.258 OA
BRANCH  16  18
ATOM     18  O   UNL d   1      33.181  23.085 -18.828  0.00  0.00    -0.271 OA
BRANCH  18  19
ATOM     19  C   UNL d   1      32.940  23.445 -18.118  0.00  0.00     0.126 C 
ATOM     20  C   UNL d   1      32.985  23.029 -17.408  0.00  0.00     0.029 C 
ENDBRANCH  18  19
ENDBRANCH  16  18
ENDBRANCH  15  16
ENDBRANCH  14  15
ENDBRANCH   4  14
TORSDOF 7
ENDMDL
