MODEL 1
REMARK VINA RESULT:      96.3      0.000      0.000
REMARK  3 active torsions:
REMARK  status: ('A' for Active; 'I' for Inactive)
REMARK       I    between atoms: C_4  and  N_1 
REMARK    1  A    between atoms: N_3  and  C_2 
REMARK    2  A    between atoms: C_9  and  C_4 
REMARK    3  A    between atoms: N_10  and  C_5 
ROOT
ATOM      1  C   UNL d   1      60.108  48.539  51.505  0.00  0.00     0.143 A 
ATOM      2  C   UNL d   1      60.349  49.071  50.889  0.00  0.00     0.086 A 
ATOM      3  C   UNL d   1      59.330  48.621  51.804  0.00  0.00     0.030 A 
ATOM      4  C   UNL d   1      58.833  49.201  51.499  0.00  0.00     0.058 A 
ATOM      5  C   UNL d   1      59.832  49.635  50.609  0.00  0.00     0.019 A 
ATOM      6  C   UNL d   1      59.075  49.694  50.919  0.00  0.00     0.006 A 
ENDROOT
BRANCH   4   7
ATOM      7  C   UNL d   1      58.071  49.255  51.817  0.00  0.00     0.265 C 
ATOM      8  N   UNL d   1      57.428  49.383  51.289  0.00  0.00    -0.275 N 
ATOM      9  C   UNL d   1      56.635  49.451  51.502  0.00  0.00     0.067 A 
ATOM     10  C   UNL d   1      57.488  49.463  50.468  0.00  0.00     0.067 A 
ATOM     11  C   UNL d   1      56.215  49.569  50.834  0.00  0.00     0.019 A 
ATOM     12  C   UNL d   1      56.062  49.422  52.403  0.00  0.00     0.019 C 
ATOM     13  C   UNL d   1      56.723  49.580  50.180  0.00  0.00     0.018 A 
ATOM     14  C   UNL d   1      56.606  49.678  49.369  0.00  0.00     0.002 A 
ATOM     15  C   UNL d   1      57.244  49.657  48.871  0.00  0.00     0.000 A 
ATOM     16  C   UNL d   1      58.001  49.542  49.149  0.00  0.00     0.002 A 
ATOM     17  C   UNL d   1      58.127  49.443  49.957  0.00  0.00     0.018 A 
ATOM     18  O   UNL d   1      57.925  49.186  52.634  0.00  0.00    -0.267 OA
ENDBRANCH   4   7
BRANCH   1  19
ATOM     19  N   UNL d   1      60.632  47.960  51.795  0.00  0.00    -0.112 N 
ATOM     20  O   UNL d   1      61.382  48.188  52.119  0.00  0.00    -0.532 OA
ATOM     21  O   UNL d   1      60.431  47.156  51.772  0.00  0.00    -0.532 OA
ENDBRANCH   1  19
BRANCH   2  22
ATOM     22  N   UNL d   1      61.118  49.008  50.577  0.00  0.00    -0.302 N 
ATOM     23  C   UNL d   1      61.705  49.600  50.712  0.00  0.00     0.080 A 
ATOM     24  C   UNL d   1      62.461  49.517  50.392  0.00  0.00     0.019 A 
ATOM     25  C   UNL d   1      62.651  48.861  49.941  0.00  0.00     0.003 A 
ATOM     26  C   UNL d   1      62.092  48.263  49.792  0.00  0.00     0.019 A 
ATOM     27  C   UNL d   1      61.335  48.343  50.110  0.00  0.00     0.080 A 
ENDBRANCH   2  22
TORSDOF 3
ENDMDL
MODEL 2
REMARK VINA RESULT:      96.5      1.186      4.089
REMARK  3 active torsions:
REMARK  status: ('A' for Active; 'I' for Inactive)
REMARK       I    between atoms: C_4  and  N_1 
REMARK    1  A    between atoms: N_3  and  C_2 
REMARK    2  A    between atoms: C_9  and  C_4 
REMARK    3  A    between atoms: N_10  and  C_5 
ROOT
ATOM      1  C   UNL d   1      58.201  48.860  51.105  0.00  0.00     0.143 A 
ATOM      2  C   UNL d   1      58.211  49.197  50.325  0.00  0.00     0.086 A 
ATOM      3  C   UNL d   1      58.890  48.944  51.572  0.00  0.00     0.030 A 
ATOM      4  C   UNL d   1      59.543  49.343  51.269  0.00  0.00     0.058 A 
ATOM      5  C   UNL d   1      58.874  49.586  50.056  0.00  0.00     0.019 A 
ATOM      6  C   UNL d   1      59.538  49.655  50.535  0.00  0.00     0.006 A 
ENDROOT
BRANCH   4   7
ATOM      7  C   UNL d   1      60.208  49.408  51.758  0.00  0.00     0.265 C 
ATOM      8  N   UNL d   1      60.965  49.459  51.393  0.00  0.00    -0.275 N 
ATOM      9  C   UNL d   1      61.687  49.526  51.786  0.00  0.00     0.067 A 
ATOM     10  C   UNL d   1      61.110  49.449  50.579  0.00  0.00     0.067 A 
ATOM     11  C   UNL d   1      62.261  49.558  51.233  0.00  0.00     0.019 A 
ATOM     12  C   UNL d   1      62.023  49.579  52.799  0.00  0.00     0.019 C 
ATOM     13  C   UNL d   1      61.926  49.512  50.477  0.00  0.00     0.018 A 
ATOM     14  C   UNL d   1      62.241  49.517  49.714  0.00  0.00     0.002 A 
ATOM     15  C   UNL d   1      61.740  49.461  49.079  0.00  0.00     0.000 A 
ATOM     16  C   UNL d   1      60.934  49.399  49.173  0.00  0.00     0.002 A 
ATOM     17  C   UNL d   1      60.612  49.393  49.931  0.00  0.00     0.018 A 
ATOM     18  O   UNL d   1      60.150  49.425  52.588  0.00  0.00    -0.267 OA
ENDBRANCH   4   7
BRANCH   1  19
ATOM     19  N   UNL d   1      57.525  48.462  51.385  0.00  0.00    -0.112 N 
ATOM     20  O   UNL d   1      56.750  48.736  51.176  0.00  0.00    -0.532 OA
ATOM     21  O   UNL d   1      57.598  47.794  51.872  0.00  0.00    -0.532 OA
ENDBRANCH   1  19
BRANCH   2  22
ATOM     22  N   UNL d   1      57.536  49.126  49.843  0.00  0.00    -0.302 N 
ATOM     23  C   UNL d   1      57.433  48.476  49.314  0.00  0.00     0.080 A 
ATOM     24  C   UNL d   1      56.756  48.425  48.845  0.00  0.00     0.019 A 
ATOM     25  C   UNL d   1      56.178  49.003  48.887  0.00  0.00     0.003 A 
ATOM     26  C   UNL d   1      56.254  49.654  49.400  0.00  0.00     0.019 A 
ATOM     27  C   UNL d   1      56.930  49.708  49.870  0.00  0.00     0.080 A 
ENDBRANCH   2  22
TORSDOF 3
ENDMDL
