MODEL 1
REMARK VINA RESULT:      -3.3      0.000      0.000
REMARK  4 active torsions:
REMARK  status: ('A' for Active; 'I' for Inactive)
REMARK    1  A    between atoms: N_3  and  S_1 
REMARK    2  A    between atoms: C_4  and  S_1 
REMARK    3  A    between atoms: C_2  and  N_3 
REMARK    4  A    between atoms: O_18  and  C_13 
ROOT
ATOM      1  S   UNL d   1      33.161  19.077 -23.218  0.00  0.00     0.285 S 
ATOM      2  O   UNL d   1      33.239  19.404 -24.009  0.00  0.00    -0.198 OA
ATOM      3  O   UNL d   1      33.083  18.764 -22.432  0.00  0.00    -0.198 OA
ENDROOT
BRANCH   1   4
ATOM      4  N   UNL d   1      33.241  18.310 -23.521  0.00  0.00    -0.157 NA
BRANCH   4   5
ATOM      5  C   UNL d   1      32.547  17.874 -23.746  0.00  0.00     0.113 A 
ATOM      6  C   UNL d   1      32.512  17.068 -23.581  0.00  0.00     0.100 A 
ATOM      7  C   UNL d   1      31.839  16.644 -23.799  0.00  0.00     0.021 A 
ATOM      8  N   UNL d   1      33.125  16.678 -23.209  0.00  0.00    -0.242 NA
ATOM      9  C   UNL d   1      31.792  15.840 -23.640  0.00  0.00     0.003 A 
ATOM     10  C   UNL d   1      31.214  17.036 -24.177  0.00  0.00     0.026 A 
ATOM     11  C   UNL d   1      32.414  15.453 -23.264  0.00  0.00     0.021 A 
ATOM     12  C   UNL d   1      33.088  15.876 -23.046  0.00  0.00     0.099 A 
ATOM     13  C   UNL d   1      31.259  17.845 -24.338  0.00  0.00     0.096 A 
ATOM     14  C   UNL d   1      31.933  18.268 -24.120  0.00  0.00     0.046 A 
BRANCH  13  15
ATOM     15  O   UNL d   1      30.646  18.261 -24.716  0.00  0.00    -0.328 OA
ATOM     16  C   UNL d   1      29.911  17.893 -24.849  0.00  0.00     0.181 C 
ENDBRANCH  13  15
ENDBRANCH   4   5
ENDBRANCH   1   4
BRANCH   1  17
ATOM     17  C   UNL d   1      33.079  19.862 -22.896  0.00  0.00     0.105 A 
ATOM     18  C   UNL d   1      32.844  19.968 -22.117  0.00  0.00     0.013 A 
ATOM     19  C   UNL d   1      32.766  20.729 -21.811  0.00  0.00     0.001 A 
ATOM     20  C   UNL d   1      32.533  20.834 -21.037  0.00  0.00     0.000 A 
ATOM     21  C   UNL d   1      32.922  21.390 -22.285  0.00  0.00     0.000 A 
ATOM     22  C   UNL d   1      32.456  21.599 -20.737  0.00  0.00     0.000 A 
ATOM     23  C   UNL d   1      32.611  22.255 -21.205  0.00  0.00     0.000 A 
ATOM     24  C   UNL d   1      32.844  22.150 -21.980  0.00  0.00     0.000 A 
ATOM     25  C   UNL d   1      33.164  21.281 -23.089  0.00  0.00     0.001 A 
ATOM     26  C   UNL d   1      33.241  20.516 -23.389  0.00  0.00     0.013 A 
ENDBRANCH   1  17
TORSDOF 4
ENDMDL
MODEL 2
REMARK VINA RESULT:      -2.3      1.255      4.635
REMARK  4 active torsions:
REMARK  status: ('A' for Active; 'I' for Inactive)
REMARK    1  A    between atoms: N_3  and  S_1 
REMARK    2  A    between atoms: C_4  and  S_1 
REMARK    3  A    between atoms: C_2  and  N_3 
REMARK    4  A    between atoms: O_18  and  C_13 
ROOT
ATOM      1  S   UNL d   1      32.402  18.016 -24.286  0.00  0.00     0.285 S 
ATOM      2  O   UNL d   1      32.995  17.616 -23.808  0.00  0.00    -0.198 OA
ATOM      3  O   UNL d   1      31.811  18.403 -24.757  0.00  0.00    -0.198 OA
ENDROOT
BRANCH   1   4
ATOM      4  N   UNL d   1      32.929  18.640 -24.426  0.00  0.00    -0.157 NA
BRANCH   4   5
ATOM      5  C   UNL d   1      33.031  19.242 -23.837  0.00  0.00     0.113 A 
ATOM      6  C   UNL d   1      33.086  20.029 -24.076  0.00  0.00     0.100 A 
ATOM      7  C   UNL d   1      33.185  20.615 -23.503  0.00  0.00     0.021 A 
ATOM      8  N   UNL d   1      33.045  20.243 -24.862  0.00  0.00    -0.242 NA
ATOM      9  C   UNL d   1      33.241  21.402 -23.729  0.00  0.00     0.003 A 
ATOM     10  C   UNL d   1      33.227  20.401 -22.703  0.00  0.00     0.026 A 
ATOM     11  C   UNL d   1      33.199  21.611 -24.524  0.00  0.00     0.021 A 
ATOM     12  C   UNL d   1      33.100  21.026 -25.097  0.00  0.00     0.099 A 
ATOM     13  C   UNL d   1      33.171  19.610 -22.474  0.00  0.00     0.096 A 
ATOM     14  C   UNL d   1      33.072  19.025 -23.047  0.00  0.00     0.046 A 
BRANCH  13  15
ATOM     15  O   UNL d   1      33.210  19.371 -21.679  0.00  0.00    -0.328 OA
ATOM     16  C   UNL d   1      33.121  19.931 -21.069  0.00  0.00     0.181 C 
ENDBRANCH  13  15
ENDBRANCH   4   5
ENDBRANCH   1   4
BRANCH   1  17
ATOM     17  C   UNL d   1      31.853  17.378 -24.148  0.00  0.00     0.105 A 
ATOM     18  C   UNL d   1      31.049  17.531 -24.088  0.00  0.00     0.013 A 
ATOM     19  C   UNL d   1      30.523  16.910 -23.955  0.00  0.00     0.001 A 
ATOM     20  C   UNL d   1      29.723  17.061 -23.896  0.00  0.00     0.000 A 
ATOM     21  C   UNL d   1      30.800  16.134 -23.880  0.00  0.00     0.000 A 
ATOM     22  C   UNL d   1      29.201  16.436 -23.762  0.00  0.00     0.000 A 
ATOM     23  C   UNL d   1      29.474  15.666 -23.687  0.00  0.00     0.000 A 
ATOM     24  C   UNL d   1      30.274  15.514 -23.746  0.00  0.00     0.000 A 
ATOM     25  C   UNL d   1      31.629  15.977 -23.941  0.00  0.00     0.001 A 
ATOM     26  C   UNL d   1      32.151  16.602 -24.075  0.00  0.00     0.013 A 
ENDBRANCH   1  17
TORSDOF 4
ENDMDL
MODEL 3
REMARK VINA RESULT:      -1.5      1.200      4.724
REMARK  4 active torsions:
REMARK  status: ('A' for Active; 'I' for Inactive)
REMARK    1  A    between atoms: N_3  and  S_1 
REMARK    2  A    between atoms: C_4  and  S_1 
REMARK    3  A    between atoms: C_2  and  N_3 
REMARK    4  A    between atoms: O_18  and  C_13 
ROOT
ATOM      1  S   UNL d   1      32.632  19.031 -24.517  0.00  0.00     0.285 S 
ATOM      2  O   UNL d   1      33.231  18.686 -24.006  0.00  0.00    -0.198 OA
ATOM      3  O   UNL d   1      32.035  19.364 -25.021  0.00  0.00    -0.198 OA
ENDROOT
BRANCH   1   4
ATOM      4  N   UNL d   1      33.090  19.717 -24.599  0.00  0.00    -0.157 NA
BRANCH   4   5
ATOM      5  C   UNL d   1      33.134  20.271 -23.957  0.00  0.00     0.113 A 
ATOM      6  C   UNL d   1      33.164  21.077 -24.127  0.00  0.00     0.100 A 
ATOM      7  C   UNL d   1      33.207  21.615 -23.504  0.00  0.00     0.021 A 
ATOM      8  N   UNL d   1      33.153  21.355 -24.895  0.00  0.00    -0.242 NA
ATOM      9  C   UNL d   1      33.237  22.421 -23.660  0.00  0.00     0.003 A 
ATOM     10  C   UNL d   1      33.218  21.337 -22.723  0.00  0.00     0.026 A 
ATOM     11  C   UNL d   1      33.225  22.695 -24.437  0.00  0.00     0.021 A 
ATOM     12  C   UNL d   1      33.183  22.156 -25.061  0.00  0.00     0.099 A 
ATOM     13  C   UNL d   1      33.188  20.528 -22.563  0.00  0.00     0.096 A 
ATOM     14  C   UNL d   1      33.145  19.989 -23.187  0.00  0.00     0.046 A 
BRANCH  13  15
ATOM     15  O   UNL d   1      33.198  20.223 -21.789  0.00  0.00    -0.328 OA
ATOM     16  C   UNL d   1      32.686  20.535 -21.211  0.00  0.00     0.181 C 
ENDBRANCH  13  15
ENDBRANCH   4   5
ENDBRANCH   1   4
BRANCH   1  17
ATOM     17  C   UNL d   1      32.153  18.330 -24.438  0.00  0.00     0.105 A 
ATOM     18  C   UNL d   1      32.445  17.671 -24.044  0.00  0.00     0.013 A 
ATOM     19  C   UNL d   1      31.977  16.997 -23.972  0.00  0.00     0.001 A 
ATOM     20  C   UNL d   1      32.267  16.342 -23.580  0.00  0.00     0.000 A 
ATOM     21  C   UNL d   1      31.215  16.978 -24.294  0.00  0.00     0.000 A 
ATOM     22  C   UNL d   1      31.794  15.669 -23.511  0.00  0.00     0.000 A 
ATOM     23  C   UNL d   1      31.038  15.649 -23.830  0.00  0.00     0.000 A 
ATOM     24  C   UNL d   1      30.748  16.304 -24.221  0.00  0.00     0.000 A 
ATOM     25  C   UNL d   1      30.914  17.657 -24.700  0.00  0.00     0.001 A 
ATOM     26  C   UNL d   1      31.387  18.329 -24.769  0.00  0.00     0.013 A 
ENDBRANCH   1  17
TORSDOF 4
ENDMDL
