MODEL 1
REMARK VINA RESULT:      11.8      0.000      0.000
REMARK  4 active torsions:
REMARK  status: ('A' for Active; 'I' for Inactive)
REMARK    1  A    between atoms: N_2  and  C_1 
REMARK    2  A    between atoms: N_3  and  C_1 
REMARK       I    between atoms: C_4  and  N_2 
REMARK    3  A    between atoms: C_5  and  N_3 
REMARK    4  A    between atoms: C_9  and  C_4 
ROOT
ATOM      1  C   UNL d   1      13.517  12.401  -3.071  0.00  0.00     0.276 C 
ATOM      2  S   UNL d   1      13.312  11.779  -3.573  0.00  0.00    -0.023 SA
ENDROOT
BRANCH   1   3
ATOM      3  N   UNL d   1      13.438  13.178  -3.334  0.00  0.00    -0.168 NA
ATOM      4  C   UNL d   1      13.098  13.342  -4.070  0.00  0.00     0.282 C 
ATOM      5  O   UNL d   1      12.837  12.717  -4.542  0.00  0.00    -0.265 OA
BRANCH   4   6
ATOM      6  C   UNL d   1      13.021  14.122  -4.330  0.00  0.00     0.058 C 
ATOM      7  C   UNL d   1      13.188  14.307  -5.104  0.00  0.00     0.005 C 
ATOM      8  C   UNL d   1      12.774  14.705  -3.802  0.00  0.00     0.005 C 
ENDBRANCH   4   6
ENDBRANCH   1   3
BRANCH   1   9
ATOM      9  N   UNL d   1      13.799  12.249  -2.308  0.00  0.00    -0.353 NA
BRANCH   9  10
ATOM     10  C   UNL d   1      14.079  12.099  -1.550  0.00  0.00     0.216 A 
ATOM     11  N   UNL d   1      14.894  12.113  -1.405  0.00  0.00    -0.215 NA
ATOM     12  C   UNL d   1      15.172  11.962  -0.644  0.00  0.00     0.102 A 
ATOM     13  C   UNL d   1      14.640  11.798  -0.035  0.00  0.00     0.021 A 
ATOM     14  C   UNL d   1      13.837  11.785  -0.180  0.00  0.00     0.006 A 
ATOM     15  C   UNL d   1      13.544  11.934  -0.938  0.00  0.00     0.052 A 
ENDBRANCH   9  10
ENDBRANCH   1   9
TORSDOF 4
ENDMDL
MODEL 2
REMARK VINA RESULT:      14.7      2.381      3.140
REMARK  4 active torsions:
REMARK  status: ('A' for Active; 'I' for Inactive)
REMARK    1  A    between atoms: N_2  and  C_1 
REMARK    2  A    between atoms: N_3  and  C_1 
REMARK       I    between atoms: C_4  and  N_2 
REMARK    3  A    between atoms: C_5  and  N_3 
REMARK    4  A    between atoms: C_9  and  C_4 
ROOT
ATOM      1  C   UNL d   1      14.492  12.456  -0.571  0.00  0.00     0.276 C 
ATOM      2  S   UNL d   1      14.767  11.826  -0.113  0.00  0.00    -0.023 SA
ENDROOT
BRANCH   1   3
ATOM      3  N   UNL d   1      13.945  12.313  -1.170  0.00  0.00    -0.168 NA
ATOM      4  C   UNL d   1      14.186  11.994  -1.894  0.00  0.00     0.282 C 
ATOM      5  O   UNL d   1      14.984  11.817  -2.012  0.00  0.00    -0.265 OA
BRANCH   4   6
ATOM      6  C   UNL d   1      13.635  11.852  -2.494  0.00  0.00     0.058 C 
ATOM      7  C   UNL d   1      13.887  11.786  -3.264  0.00  0.00     0.005 C 
ATOM      8  C   UNL d   1      12.837  11.780  -2.304  0.00  0.00     0.005 C 
ENDBRANCH   4   6
ENDBRANCH   1   3
BRANCH   1   9
ATOM      9  N   UNL d   1      14.761  13.225  -0.431  0.00  0.00    -0.353 NA
BRANCH   9  10
ATOM     10  C   UNL d   1      15.030  13.990  -0.292  0.00  0.00     0.216 A 
ATOM     11  N   UNL d   1      14.492  14.619  -0.291  0.00  0.00    -0.215 NA
ATOM     12  C   UNL d   1      14.764  15.384  -0.152  0.00  0.00     0.102 A 
ATOM     13  C   UNL d   1      15.567  15.518  -0.014  0.00  0.00     0.021 A 
ATOM     14  C   UNL d   1      16.096  14.896  -0.015  0.00  0.00     0.006 A 
ATOM     15  C   UNL d   1      15.838  14.125  -0.154  0.00  0.00     0.052 A 
ENDBRANCH   9  10
ENDBRANCH   1   9
TORSDOF 4
ENDMDL
