MODEL 1
REMARK VINA RESULT:      74.3      0.000      0.000
REMARK  3 active torsions:
REMARK  status: ('A' for Active; 'I' for Inactive)
REMARK    1  A    between atoms: N_11  and  C_1 
REMARK    2  A    between atoms: N_5  and  C_4 
REMARK    3  A    between atoms: C_7  and  C_10 
REMARK       I    between atoms: C_10  and  N_12 
ROOT
ATOM      1  C   UNL d   1     -47.340  30.013  35.580  0.00  0.00     0.288 C 
ATOM      2  N   UNL d   1     -48.853  28.291  34.632  0.00  0.00    -0.281 N 
ATOM      3  N   UNL d   1     -47.850  29.437  35.260  0.00  0.00    -0.267 N 
ATOM      4  C   UNL d   1     -48.935  29.074  34.412  0.00  0.00     0.101 A 
ATOM      5  C   UNL d   1     -48.265  28.077  35.172  0.00  0.00     0.101 A 
ATOM      6  C   UNL d   1     -48.438  29.652  34.720  0.00  0.00     0.102 A 
ATOM      7  C   UNL d   1     -47.758  28.645  35.492  0.00  0.00     0.102 A 
ATOM      8  O   UNL d   1     -46.758  29.801  36.115  0.00  0.00    -0.264 OA
ENDROOT
BRANCH   2   9
ATOM      9  C   UNL d   1     -49.349  27.715  34.324  0.00  0.00     0.179 A 
ATOM     10  N   UNL d   1     -49.134  26.934  34.153  0.00  0.00    -0.222 NA
ATOM     11  C   UNL d   1     -49.791  26.542  33.855  0.00  0.00     0.089 A 
ATOM     12  C   UNL d   1     -49.903  25.778  33.598  0.00  0.00     0.018 A 
ATOM     13  C   UNL d   1     -50.417  27.081  33.838  0.00  0.00     0.050 A 
ATOM     14  C   UNL d   1     -50.635  25.536  33.322  0.00  0.00     0.002 A 
ATOM     15  C   UNL d   1     -49.276  25.241  33.615  0.00  0.00     0.002 C 
ATOM     16  C   UNL d   1     -51.261  26.073  33.306  0.00  0.00     0.001 A 
ATOM     17  C   UNL d   1     -51.145  26.848  33.567  0.00  0.00     0.007 A 
ATOM     18  C   UNL d   1     -51.770  27.382  33.550  0.00  0.00     0.001 C 
ATOM     19  S   UNL d   1     -50.153  27.799  34.124  0.00  0.00    -0.048 SA
ENDBRANCH   2   9
BRANCH   1  20
ATOM     20  C   UNL d   1     -47.434  30.801  35.349  0.00  0.00     0.158 A 
ATOM     21  O   UNL d   1     -47.554  31.074  34.573  0.00  0.00    -0.281 OA
ATOM     22  C   UNL d   1     -47.617  31.901  34.612  0.00  0.00     0.228 A 
ATOM     23  C   UNL d   1     -47.535  32.120  35.401  0.00  0.00     0.051 A 
ATOM     24  C   UNL d   1     -47.422  31.438  35.851  0.00  0.00     0.034 A 
BRANCH  22  25
ATOM     25  N   UNL d   1     -47.739  32.419  33.975  0.00  0.00    -0.089 N 
ATOM     26  O   UNL d   1     -48.499  32.760  33.859  0.00  0.00    -0.530 OA
ATOM     27  O   UNL d   1     -47.130  32.602  33.459  0.00  0.00    -0.530 OA
ENDBRANCH  22  25
ENDBRANCH   1  20
TORSDOF 3
ENDMDL
MODEL 2
REMARK VINA RESULT:      75.7      0.544      1.259
REMARK  3 active torsions:
REMARK  status: ('A' for Active; 'I' for Inactive)
REMARK    1  A    between atoms: N_11  and  C_1 
REMARK    2  A    between atoms: N_5  and  C_4 
REMARK    3  A    between atoms: C_7  and  C_10 
REMARK       I    between atoms: C_10  and  N_12 
ROOT
ATOM      1  C   UNL d   1     -47.496  30.127  35.575  0.00  0.00     0.288 C 
ATOM      2  N   UNL d   1     -48.900  28.304  34.648  0.00  0.00    -0.281 N 
ATOM      3  N   UNL d   1     -47.968  29.516  35.261  0.00  0.00    -0.267 N 
ATOM      4  C   UNL d   1     -48.763  28.979  34.208  0.00  0.00     0.101 A 
ATOM      5  C   UNL d   1     -48.569  28.232  35.402  0.00  0.00     0.101 A 
ATOM      6  C   UNL d   1     -48.299  29.588  34.506  0.00  0.00     0.102 A 
ATOM      7  C   UNL d   1     -48.100  28.835  35.717  0.00  0.00     0.102 A 
ATOM      8  O   UNL d   1     -47.168  30.055  36.322  0.00  0.00    -0.264 OA
ENDROOT
BRANCH   2   9
ATOM      9  C   UNL d   1     -49.363  27.695  34.349  0.00  0.00     0.179 A 
ATOM     10  N   UNL d   1     -50.188  27.704  34.286  0.00  0.00    -0.222 NA
ATOM     11  C   UNL d   1     -50.432  26.990  33.960  0.00  0.00     0.089 A 
ATOM     12  C   UNL d   1     -51.168  26.697  33.774  0.00  0.00     0.018 A 
ATOM     13  C   UNL d   1     -49.756  26.536  33.819  0.00  0.00     0.050 A 
ATOM     14  C   UNL d   1     -51.245  25.950  33.447  0.00  0.00     0.002 A 
ATOM     15  C   UNL d   1     -51.842  27.152  33.915  0.00  0.00     0.002 C 
ATOM     16  C   UNL d   1     -50.571  25.496  33.307  0.00  0.00     0.001 A 
ATOM     17  C   UNL d   1     -49.825  25.796  33.496  0.00  0.00     0.007 A 
ATOM     18  C   UNL d   1     -49.155  25.342  33.355  0.00  0.00     0.001 C 
ATOM     19  S   UNL d   1     -49.100  26.962  34.055  0.00  0.00    -0.048 SA
ENDBRANCH   2   9
BRANCH   1  20
ATOM     20  C   UNL d   1     -47.366  30.803  35.119  0.00  0.00     0.158 A 
ATOM     21  O   UNL d   1     -47.917  31.405  34.965  0.00  0.00    -0.281 OA
ATOM     22  C   UNL d   1     -47.538  31.967  34.485  0.00  0.00     0.228 A 
ATOM     23  C   UNL d   1     -46.769  31.704  34.354  0.00  0.00     0.051 A 
ATOM     24  C   UNL d   1     -46.668  30.987  34.748  0.00  0.00     0.034 A 
BRANCH  22  25
ATOM     25  N   UNL d   1     -47.868  32.668  34.187  0.00  0.00    -0.089 N 
ATOM     26  O   UNL d   1     -47.413  33.155  33.674  0.00  0.00    -0.530 OA
ATOM     27  O   UNL d   1     -48.630  32.892  34.387  0.00  0.00    -0.530 OA
ENDBRANCH  22  25
ENDBRANCH   1  20
TORSDOF 3
ENDMDL
