MODEL 1
REMARK VINA RESULT:      -3.0      0.000      0.000
REMARK  2 active torsions:
REMARK  status: ('A' for Active; 'I' for Inactive)
REMARK    1  A    between atoms: C_7  and  C_1 
REMARK    2  A    between atoms: C_8  and  C_7 
ROOT
ATOM      1  C   UNL d   1      29.842  16.260 -23.811  0.00  0.00     0.033 A 
ATOM      2  C   UNL d   1      31.144  16.203 -23.551  0.00  0.00     0.100 A 
ATOM      3  C   UNL d   1      30.568  16.616 -23.970  0.00  0.00     0.025 A 
ATOM      4  O   UNL d   1      30.775  15.595 -23.134  0.00  0.00    -0.305 OA
ATOM      5  C   UNL d   1      29.968  15.633 -23.298  0.00  0.00     0.123 A 
ATOM      6  C   UNL d   1      30.782  17.253 -24.436  0.00  0.00     0.002 A 
ATOM      7  C   UNL d   1      31.943  16.427 -23.595  0.00  0.00     0.025 A 
ATOM      8  C   UNL d   1      31.574  17.486 -24.488  0.00  0.00     0.000 A 
ATOM      9  C   UNL d   1      32.156  17.071 -24.066  0.00  0.00     0.002 A 
ATOM     10  C   UNL d   1      30.200  17.671 -24.859  0.00  0.00     0.000 C 
ATOM     11  C   UNL d   1      32.947  17.303 -24.118  0.00  0.00     0.000 C 
ENDROOT
BRANCH   1  12
ATOM     12  C   UNL d   1      29.116  16.498 -24.118  0.00  0.00     0.072 C 
BRANCH  12  13
ATOM     13  C   UNL d   1      28.417  16.141 -23.854  0.00  0.00     0.211 C 
ATOM     14  O   UNL d   1      27.991  16.477 -23.224  0.00  0.00    -0.644 OA
ATOM     15  O   UNL d   1      28.143  15.453 -24.217  0.00  0.00    -0.644 OA
ENDBRANCH  12  13
ENDBRANCH   1  12
TORSDOF 2
ENDMDL
MODEL 2
REMARK VINA RESULT:      -2.6      5.489      6.377
REMARK  2 active torsions:
REMARK  status: ('A' for Active; 'I' for Inactive)
REMARK    1  A    between atoms: C_7  and  C_1 
REMARK    2  A    between atoms: C_8  and  C_7 
ROOT
ATOM      1  C   UNL d   1      32.706  21.963 -21.256  0.00  0.00     0.033 A 
ATOM      2  C   UNL d   1      32.749  20.639 -21.362  0.00  0.00     0.100 A 
ATOM      3  C   UNL d   1      32.872  21.341 -21.772  0.00  0.00     0.025 A 
ATOM      4  O   UNL d   1      32.508  20.825 -20.595  0.00  0.00    -0.305 OA
ATOM      5  C   UNL d   1      32.482  21.646 -20.534  0.00  0.00     0.123 A 
ATOM      6  C   UNL d   1      33.116  21.320 -22.553  0.00  0.00     0.002 A 
ATOM      7  C   UNL d   1      32.871  19.904 -21.732  0.00  0.00     0.025 A 
ATOM      8  C   UNL d   1      33.240  20.595 -22.932  0.00  0.00     0.000 A 
ATOM      9  C   UNL d   1      33.117  19.886 -22.519  0.00  0.00     0.002 A 
ATOM     10  C   UNL d   1      33.241  22.030 -22.968  0.00  0.00     0.000 C 
ATOM     11  C   UNL d   1      33.241  19.162 -22.898  0.00  0.00     0.000 C 
ENDROOT
BRANCH   1  12
ATOM     12  C   UNL d   1      32.758  22.764 -21.442  0.00  0.00     0.072 C 
BRANCH  12  13
ATOM     13  C   UNL d   1      32.492  23.332 -20.901  0.00  0.00     0.211 C 
ATOM     14  O   UNL d   1      33.010  23.629 -20.323  0.00  0.00    -0.644 OA
ATOM     15  O   UNL d   1      31.714  23.603 -20.938  0.00  0.00    -0.644 OA
ENDBRANCH  12  13
ENDBRANCH   1  12
TORSDOF 2
ENDMDL
MODEL 3
REMARK VINA RESULT:      -2.3      1.792      3.178
REMARK  2 active torsions:
REMARK  status: ('A' for Active; 'I' for Inactive)
REMARK    1  A    between atoms: C_7  and  C_1 
REMARK    2  A    between atoms: C_8  and  C_7 
ROOT
ATOM      1  C   UNL d   1      31.713  16.640 -24.214  0.00  0.00     0.033 A 
ATOM      2  C   UNL d   1      30.885  17.472 -24.837  0.00  0.00     0.100 A 
ATOM      3  C   UNL d   1      30.918  16.823 -24.332  0.00  0.00     0.025 A 
ATOM      4  O   UNL d   1      31.656  17.689 -25.031  0.00  0.00    -0.305 OA
ATOM      5  C   UNL d   1      32.167  17.172 -24.643  0.00  0.00     0.123 A 
ATOM      6  C   UNL d   1      30.226  16.491 -24.050  0.00  0.00     0.002 A 
ATOM      7  C   UNL d   1      30.154  17.795 -25.065  0.00  0.00     0.025 A 
ATOM      8  C   UNL d   1      29.493  16.803 -24.270  0.00  0.00     0.000 A 
ATOM      9  C   UNL d   1      29.457  17.457 -24.780  0.00  0.00     0.002 A 
ATOM     10  C   UNL d   1      30.259  15.835 -23.539  0.00  0.00     0.000 C 
ATOM     11  C   UNL d   1      28.724  17.769 -24.999  0.00  0.00     0.000 C 
ENDROOT
BRANCH   1  12
ATOM     12  C   UNL d   1      31.998  16.026 -23.744  0.00  0.00     0.072 C 
BRANCH  12  13
ATOM     13  C   UNL d   1      32.813  15.928 -23.639  0.00  0.00     0.211 C 
ATOM     14  O   UNL d   1      33.200  16.308 -23.010  0.00  0.00    -0.644 OA
ATOM     15  O   UNL d   1      33.241  15.453 -24.160  0.00  0.00    -0.644 OA
ENDBRANCH  12  13
ENDBRANCH   1  12
TORSDOF 2
ENDMDL
MODEL 4
REMARK VINA RESULT:      -2.1      1.307      2.162
REMARK  2 active torsions:
REMARK  status: ('A' for Active; 'I' for Inactive)
REMARK    1  A    between atoms: C_7  and  C_1 
REMARK    2  A    between atoms: C_8  and  C_7 
ROOT
ATOM      1  C   UNL d   1      30.972  17.060 -24.110  0.00  0.00     0.033 A 
ATOM      2  C   UNL d   1      31.451  18.215 -24.560  0.00  0.00     0.100 A 
ATOM      3  C   UNL d   1      31.610  17.581 -24.061  0.00  0.00     0.025 A 
ATOM      4  O   UNL d   1      30.717  18.087 -24.916  0.00  0.00    -0.305 OA
ATOM      5  C   UNL d   1      30.425  17.371 -24.634  0.00  0.00     0.123 A 
ATOM      6  C   UNL d   1      32.308  17.564 -23.634  0.00  0.00     0.002 A 
ATOM      7  C   UNL d   1      31.992  18.842 -24.637  0.00  0.00     0.025 A 
ATOM      8  C   UNL d   1      32.854  18.181 -23.702  0.00  0.00     0.000 A 
ATOM      9  C   UNL d   1      32.695  18.821 -24.205  0.00  0.00     0.002 A 
ATOM     10  C   UNL d   1      32.469  16.923 -23.130  0.00  0.00     0.000 C 
ATOM     11  C   UNL d   1      33.240  19.438 -24.272  0.00  0.00     0.000 C 
ENDROOT
BRANCH   1  12
ATOM     12  C   UNL d   1      30.904  16.350 -23.698  0.00  0.00     0.072 C 
BRANCH  12  13
ATOM     13  C   UNL d   1      30.203  15.912 -23.742  0.00  0.00     0.211 C 
ATOM     14  O   UNL d   1      30.041  15.453 -24.415  0.00  0.00    -0.644 OA
ATOM     15  O   UNL d   1      29.665  15.931 -23.117  0.00  0.00    -0.644 OA
ENDBRANCH  12  13
ENDBRANCH   1  12
TORSDOF 2
ENDMDL
MODEL 5
REMARK VINA RESULT:      -1.7      4.398      5.438
REMARK  2 active torsions:
REMARK  status: ('A' for Active; 'I' for Inactive)
REMARK    1  A    between atoms: C_7  and  C_1 
REMARK    2  A    between atoms: C_8  and  C_7 
ROOT
ATOM      1  C   UNL d   1      33.103  20.762 -22.077  0.00  0.00     0.033 A 
ATOM      2  C   UNL d   1      33.153  20.437 -23.365  0.00  0.00     0.100 A 
ATOM      3  C   UNL d   1      33.136  20.127 -22.603  0.00  0.00     0.025 A 
ATOM      4  O   UNL d   1      33.130  21.260 -23.311  0.00  0.00    -0.305 OA
ATOM      5  C   UNL d   1      33.099  21.457 -22.512  0.00  0.00     0.123 A 
ATOM      6  C   UNL d   1      33.154  19.317 -22.492  0.00  0.00     0.002 A 
ATOM      7  C   UNL d   1      33.187  19.935 -24.027  0.00  0.00     0.025 A 
ATOM      8  C   UNL d   1      33.188  18.807 -23.143  0.00  0.00     0.000 A 
ATOM      9  C   UNL d   1      33.204  19.118 -23.912  0.00  0.00     0.002 A 
ATOM     10  C   UNL d   1      33.137  19.003 -21.722  0.00  0.00     0.000 C 
ATOM     11  C   UNL d   1      33.238  18.609 -24.561  0.00  0.00     0.000 C 
ENDROOT
BRANCH   1  12
ATOM     12  C   UNL d   1      33.078  20.700 -21.256  0.00  0.00     0.072 C 
BRANCH  12  13
ATOM     13  C   UNL d   1      32.751  21.312 -20.805  0.00  0.00     0.211 C 
ATOM     14  O   UNL d   1      31.931  21.341 -20.676  0.00  0.00    -0.644 OA
ATOM     15  O   UNL d   1      33.240  21.894 -20.484  0.00  0.00    -0.644 OA
ENDBRANCH  12  13
ENDBRANCH   1  12
TORSDOF 2
ENDMDL
MODEL 6
REMARK VINA RESULT:      -1.5      2.686      3.832
REMARK  2 active torsions:
REMARK  status: ('A' for Active; 'I' for Inactive)
REMARK    1  A    between atoms: C_7  and  C_1 
REMARK    2  A    between atoms: C_8  and  C_7 
ROOT
ATOM      1  C   UNL d   1      32.821  17.929 -24.200  0.00  0.00     0.033 A 
ATOM      2  C   UNL d   1      32.848  19.255 -24.112  0.00  0.00     0.100 A 
ATOM      3  C   UNL d   1      32.931  18.559 -23.680  0.00  0.00     0.025 A 
ATOM      4  O   UNL d   1      32.688  19.055 -24.896  0.00  0.00    -0.305 OA
ATOM      5  C   UNL d   1      32.672  18.233 -24.946  0.00  0.00     0.123 A 
ATOM      6  C   UNL d   1      33.094  18.594 -22.879  0.00  0.00     0.002 A 
ATOM      7  C   UNL d   1      32.928  19.995 -23.743  0.00  0.00     0.025 A 
ATOM      8  C   UNL d   1      33.176  19.325 -22.501  0.00  0.00     0.000 A 
ATOM      9  C   UNL d   1      33.093  20.027 -22.935  0.00  0.00     0.002 A 
ATOM     10  C   UNL d   1      33.177  17.891 -22.442  0.00  0.00     0.000 C 
ATOM     11  C   UNL d   1      33.174  20.757 -22.557  0.00  0.00     0.000 C 
ENDROOT
BRANCH   1  12
ATOM     12  C   UNL d   1      32.856  17.131 -23.997  0.00  0.00     0.072 C 
BRANCH  12  13
ATOM     13  C   UNL d   1      32.666  16.552 -24.558  0.00  0.00     0.211 C 
ATOM     14  O   UNL d   1      31.897  16.239 -24.588  0.00  0.00    -0.644 OA
ATOM     15  O   UNL d   1      33.240  16.287 -25.088  0.00  0.00    -0.644 OA
ENDBRANCH  12  13
ENDBRANCH   1  12
TORSDOF 2
ENDMDL
MODEL 7
REMARK VINA RESULT:      -1.5      6.493      7.364
REMARK  2 active torsions:
REMARK  status: ('A' for Active; 'I' for Inactive)
REMARK    1  A    between atoms: C_7  and  C_1 
REMARK    2  A    between atoms: C_8  and  C_7 
ROOT
ATOM      1  C   UNL d   1      32.503  22.911 -20.855  0.00  0.00     0.033 A 
ATOM      2  C   UNL d   1      32.712  22.848 -22.166  0.00  0.00     0.100 A 
ATOM      3  C   UNL d   1      32.698  22.403 -21.474  0.00  0.00     0.025 A 
ATOM      4  O   UNL d   1      32.526  23.628 -21.976  0.00  0.00    -0.305 OA
ATOM      5  C   UNL d   1      32.397  23.664 -21.163  0.00  0.00     0.123 A 
ATOM      6  C   UNL d   1      32.864  21.602 -21.501  0.00  0.00     0.002 A 
ATOM      7  C   UNL d   1      32.893  22.492 -22.895  0.00  0.00     0.025 A 
ATOM      8  C   UNL d   1      33.045  21.237 -22.221  0.00  0.00     0.000 A 
ATOM      9  C   UNL d   1      33.060  21.684 -22.920  0.00  0.00     0.002 A 
ATOM     10  C   UNL d   1      32.850  21.152 -20.802  0.00  0.00     0.000 C 
ATOM     11  C   UNL d   1      33.241  21.320 -23.638  0.00  0.00     0.000 C 
ENDROOT
BRANCH   1  12
ATOM     12  C   UNL d   1      32.428  22.694 -20.064  0.00  0.00     0.072 C 
BRANCH  12  13
ATOM     13  C   UNL d   1      32.471  23.269 -19.470  0.00  0.00     0.211 C 
ATOM     14  O   UNL d   1      31.788  23.684 -19.243  0.00  0.00    -0.644 OA
ATOM     15  O   UNL d   1      33.193  23.431 -19.105  0.00  0.00    -0.644 OA
ENDBRANCH  12  13
ENDBRANCH   1  12
TORSDOF 2
ENDMDL
MODEL 8
REMARK VINA RESULT:      -0.9      4.647      5.833
REMARK  2 active torsions:
REMARK  status: ('A' for Active; 'I' for Inactive)
REMARK    1  A    between atoms: C_7  and  C_1 
REMARK    2  A    between atoms: C_8  and  C_7 
ROOT
ATOM      1  C   UNL d   1      33.240  20.459 -22.865  0.00  0.00     0.033 A 
ATOM      2  C   UNL d   1      33.237  21.734 -22.491  0.00  0.00     0.100 A 
ATOM      3  C   UNL d   1      33.237  20.961 -22.211  0.00  0.00     0.025 A 
ATOM      4  O   UNL d   1      33.239  21.710 -23.316  0.00  0.00    -0.305 OA
ATOM      5  C   UNL d   1      33.241  20.919 -23.543  0.00  0.00     0.123 A 
ATOM      6  C   UNL d   1      33.235  20.820 -21.405  0.00  0.00     0.002 A 
ATOM      7  C   UNL d   1      33.235  22.377 -21.964  0.00  0.00     0.025 A 
ATOM      8  C   UNL d   1      33.233  21.451 -20.871  0.00  0.00     0.000 A 
ATOM      9  C   UNL d   1      33.233  22.232 -21.152  0.00  0.00     0.002 A 
ATOM     10  C   UNL d   1      33.236  20.038 -21.121  0.00  0.00     0.000 C 
ATOM     11  C   UNL d   1      33.230  22.862 -20.618  0.00  0.00     0.000 C 
ENDROOT
BRANCH   1  12
ATOM     12  C   UNL d   1      33.241  19.635 -22.835  0.00  0.00     0.072 C 
BRANCH  12  13
ATOM     13  C   UNL d   1      32.993  19.197 -23.492  0.00  0.00     0.211 C 
ATOM     14  O   UNL d   1      33.241  19.416 -24.254  0.00  0.00    -0.644 OA
ATOM     15  O   UNL d   1      32.502  18.542 -23.389  0.00  0.00    -0.644 OA
ENDBRANCH  12  13
ENDBRANCH   1  12
TORSDOF 2
ENDMDL
MODEL 9
REMARK VINA RESULT:      -0.0      3.971      5.297
REMARK  2 active torsions:
REMARK  status: ('A' for Active; 'I' for Inactive)
REMARK    1  A    between atoms: C_7  and  C_1 
REMARK    2  A    between atoms: C_8  and  C_7 
ROOT
ATOM      1  C   UNL d   1      33.233  20.653 -23.796  0.00  0.00     0.033 A 
ATOM      2  C   UNL d   1      33.235  19.363 -24.118  0.00  0.00     0.100 A 
ATOM      3  C   UNL d   1      33.235  19.889 -23.485  0.00  0.00     0.025 A 
ATOM      4  O   UNL d   1      33.232  19.800 -24.818  0.00  0.00    -0.305 OA
ATOM      5  C   UNL d   1      33.231  20.598 -24.614  0.00  0.00     0.123 A 
ATOM      6  C   UNL d   1      33.237  19.604 -22.718  0.00  0.00     0.002 A 
ATOM      7  C   UNL d   1      33.237  18.542 -23.987  0.00  0.00     0.025 A 
ATOM      8  C   UNL d   1      33.239  18.790 -22.576  0.00  0.00     0.000 A 
ATOM      9  C   UNL d   1      33.239  18.258 -23.212  0.00  0.00     0.002 A 
ATOM     10  C   UNL d   1      33.237  20.136 -22.078  0.00  0.00     0.000 C 
ATOM     11  C   UNL d   1      33.241  17.444 -23.070  0.00  0.00     0.000 C 
ENDROOT
BRANCH   1  12
ATOM     12  C   UNL d   1      33.232  21.349 -23.355  0.00  0.00     0.072 C 
BRANCH  12  13
ATOM     13  C   UNL d   1      33.144  22.080 -23.733  0.00  0.00     0.211 C 
ATOM     14  O   UNL d   1      32.967  22.108 -24.545  0.00  0.00    -0.644 OA
ATOM     15  O   UNL d   1      33.231  22.779 -23.305  0.00  0.00    -0.644 OA
ENDBRANCH  12  13
ENDBRANCH   1  12
TORSDOF 2
ENDMDL
