MODEL 1
REMARK VINA RESULT:      -4.1      0.000      0.000
REMARK  4 active torsions:
REMARK  status: ('A' for Active; 'I' for Inactive)
REMARK    1  A    between atoms: C_7  and  C_1 
REMARK    2  A    between atoms: N_5  and  C_2 
REMARK    3  A    between atoms: C_12  and  N_5 
REMARK    4  A    between atoms: O_21  and  C_14 
ROOT
ATOM      1  C   UNL d   1      58.808   0.016  29.687  0.00  0.00     0.101 A 
ATOM      2  C   UNL d   1      58.599  -0.770  29.489  0.00  0.00     0.187 A 
ATOM      3  C   UNL d   1      58.475   0.364  30.356  0.00  0.00     0.010 A 
ATOM      4  O   UNL d   1      58.063  -1.182  29.966  0.00  0.00    -0.289 OA
ATOM      5  C   UNL d   1      57.733  -0.828  30.634  0.00  0.00     0.104 A 
ATOM      6  C   UNL d   1      57.942  -0.043  30.832  0.00  0.00     0.023 A 
ATOM      7  C   UNL d   1      57.196  -1.241  31.111  0.00  0.00     0.049 A 
ATOM      8  C   UNL d   1      57.608   0.306  31.501  0.00  0.00     0.004 A 
ATOM      9  C   UNL d   1      56.864  -0.887  31.781  0.00  0.00     0.096 A 
ATOM     10  C   UNL d   1      57.073  -0.101  31.979  0.00  0.00     0.024 A 
ENDROOT
BRANCH   2  11
ATOM     11  N   UNL d   1      58.928  -1.124  28.823  0.00  0.00    -0.222 NA
BRANCH  11  12
ATOM     12  C   UNL d   1      59.062  -1.951  28.816  0.00  0.00     0.084 A 
ATOM     13  C   UNL d   1      58.505  -2.454  28.477  0.00  0.00     0.019 A 
ATOM     14  C   UNL d   1      58.638  -3.271  28.469  0.00  0.00     0.002 A 
ATOM     15  C   UNL d   1      59.324  -3.566  28.802  0.00  0.00     0.000 A 
ATOM     16  C   UNL d   1      59.880  -3.076  29.140  0.00  0.00     0.002 A 
ATOM     17  C   UNL d   1      59.471  -4.378  28.803  0.00  0.00     0.000 C 
ATOM     18  C   UNL d   1      59.747  -2.259  29.147  0.00  0.00     0.019 A 
ENDBRANCH  11  12
ENDBRANCH   2  11
BRANCH   1  19
ATOM     19  C   UNL d   1      59.344   0.439  29.218  0.00  0.00     0.300 C 
ATOM     20  O   UNL d   1      60.094   0.613  29.498  0.00  0.00    -0.264 OA
ATOM     21  N   UNL d   1      59.110   0.682  28.464  0.00  0.00    -0.102 N 
ENDBRANCH   1  19
BRANCH   9  22
ATOM     22  O   UNL d   1      56.336  -1.290  32.252  0.00  0.00    -0.328 OA
ATOM     23  C   UNL d   1      55.827  -0.866  32.743  0.00  0.00     0.181 C 
ENDBRANCH   9  22
TORSDOF 4
ENDMDL
MODEL 2
REMARK VINA RESULT:      -3.3      1.316      3.743
REMARK  4 active torsions:
REMARK  status: ('A' for Active; 'I' for Inactive)
REMARK    1  A    between atoms: C_7  and  C_1 
REMARK    2  A    between atoms: N_5  and  C_2 
REMARK    3  A    between atoms: C_12  and  N_5 
REMARK    4  A    between atoms: O_21  and  C_14 
ROOT
ATOM      1  C   UNL d   1      60.249  -0.390  29.151  0.00  0.00     0.101 A 
ATOM      2  C   UNL d   1      59.452  -0.297  29.391  0.00  0.00     0.187 A 
ATOM      3  C   UNL d   1      60.500  -1.121  28.864  0.00  0.00     0.010 A 
ATOM      4  O   UNL d   1      58.932  -0.939  29.336  0.00  0.00    -0.289 OA
ATOM      5  C   UNL d   1      59.190  -1.668  29.048  0.00  0.00     0.104 A 
ATOM      6  C   UNL d   1      59.986  -1.760  28.808  0.00  0.00     0.023 A 
ATOM      7  C   UNL d   1      58.670  -2.309  28.993  0.00  0.00     0.049 A 
ATOM      8  C   UNL d   1      60.237  -2.492  28.521  0.00  0.00     0.004 A 
ATOM      9  C   UNL d   1      58.926  -3.041  28.705  0.00  0.00     0.096 A 
ATOM     10  C   UNL d   1      59.723  -3.134  28.465  0.00  0.00     0.024 A 
ENDROOT
BRANCH   2  11
ATOM     11  N   UNL d   1      59.194   0.429  29.678  0.00  0.00    -0.222 NA
BRANCH  11  12
ATOM     12  C   UNL d   1      58.563   0.458  30.227  0.00  0.00     0.084 A 
ATOM     13  C   UNL d   1      57.805   0.653  29.971  0.00  0.00     0.019 A 
ATOM     14  C   UNL d   1      57.180   0.682  30.514  0.00  0.00     0.002 A 
ATOM     15  C   UNL d   1      57.329   0.515  31.300  0.00  0.00     0.000 A 
ATOM     16  C   UNL d   1      58.075   0.321  31.563  0.00  0.00     0.002 A 
ATOM     17  C   UNL d   1      56.718   0.539  31.855  0.00  0.00     0.000 C 
ATOM     18  C   UNL d   1      58.700   0.292  31.020  0.00  0.00     0.019 A 
ENDBRANCH  11  12
ENDBRANCH   2  11
BRANCH   1  19
ATOM     19  C   UNL d   1      60.779   0.245  29.201  0.00  0.00     0.300 C 
ATOM     20  O   UNL d   1      61.133   0.435  29.914  0.00  0.00    -0.264 OA
ATOM     21  N   UNL d   1      60.945   0.682  28.520  0.00  0.00    -0.102 N 
ENDBRANCH   1  19
BRANCH   9  22
ATOM     22  O   UNL d   1      58.417  -3.674  28.650  0.00  0.00    -0.328 OA
ATOM     23  C   UNL d   1      58.722  -4.427  28.505  0.00  0.00     0.181 C 
ENDBRANCH   9  22
TORSDOF 4
ENDMDL
