MODEL 1
REMARK VINA RESULT:      37.5      0.000      0.000
REMARK  0 active torsions:
REMARK  status: ('A' for Active; 'I' for Inactive)
ROOT
ATOM      1  C   UNL d   1     -51.629  25.422  33.308  0.00  0.00     0.191 A 
ATOM      2  S   UNL d   1     -51.845  23.993  33.309  0.00  0.00     0.289 S 
ATOM      3  N   UNL d   1     -52.143  24.773  33.309  0.00  0.00    -0.134 NA
ATOM      4  N   UNL d   1     -50.814  25.285  33.307  0.00  0.00    -0.284 N 
ATOM      5  S   UNL d   1     -51.747  26.223  33.308  0.00  0.00    -0.048 SA
ATOM      6  C   UNL d   1     -51.015  26.591  33.307  0.00  0.00     0.048 A 
ATOM      7  C   UNL d   1     -50.434  26.004  33.307  0.00  0.00     0.072 A 
ATOM      8  C   UNL d   1     -51.027  23.868  33.308  0.00  0.00     0.137 A 
ATOM      9  C   UNL d   1     -50.784  27.380  33.307  0.00  0.00     0.007 A 
ATOM     10  C   UNL d   1     -50.509  24.505  33.307  0.00  0.00     0.096 A 
ATOM     11  O   UNL d   1     -52.663  23.933  33.310  0.00  0.00    -0.198 OA
ATOM     12  O   UNL d   1     -51.840  23.189  33.309  0.00  0.00    -0.198 OA
ATOM     13  C   UNL d   1     -49.601  26.237  33.306  0.00  0.00     0.018 A 
ATOM     14  C   UNL d   1     -49.982  27.603  33.306  0.00  0.00     0.001 A 
ATOM     15  C   UNL d   1     -49.408  27.039  33.306  0.00  0.00     0.002 A 
ATOM     16  C   UNL d   1     -51.398  27.962  33.307  0.00  0.00     0.001 A 
ATOM     17  C   UNL d   1     -49.790  28.411  33.306  0.00  0.00     0.000 A 
ATOM     18  C   UNL d   1     -51.204  28.764  33.307  0.00  0.00     0.000 A 
ATOM     19  C   UNL d   1     -50.371  28.996  33.306  0.00  0.00     0.000 A 
ENDROOT
TORSDOF 0
ENDMDL
