MODEL 1
REMARK VINA RESULT:      -5.5      0.000      0.000
REMARK  6 active torsions:
REMARK  status: ('A' for Active; 'I' for Inactive)
REMARK    1  A    between atoms: C_3  and  C_4 
REMARK    2  A    between atoms: C_9  and  O_18 
REMARK    3  A    between atoms: O_17  and  C_10 
REMARK    4  A    between atoms: C_21  and  O_17 
REMARK    5  A    between atoms: O_18  and  C_20 
REMARK    6  A    between atoms: C_20  and  C_21 
ROOT
ATOM      1  N   UNL d   1     -42.365-121.829 -56.103  0.00  0.00    -0.191 NA
ATOM      2  C   UNL d   1     -42.128-122.032 -55.361  0.00  0.00     0.101 C 
ATOM      3  C   UNL d   1     -41.886-122.240 -54.605  0.00  0.00     0.068 A 
ATOM      4  C   UNL d   1     -41.400-122.657 -53.087  0.00  0.00     0.100 A 
ATOM      5  C   UNL d   1     -42.079-121.762 -53.966  0.00  0.00     0.012 A 
ATOM      6  C   UNL d   1     -41.448-122.930 -54.488  0.00  0.00     0.012 A 
ATOM      7  C   UNL d   1     -41.205-123.139 -53.728  0.00  0.00     0.025 A 
ATOM      8  C   UNL d   1     -41.836-121.971 -53.205  0.00  0.00     0.025 A 
ENDROOT
BRANCH   4   9
ATOM      9  O   UNL d   1     -41.156-122.866 -52.323  0.00  0.00    -0.303 OA
BRANCH   9  10
ATOM     10  C   UNL d   1     -41.681-122.795 -51.691  0.00  0.00     0.149 C 
BRANCH  10  11
ATOM     11  C   UNL d   1     -41.464-123.071 -50.944  0.00  0.00     0.149 C 
BRANCH  11  12
ATOM     12  O   UNL d   1     -42.000-123.507 -50.486  0.00  0.00    -0.303 OA
BRANCH  12  13
ATOM     13  C   UNL d   1     -42.021-123.412 -49.648  0.00  0.00     0.100 A 
ATOM     14  C   UNL d   1     -41.364-123.621 -49.194  0.00  0.00     0.025 A 
ATOM     15  C   UNL d   1     -41.384-123.528 -48.374  0.00  0.00     0.005 A 
ATOM     16  C   UNL d   1     -42.061-123.225 -48.012  0.00  0.00     0.039 A 
ATOM     17  C   UNL d   1     -42.710-123.019 -48.465  0.00  0.00     0.005 A 
ATOM     18  C   UNL d   1     -42.690-123.112 -49.284  0.00  0.00     0.025 A 
BRANCH  16  19
ATOM     19  C   UNL d   1     -42.081-123.132 -47.188  0.00  0.00     0.196 C 
ATOM     20  O   UNL d   1     -41.766-122.461 -46.844  0.00  0.00    -0.287 OA
ATOM     21  C   UNL d   1     -42.420-123.718 -46.717  0.00  0.00     0.045 C 
ENDBRANCH  16  19
ENDBRANCH  12  13
ENDBRANCH  11  12
ENDBRANCH  10  11
ENDBRANCH   9  10
ENDBRANCH   4   9
TORSDOF 6
ENDMDL
MODEL 2
REMARK VINA RESULT:      -5.3      2.286      5.891
REMARK  6 active torsions:
REMARK  status: ('A' for Active; 'I' for Inactive)
REMARK    1  A    between atoms: C_3  and  C_4 
REMARK    2  A    between atoms: C_9  and  O_18 
REMARK    3  A    between atoms: O_17  and  C_10 
REMARK    4  A    between atoms: C_21  and  O_17 
REMARK    5  A    between atoms: O_18  and  C_20 
REMARK    6  A    between atoms: C_20  and  C_21 
ROOT
ATOM      1  N   UNL d   1     -42.828-123.817 -46.777  0.00  0.00    -0.191 NA
ATOM      2  C   UNL d   1     -42.535-123.597 -47.494  0.00  0.00     0.101 C 
ATOM      3  C   UNL d   1     -42.236-123.373 -48.225  0.00  0.00     0.068 A 
ATOM      4  C   UNL d   1     -41.638-122.922 -49.691  0.00  0.00     0.100 A 
ATOM      5  C   UNL d   1     -42.744-123.274 -48.863  0.00  0.00     0.012 A 
ATOM      6  C   UNL d   1     -41.426-123.246 -48.317  0.00  0.00     0.012 A 
ATOM      7  C   UNL d   1     -41.126-123.021 -49.051  0.00  0.00     0.025 A 
ATOM      8  C   UNL d   1     -42.444-123.049 -49.598  0.00  0.00     0.025 A 
ENDROOT
BRANCH   4   9
ATOM      9  O   UNL d   1     -41.336-122.696 -50.430  0.00  0.00    -0.303 OA
BRANCH   9  10
ATOM     10  C   UNL d   1     -41.316-123.240 -51.049  0.00  0.00     0.149 C 
BRANCH  10  11
ATOM     11  C   UNL d   1     -41.154-122.983 -51.816  0.00  0.00     0.149 C 
BRANCH  11  12
ATOM     12  O   UNL d   1     -41.396-123.433 -52.469  0.00  0.00    -0.303 OA
BRANCH  12  13
ATOM     13  C   UNL d   1     -41.542-123.062 -53.213  0.00  0.00     0.100 A 
ATOM     14  C   UNL d   1     -41.716-122.255 -53.242  0.00  0.00     0.025 A 
ATOM     15  C   UNL d   1     -41.858-121.892 -53.969  0.00  0.00     0.005 A 
ATOM     16  C   UNL d   1     -41.825-122.336 -54.664  0.00  0.00     0.039 A 
ATOM     17  C   UNL d   1     -41.652-123.135 -54.631  0.00  0.00     0.005 A 
ATOM     18  C   UNL d   1     -41.510-123.498 -53.904  0.00  0.00     0.025 A 
BRANCH  16  19
ATOM     19  C   UNL d   1     -41.967-121.971 -55.395  0.00  0.00     0.196 C 
ATOM     20  O   UNL d   1     -41.402-121.482 -55.726  0.00  0.00    -0.287 OA
ATOM     21  C   UNL d   1     -42.681-122.103 -55.786  0.00  0.00     0.045 C 
ENDBRANCH  16  19
ENDBRANCH  12  13
ENDBRANCH  11  12
ENDBRANCH  10  11
ENDBRANCH   9  10
ENDBRANCH   4   9
TORSDOF 6
ENDMDL
