MODEL 1
REMARK VINA RESULT:      31.3      0.000      0.000
REMARK  5 active torsions:
REMARK  status: ('A' for Active; 'I' for Inactive)
REMARK    1  A    between atoms: C_2  and  C_1 
REMARK    2  A    between atoms: C_3  and  C_1 
REMARK    3  A    between atoms: C_4  and  C_2 
REMARK    4  A    between atoms: O_9  and  C_6 
REMARK    5  A    between atoms: O_10  and  C_7 
ROOT
ATOM      1  C   UNL d   1     -51.507  25.641  34.179  0.00  0.00     0.236 C 
ATOM      2  O   UNL d   1     -52.026  25.676  34.810  0.00  0.00    -0.283 OA
ENDROOT
BRANCH   1   3
ATOM      3  C   UNL d   1     -51.452  24.973  33.696  0.00  0.00     0.236 C 
ATOM      4  O   UNL d   1     -50.760  24.794  33.306  0.00  0.00    -0.283 OA
BRANCH   3   5
ATOM      5  C   UNL d   1     -52.119  24.471  33.608  0.00  0.00     0.065 A 
ATOM      6  C   UNL d   1     -52.061  23.674  33.688  0.00  0.00     0.097 A 
ATOM      7  C   UNL d   1     -52.730  23.188  33.598  0.00  0.00     0.024 A 
ATOM      8  C   UNL d   1     -53.452  23.539  33.426  0.00  0.00     0.002 A 
ATOM      9  C   UNL d   1     -53.513  24.340  33.345  0.00  0.00     0.000 A 
ATOM     10  C   UNL d   1     -52.841  24.822  33.436  0.00  0.00     0.005 A 
BRANCH   6  11
ATOM     11  O   UNL d   1     -51.325  23.321  33.864  0.00  0.00    -0.328 OA
ATOM     12  C   UNL d   1     -50.822  23.188  33.343  0.00  0.00     0.181 C 
ENDBRANCH   6  11
ENDBRANCH   3   5
ENDBRANCH   1   3
BRANCH   1  13
ATOM     13  C   UNL d   1     -51.022  26.291  34.015  0.00  0.00     0.065 A 
ATOM     14  C   UNL d   1     -51.322  26.927  33.588  0.00  0.00     0.097 A 
ATOM     15  C   UNL d   1     -50.832  27.570  33.429  0.00  0.00     0.024 A 
ATOM     16  C   UNL d   1     -50.059  27.579  33.692  0.00  0.00     0.002 A 
ATOM     17  C   UNL d   1     -49.761  26.960  34.109  0.00  0.00     0.000 A 
ATOM     18  C   UNL d   1     -50.231  26.301  34.283  0.00  0.00     0.005 A 
BRANCH  14  19
ATOM     19  O   UNL d   1     -52.133  26.930  33.307  0.00  0.00    -0.328 OA
ATOM     20  C   UNL d   1     -52.602  27.611  33.309  0.00  0.00     0.181 C 
ENDBRANCH  14  19
ENDBRANCH   1  13
TORSDOF 5
ENDMDL
