MODEL 1
REMARK VINA RESULT:      -7.8      0.000      0.000
REMARK  3 active torsions:
REMARK  status: ('A' for Active; 'I' for Inactive)
REMARK    1  A    between atoms: N_2  and  C_1 
REMARK    2  A    between atoms: C_5  and  C_1 
REMARK    3  A    between atoms: C_3  and  N_2 
ROOT
ATOM      1  N   UNL d   1     -47.877  14.100  22.981  0.00  0.00    -0.233 NA
ENDROOT
BRANCH   1   2
ATOM      2  C   UNL d   1     -48.625  14.007  22.669  0.00  0.00     0.153 C 
ATOM      3  S   UNL d   1     -48.765  13.456  22.067  0.00  0.00    -0.056 SA
BRANCH   2   4
ATOM      4  C   UNL d   1     -49.251  14.462  22.951  0.00  0.00     0.109 A 
ATOM      5  N   UNL d   1     -49.917  14.094  23.276  0.00  0.00    -0.242 NA
ATOM      6  C   UNL d   1     -50.542  14.550  23.558  0.00  0.00     0.099 A 
ATOM      7  C   UNL d   1     -50.504  15.373  23.518  0.00  0.00     0.021 A 
ATOM      8  C   UNL d   1     -49.842  15.749  23.196  0.00  0.00     0.003 A 
ATOM      9  C   UNL d   1     -49.213  15.293  22.911  0.00  0.00     0.021 A 
ENDBRANCH   2   4
ENDBRANCH   1   2
BRANCH   1  10
ATOM     10  C   UNL d   1     -47.389  13.436  23.090  0.00  0.00     0.082 A 
ATOM     11  C   UNL d   1     -46.580  13.504  22.946  0.00  0.00     0.018 A 
ATOM     12  C   UNL d   1     -46.093  12.840  23.055  0.00  0.00     0.002 A 
ATOM     13  C   UNL d   1     -46.256  14.218  22.697  0.00  0.00     0.002 C 
ATOM     14  C   UNL d   1     -46.416  12.126  23.303  0.00  0.00     0.000 A 
ATOM     15  C   UNL d   1     -47.232  12.074  23.444  0.00  0.00     0.002 A 
ATOM     16  C   UNL d   1     -47.715  12.730  23.336  0.00  0.00     0.019 A 
ATOM     17  C   UNL d   1     -47.564  11.358  23.694  0.00  0.00     0.000 C 
ENDBRANCH   1  10
TORSDOF 3
ENDMDL
MODEL 2
REMARK VINA RESULT:      -7.5      0.468      1.364
REMARK  3 active torsions:
REMARK  status: ('A' for Active; 'I' for Inactive)
REMARK    1  A    between atoms: N_2  and  C_1 
REMARK    2  A    between atoms: C_5  and  C_1 
REMARK    3  A    between atoms: C_3  and  N_2 
ROOT
ATOM      1  N   UNL d   1     -48.542  13.107  23.315  0.00  0.00    -0.233 NA
ENDROOT
BRANCH   1   2
ATOM      2  C   UNL d   1     -48.884  13.596  22.759  0.00  0.00     0.153 C 
ATOM      3  S   UNL d   1     -48.690  13.523  21.958  0.00  0.00    -0.056 SA
BRANCH   2   4
ATOM      4  C   UNL d   1     -49.428  14.170  22.992  0.00  0.00     0.109 A 
ATOM      5  N   UNL d   1     -50.133  13.945  23.362  0.00  0.00    -0.242 NA
ATOM      6  C   UNL d   1     -50.676  14.518  23.594  0.00  0.00     0.099 A 
ATOM      7  C   UNL d   1     -50.519  15.317  23.458  0.00  0.00     0.021 A 
ATOM      8  C   UNL d   1     -49.817  15.550  23.089  0.00  0.00     0.003 A 
ATOM      9  C   UNL d   1     -49.270  14.976  22.854  0.00  0.00     0.021 A 
ENDBRANCH   2   4
ENDBRANCH   1   2
BRANCH   1  10
ATOM     10  C   UNL d   1     -47.752  12.867  23.224  0.00  0.00     0.082 A 
ATOM     11  C   UNL d   1     -47.543  12.092  23.417  0.00  0.00     0.018 A 
ATOM     12  C   UNL d   1     -46.753  11.853  23.326  0.00  0.00     0.002 A 
ATOM     13  C   UNL d   1     -48.106  11.563  23.698  0.00  0.00     0.002 C 
ATOM     14  C   UNL d   1     -46.190  12.382  23.046  0.00  0.00     0.000 A 
ATOM     15  C   UNL d   1     -46.416  13.157  22.856  0.00  0.00     0.002 A 
ATOM     16  C   UNL d   1     -47.197  13.396  22.946  0.00  0.00     0.019 A 
ATOM     17  C   UNL d   1     -45.854  13.695  22.574  0.00  0.00     0.000 C 
ENDBRANCH   1  10
TORSDOF 3
ENDMDL
MODEL 3
REMARK VINA RESULT:      -7.2      0.846      3.525
REMARK  3 active torsions:
REMARK  status: ('A' for Active; 'I' for Inactive)
REMARK    1  A    between atoms: N_2  and  C_1 
REMARK    2  A    between atoms: C_5  and  C_1 
REMARK    3  A    between atoms: C_3  and  N_2 
ROOT
ATOM      1  N   UNL d   1     -48.248  13.937  22.955  0.00  0.00    -0.233 NA
ENDROOT
BRANCH   1   2
ATOM      2  C   UNL d   1     -48.197  13.172  22.676  0.00  0.00     0.153 C 
ATOM      3  S   UNL d   1     -48.685  12.916  22.059  0.00  0.00    -0.056 SA
BRANCH   2   4
ATOM      4  C   UNL d   1     -47.657  12.646  23.009  0.00  0.00     0.109 A 
ATOM      5  N   UNL d   1     -46.849  12.825  23.004  0.00  0.00    -0.242 NA
ATOM      6  C   UNL d   1     -46.310  12.300  23.337  0.00  0.00     0.099 A 
ATOM      7  C   UNL d   1     -46.574  11.595  23.674  0.00  0.00     0.021 A 
ATOM      8  C   UNL d   1     -47.379  11.407  23.683  0.00  0.00     0.003 A 
ATOM      9  C   UNL d   1     -47.923  11.934  23.349  0.00  0.00     0.021 A 
ENDBRANCH   2   4
ENDBRANCH   1   2
BRANCH   1  10
ATOM     10  C   UNL d   1     -48.989  14.310  23.005  0.00  0.00     0.082 A 
ATOM     11  C   UNL d   1     -49.070  15.084  22.730  0.00  0.00     0.018 A 
ATOM     12  C   UNL d   1     -49.810  15.456  22.780  0.00  0.00     0.002 A 
ATOM     13  C   UNL d   1     -48.426  15.484  22.409  0.00  0.00     0.002 C 
ATOM     14  C   UNL d   1     -50.453  15.055  23.100  0.00  0.00     0.000 A 
ATOM     15  C   UNL d   1     -50.356  14.278  23.373  0.00  0.00     0.002 A 
ATOM     16  C   UNL d   1     -49.625  13.909  23.324  0.00  0.00     0.019 A 
ATOM     17  C   UNL d   1     -51.000  13.870  23.696  0.00  0.00     0.000 C 
ENDBRANCH   1  10
TORSDOF 3
ENDMDL
MODEL 4
REMARK VINA RESULT:      -7.2      1.450      3.531
REMARK  3 active torsions:
REMARK  status: ('A' for Active; 'I' for Inactive)
REMARK    1  A    between atoms: N_2  and  C_1 
REMARK    2  A    between atoms: C_5  and  C_1 
REMARK    3  A    between atoms: C_3  and  N_2 
ROOT
ATOM      1  N   UNL d   1     -48.621  12.920  23.019  0.00  0.00    -0.233 NA
ENDROOT
BRANCH   1   2
ATOM      2  C   UNL d   1     -48.123  13.054  22.387  0.00  0.00     0.153 C 
ATOM      3  S   UNL d   1     -48.366  12.884  21.615  0.00  0.00    -0.056 SA
BRANCH   2   4
ATOM      4  C   UNL d   1     -47.369  13.362  22.514  0.00  0.00     0.109 A 
ATOM      5  N   UNL d   1     -47.281  14.128  22.814  0.00  0.00    -0.242 NA
ATOM      6  C   UNL d   1     -46.527  14.435  22.941  0.00  0.00     0.099 A 
ATOM      7  C   UNL d   1     -45.861  13.981  22.769  0.00  0.00     0.021 A 
ATOM      8  C   UNL d   1     -45.940  13.214  22.468  0.00  0.00     0.003 A 
ATOM      9  C   UNL d   1     -46.696  12.904  22.340  0.00  0.00     0.021 A 
ENDBRANCH   2   4
ENDBRANCH   1   2
BRANCH   1  10
ATOM     10  C   UNL d   1     -49.441  12.865  22.894  0.00  0.00     0.082 A 
ATOM     11  C   UNL d   1     -49.859  12.242  23.237  0.00  0.00     0.018 A 
ATOM     12  C   UNL d   1     -50.678  12.188  23.111  0.00  0.00     0.002 A 
ATOM     13  C   UNL d   1     -49.473  11.681  23.698  0.00  0.00     0.002 C 
ATOM     14  C   UNL d   1     -51.064  12.749  22.650  0.00  0.00     0.000 A 
ATOM     15  C   UNL d   1     -50.630  13.369  22.312  0.00  0.00     0.002 A 
ATOM     16  C   UNL d   1     -49.820  13.424  22.435  0.00  0.00     0.019 A 
ATOM     17  C   UNL d   1     -51.012  13.937  21.847  0.00  0.00     0.000 C 
ENDBRANCH   1  10
TORSDOF 3
ENDMDL
