MODEL 1
REMARK VINA RESULT:      -1.9      0.000      0.000
REMARK  4 active torsions:
REMARK  status: ('A' for Active; 'I' for Inactive)
REMARK    1  A    between atoms: C_10  and  C_2 
REMARK    2  A    between atoms: C_13  and  C_6 
REMARK    3  A    between atoms: O_17  and  C_10 
REMARK    4  A    between atoms: C_23  and  O_17 
ROOT
ATOM      1  C   UNL d   1      59.697  -1.904  29.154  0.00  0.00     0.081 A 
ATOM      2  C   UNL d   1      58.752  -0.972  29.694  0.00  0.00     0.106 A 
ATOM      3  C   UNL d   1      58.201  -1.584  29.800  0.00  0.00     0.208 A 
ATOM      4  C   UNL d   1      59.145  -2.517  29.260  0.00  0.00     0.108 A 
ATOM      5  C   UNL d   1      60.441  -2.069  28.831  0.00  0.00     0.281 A 
ATOM      6  C   UNL d   1      59.502  -1.130  29.370  0.00  0.00     0.015 A 
ATOM      7  O   UNL d   1      58.407  -2.357  29.580  0.00  0.00    -0.288 OA
ATOM      8  N   UNL d   1      60.636  -2.844  28.614  0.00  0.00    -0.208 NA
ATOM      9  C   UNL d   1      59.338  -3.294  29.045  0.00  0.00     0.044 A 
ATOM     10  C   UNL d   1      60.088  -3.465  28.719  0.00  0.00     0.087 A 
ATOM     11  O   UNL d   1      60.984  -1.461  28.726  0.00  0.00    -0.265 OA
ATOM     12  N   UNL d   1      57.468  -1.424  30.118  0.00  0.00    -0.121 N 
ATOM     13  C   UNL d   1      60.283  -4.227  28.504  0.00  0.00     0.021 C 
ENDROOT
BRANCH   6  14
ATOM     14  C   UNL d   1      60.048  -0.525  29.264  0.00  0.00     0.004 A 
ATOM     15  C   UNL d   1      60.044  -0.095  28.561  0.00  0.00     0.021 A 
ATOM     16  C   UNL d   1      60.590   0.511  28.455  0.00  0.00     0.099 A 
ATOM     17  N   UNL d   1      61.133   0.682  29.047  0.00  0.00    -0.242 NA
ATOM     18  C   UNL d   1      61.131   0.246  29.751  0.00  0.00     0.099 A 
ATOM     19  C   UNL d   1      60.591  -0.353  29.856  0.00  0.00     0.021 A 
ENDBRANCH   6  14
BRANCH   2  20
ATOM     20  C   UNL d   1      58.552  -0.204  29.911  0.00  0.00     0.304 C 
ATOM     21  O   UNL d   1      58.254   0.313  29.345  0.00  0.00    -0.259 OA
BRANCH  20  22
ATOM     22  O   UNL d   1      58.647   0.044  30.681  0.00  0.00    -0.271 OA
BRANCH  22  23
ATOM     23  C   UNL d   1      58.065   0.484  31.060  0.00  0.00     0.126 C 
ATOM     24  C   UNL d   1      57.992   0.445  31.881  0.00  0.00     0.029 C 
ENDBRANCH  22  23
ENDBRANCH  20  22
ENDBRANCH   2  20
TORSDOF 4
ENDMDL
MODEL 2
REMARK VINA RESULT:      -0.4      1.071      2.466
REMARK  4 active torsions:
REMARK  status: ('A' for Active; 'I' for Inactive)
REMARK    1  A    between atoms: C_10  and  C_2 
REMARK    2  A    between atoms: C_13  and  C_6 
REMARK    3  A    between atoms: O_17  and  C_10 
REMARK    4  A    between atoms: C_23  and  O_17 
ROOT
ATOM      1  C   UNL d   1      59.061  -1.985  29.118  0.00  0.00     0.081 A 
ATOM      2  C   UNL d   1      59.814  -0.766  29.141  0.00  0.00     0.106 A 
ATOM      3  C   UNL d   1      60.436  -1.136  28.735  0.00  0.00     0.208 A 
ATOM      4  C   UNL d   1      59.684  -2.355  28.711  0.00  0.00     0.108 A 
ATOM      5  C   UNL d   1      58.378  -2.413  29.306  0.00  0.00     0.281 A 
ATOM      6  C   UNL d   1      59.124  -1.189  29.334  0.00  0.00     0.015 A 
ATOM      7  O   UNL d   1      60.363  -1.934  28.523  0.00  0.00    -0.288 OA
ATOM      8  N   UNL d   1      58.315  -3.209  29.090  0.00  0.00    -0.208 NA
ATOM      9  C   UNL d   1      59.625  -3.153  28.493  0.00  0.00     0.044 A 
ATOM     10  C   UNL d   1      58.937  -3.589  28.681  0.00  0.00     0.087 A 
ATOM     11  O   UNL d   1      57.763  -2.044  29.708  0.00  0.00    -0.265 OA
ATOM     12  N   UNL d   1      61.109  -0.716  28.549  0.00  0.00    -0.121 N 
ATOM     13  C   UNL d   1      58.872  -4.373  28.469  0.00  0.00     0.021 C 
ENDROOT
BRANCH   6  14
ATOM     14  C   UNL d   1      58.507  -0.824  29.736  0.00  0.00     0.004 A 
ATOM     15  C   UNL d   1      58.365  -1.020  30.524  0.00  0.00     0.021 A 
ATOM     16  C   UNL d   1      57.748  -0.655  30.926  0.00  0.00     0.099 A 
ATOM     17  N   UNL d   1      57.280  -0.099  30.542  0.00  0.00    -0.242 NA
ATOM     18  C   UNL d   1      57.428   0.094  29.751  0.00  0.00     0.099 A 
ATOM     19  C   UNL d   1      58.039  -0.268  29.353  0.00  0.00     0.021 A 
ENDBRANCH   6  14
BRANCH   2  20
ATOM     20  C   UNL d   1      59.882   0.026  29.354  0.00  0.00     0.304 C 
ATOM     21  O   UNL d   1      59.728   0.610  28.796  0.00  0.00    -0.259 OA
BRANCH  20  22
ATOM     22  O   UNL d   1      60.101   0.232  30.112  0.00  0.00    -0.271 OA
BRANCH  22  23
ATOM     23  C   UNL d   1      60.796   0.648  30.254  0.00  0.00     0.126 C 
ATOM     24  C   UNL d   1      61.121   0.655  31.011  0.00  0.00     0.029 C 
ENDBRANCH  22  23
ENDBRANCH  20  22
ENDBRANCH   2  20
TORSDOF 4
ENDMDL
