MODEL 1
REMARK VINA RESULT:      -0.4      0.000      0.000
REMARK  4 active torsions:
REMARK  status: ('A' for Active; 'I' for Inactive)
REMARK    1  A    between atoms: C_2  and  S_1 
REMARK    2  A    between atoms: N_3  and  S_1 
REMARK    3  A    between atoms: C_18  and  N_8 
REMARK    4  A    between atoms: C_21  and  C_18 
ROOT
ATOM      1  S   UNL d   1      30.392  16.944 -24.248  0.00  0.00     0.271 S 
ATOM      2  O   UNL d   1      30.396  16.591 -24.994  0.00  0.00    -0.200 OA
ATOM      3  O   UNL d   1      30.392  17.299 -23.503  0.00  0.00    -0.200 OA
ENDROOT
BRANCH   1   4
ATOM      4  C   UNL d   1      31.107  17.321 -24.414  0.00  0.00     0.104 A 
ATOM      5  C   UNL d   1      31.106  18.037 -24.840  0.00  0.00     0.012 A 
ATOM      6  C   UNL d   1      31.817  18.420 -25.010  0.00  0.00     0.001 A 
ATOM      7  C   UNL d   1      30.390  18.365 -25.093  0.00  0.00     0.001 C 
ATOM      8  C   UNL d   1      32.527  18.089 -24.757  0.00  0.00     0.000 A 
ATOM      9  C   UNL d   1      32.530  17.377 -24.333  0.00  0.00     0.001 A 
ATOM     10  C   UNL d   1      33.240  18.469 -24.925  0.00  0.00     0.000 C 
ATOM     11  C   UNL d   1      31.816  16.997 -24.164  0.00  0.00     0.012 A 
ATOM     12  C   UNL d   1      31.822  16.287 -23.742  0.00  0.00     0.001 C 
ENDBRANCH   1   4
BRANCH   1  13
ATOM     13  N   UNL d   1      29.677  16.573 -24.070  0.00  0.00    -0.226 N 
ATOM     14  C   UNL d   1      29.045  16.624 -24.602  0.00  0.00     0.111 A 
ATOM     15  C   UNL d   1      28.330  16.253 -24.424  0.00  0.00     0.100 A 
ATOM     16  N   UNL d   1      28.244  15.834 -23.722  0.00  0.00    -0.297 N 
ATOM     17  C   UNL d   1      28.879  15.784 -23.191  0.00  0.00     0.100 A 
ATOM     18  C   UNL d   1      29.597  16.152 -23.361  0.00  0.00     0.111 A 
BRANCH  16  19
ATOM     19  C   UNL d   1      27.527  15.464 -23.548  0.00  0.00     0.126 C 
BRANCH  19  20
ATOM     20  C   UNL d   1      26.889  15.906 -23.273  0.00  0.00     0.253 C 
ATOM     21  O   UNL d   1      26.140  15.565 -23.219  0.00  0.00    -0.281 OA
ENDBRANCH  19  20
ENDBRANCH  16  19
ENDBRANCH   1  13
TORSDOF 4
ENDMDL
MODEL 2
REMARK VINA RESULT:      -0.0      3.469      4.654
REMARK  4 active torsions:
REMARK  status: ('A' for Active; 'I' for Inactive)
REMARK    1  A    between atoms: C_2  and  S_1 
REMARK    2  A    between atoms: N_3  and  S_1 
REMARK    3  A    between atoms: C_18  and  N_8 
REMARK    4  A    between atoms: C_21  and  C_18 
ROOT
ATOM      1  S   UNL d   1      32.801  19.834 -22.569  0.00  0.00     0.271 S 
ATOM      2  O   UNL d   1      33.241  19.499 -21.956  0.00  0.00    -0.200 OA
ATOM      3  O   UNL d   1      32.362  20.172 -23.180  0.00  0.00    -0.200 OA
ENDROOT
BRANCH   1   4
ATOM      4  C   UNL d   1      32.908  20.585 -22.246  0.00  0.00     0.104 A 
ATOM      5  C   UNL d   1      33.128  21.219 -22.741  0.00  0.00     0.012 A 
ATOM      6  C   UNL d   1      33.236  21.974 -22.425  0.00  0.00     0.001 A 
ATOM      7  C   UNL d   1      33.237  21.090 -23.550  0.00  0.00     0.001 C 
ATOM      8  C   UNL d   1      33.126  22.096 -21.619  0.00  0.00     0.000 A 
ATOM      9  C   UNL d   1      32.907  21.467 -21.126  0.00  0.00     0.001 A 
ATOM     10  C   UNL d   1      33.233  22.849 -21.299  0.00  0.00     0.000 C 
ATOM     11  C   UNL d   1      32.800  20.713 -21.444  0.00  0.00     0.012 A 
ATOM     12  C   UNL d   1      32.582  20.088 -20.951  0.00  0.00     0.001 C 
ENDBRANCH   1   4
BRANCH   1  13
ATOM     13  N   UNL d   1      32.688  19.087 -22.901  0.00  0.00    -0.226 N 
ATOM     14  C   UNL d   1      32.129  18.988 -23.504  0.00  0.00     0.111 A 
ATOM     15  C   UNL d   1      32.015  18.241 -23.837  0.00  0.00     0.100 A 
ATOM     16  N   UNL d   1      32.454  17.598 -23.572  0.00  0.00    -0.297 N 
ATOM     17  C   UNL d   1      33.014  17.701 -22.969  0.00  0.00     0.100 A 
ATOM     18  C   UNL d   1      33.133  18.444 -22.630  0.00  0.00     0.111 A 
BRANCH  16  19
ATOM     19  C   UNL d   1      32.337  16.853 -23.908  0.00  0.00     0.126 C 
BRANCH  19  20
ATOM     20  C   UNL d   1      31.790  16.333 -23.580  0.00  0.00     0.253 C 
ATOM     21  O   UNL d   1      31.799  15.535 -23.790  0.00  0.00    -0.281 OA
ENDBRANCH  19  20
ENDBRANCH  16  19
ENDBRANCH   1  13
TORSDOF 4
ENDMDL
MODEL 3
REMARK VINA RESULT:       0.2      3.964      5.565
REMARK  4 active torsions:
REMARK  status: ('A' for Active; 'I' for Inactive)
REMARK    1  A    between atoms: C_2  and  S_1 
REMARK    2  A    between atoms: N_3  and  S_1 
REMARK    3  A    between atoms: C_18  and  N_8 
REMARK    4  A    between atoms: C_21  and  C_18 
ROOT
ATOM      1  S   UNL d   1      32.912  19.681 -22.929  0.00  0.00     0.271 S 
ATOM      2  O   UNL d   1      32.592  19.238 -22.311  0.00  0.00    -0.200 OA
ATOM      3  O   UNL d   1      33.232  20.120 -23.550  0.00  0.00    -0.200 OA
ENDROOT
BRANCH   1   4
ATOM      4  C   UNL d   1      32.890  19.021 -23.424  0.00  0.00     0.104 A 
ATOM      5  C   UNL d   1      33.055  18.266 -23.111  0.00  0.00     0.012 A 
ATOM      6  C   UNL d   1      33.035  17.601 -23.600  0.00  0.00     0.001 A 
ATOM      7  C   UNL d   1      33.241  18.184 -22.310  0.00  0.00     0.001 C 
ATOM      8  C   UNL d   1      32.850  17.689 -24.397  0.00  0.00     0.000 A 
ATOM      9  C   UNL d   1      32.685  18.438 -24.709  0.00  0.00     0.001 A 
ATOM     10  C   UNL d   1      32.828  17.027 -24.889  0.00  0.00     0.000 C 
ATOM     11  C   UNL d   1      32.706  19.102 -24.218  0.00  0.00     0.012 A 
ATOM     12  C   UNL d   1      32.541  19.848 -24.531  0.00  0.00     0.001 C 
ENDBRANCH   1   4
BRANCH   1  13
ATOM     13  N   UNL d   1      32.940  20.348 -22.444  0.00  0.00    -0.226 N 
ATOM     14  C   UNL d   1      32.690  20.292 -21.657  0.00  0.00     0.111 A 
ATOM     15  C   UNL d   1      32.717  20.959 -21.172  0.00  0.00     0.100 A 
ATOM     16  N   UNL d   1      32.991  21.677 -21.468  0.00  0.00    -0.297 N 
ATOM     17  C   UNL d   1      33.241  21.728 -22.257  0.00  0.00     0.100 A 
ATOM     18  C   UNL d   1      33.217  21.066 -22.748  0.00  0.00     0.111 A 
BRANCH  16  19
ATOM     19  C   UNL d   1      33.017  22.341 -20.979  0.00  0.00     0.126 C 
BRANCH  19  20
ATOM     20  C   UNL d   1      32.378  22.521 -20.491  0.00  0.00     0.253 C 
ATOM     21  O   UNL d   1      32.447  23.111 -19.918  0.00  0.00    -0.281 OA
ENDBRANCH  19  20
ENDBRANCH  16  19
ENDBRANCH   1  13
TORSDOF 4
ENDMDL
MODEL 4
REMARK VINA RESULT:       1.3      6.090      7.425
REMARK  4 active torsions:
REMARK  status: ('A' for Active; 'I' for Inactive)
REMARK    1  A    between atoms: C_2  and  S_1 
REMARK    2  A    between atoms: N_3  and  S_1 
REMARK    3  A    between atoms: C_18  and  N_8 
REMARK    4  A    between atoms: C_21  and  C_18 
ROOT
ATOM      1  S   UNL d   1      32.820  22.306 -21.592  0.00  0.00     0.271 S 
ATOM      2  O   UNL d   1      32.783  21.558 -21.246  0.00  0.00    -0.200 OA
ATOM      3  O   UNL d   1      32.856  23.053 -21.940  0.00  0.00    -0.200 OA
ENDROOT
BRANCH   1   4
ATOM      4  C   UNL d   1      32.925  21.966 -22.336  0.00  0.00     0.104 A 
ATOM      5  C   UNL d   1      32.936  21.136 -22.412  0.00  0.00     0.012 A 
ATOM      6  C   UNL d   1      33.040  20.789 -23.153  0.00  0.00     0.001 A 
ATOM      7  C   UNL d   1      32.841  20.660 -21.743  0.00  0.00     0.001 C 
ATOM      8  C   UNL d   1      33.134  21.268 -23.816  0.00  0.00     0.000 A 
ATOM      9  C   UNL d   1      33.123  22.093 -23.742  0.00  0.00     0.001 A 
ATOM     10  C   UNL d   1      33.239  20.925 -24.559  0.00  0.00     0.000 C 
ATOM     11  C   UNL d   1      33.018  22.438 -22.999  0.00  0.00     0.012 A 
ATOM     12  C   UNL d   1      33.008  23.260 -22.928  0.00  0.00     0.001 C 
ENDBRANCH   1   4
BRANCH   1  13
ATOM     13  N   UNL d   1      32.715  22.658 -20.852  0.00  0.00    -0.226 N 
ATOM     14  C   UNL d   1      33.071  22.322 -20.185  0.00  0.00     0.111 A 
ATOM     15  C   UNL d   1      32.967  22.673 -19.446  0.00  0.00     0.100 A 
ATOM     16  N   UNL d   1      32.511  23.354 -19.371  0.00  0.00    -0.297 N 
ATOM     17  C   UNL d   1      32.155  23.688 -20.041  0.00  0.00     0.100 A 
ATOM     18  C   UNL d   1      32.255  23.343 -20.784  0.00  0.00     0.111 A 
BRANCH  16  19
ATOM     19  C   UNL d   1      32.409  23.702 -18.630  0.00  0.00     0.126 C 
BRANCH  19  20
ATOM     20  C   UNL d   1      32.685  23.323 -17.953  0.00  0.00     0.253 C 
ATOM     21  O   UNL d   1      32.368  23.509 -17.214  0.00  0.00    -0.281 OA
ENDBRANCH  19  20
ENDBRANCH  16  19
ENDBRANCH   1  13
TORSDOF 4
ENDMDL
MODEL 5
REMARK VINA RESULT:       2.1      3.561      5.202
REMARK  4 active torsions:
REMARK  status: ('A' for Active; 'I' for Inactive)
REMARK    1  A    between atoms: C_2  and  S_1 
REMARK    2  A    between atoms: N_3  and  S_1 
REMARK    3  A    between atoms: C_18  and  N_8 
REMARK    4  A    between atoms: C_21  and  C_18 
ROOT
ATOM      1  S   UNL d   1      32.847  18.846 -23.852  0.00  0.00     0.271 S 
ATOM      2  O   UNL d   1      32.454  18.786 -24.574  0.00  0.00    -0.200 OA
ATOM      3  O   UNL d   1      33.240  18.902 -23.128  0.00  0.00    -0.200 OA
ENDROOT
BRANCH   1   4
ATOM      4  C   UNL d   1      32.755  18.036 -23.725  0.00  0.00     0.104 A 
ATOM      5  C   UNL d   1      32.939  17.499 -24.336  0.00  0.00     0.012 A 
ATOM      6  C   UNL d   1      32.849  16.688 -24.217  0.00  0.00     0.001 A 
ATOM      7  C   UNL d   1      33.213  17.782 -25.063  0.00  0.00     0.001 C 
ATOM      8  C   UNL d   1      32.576  16.412 -23.491  0.00  0.00     0.000 A 
ATOM      9  C   UNL d   1      32.392  16.944 -22.883  0.00  0.00     0.001 A 
ATOM     10  C   UNL d   1      32.485  15.601 -23.369  0.00  0.00     0.000 C 
ATOM     11  C   UNL d   1      32.484  17.755 -23.005  0.00  0.00     0.012 A 
ATOM     12  C   UNL d   1      32.300  18.283 -22.397  0.00  0.00     0.001 C 
ENDBRANCH   1   4
BRANCH   1  13
ATOM     13  N   UNL d   1      32.946  19.657 -23.967  0.00  0.00    -0.226 N 
ATOM     14  C   UNL d   1      32.925  20.168 -23.316  0.00  0.00     0.111 A 
ATOM     15  C   UNL d   1      33.024  20.979 -23.431  0.00  0.00     0.100 A 
ATOM     16  N   UNL d   1      33.143  21.280 -24.188  0.00  0.00    -0.297 N 
ATOM     17  C   UNL d   1      33.163  20.764 -24.837  0.00  0.00     0.100 A 
ATOM     18  C   UNL d   1      33.065  19.952 -24.731  0.00  0.00     0.111 A 
BRANCH  16  19
ATOM     19  C   UNL d   1      33.241  22.092 -24.299  0.00  0.00     0.126 C 
BRANCH  19  20
ATOM     20  C   UNL d   1      32.934  22.459 -24.969  0.00  0.00     0.253 C 
ATOM     21  O   UNL d   1      32.945  23.281 -25.033  0.00  0.00    -0.281 OA
ENDBRANCH  19  20
ENDBRANCH  16  19
ENDBRANCH   1  13
TORSDOF 4
ENDMDL
