MODEL 1
REMARK VINA RESULT:      -2.5      0.000      0.000
REMARK  3 active torsions:
REMARK  status: ('A' for Active; 'I' for Inactive)
REMARK       I    between atoms: N_4  and  C_1 
REMARK    1  A    between atoms: O_11  and  C_3 
REMARK    2  A    between atoms: C_6  and  N_4 
REMARK    3  A    between atoms: O_12  and  C_7 
ROOT
ATOM      1  C   UNL d   1      32.681  22.291 -20.133  0.00  0.00     0.046 A 
ATOM      2  C   UNL d   1      32.437  22.323 -20.919  0.00  0.00     0.118 A 
ATOM      3  C   UNL d   1      32.996  22.964 -19.768  0.00  0.00     0.102 A 
ATOM      4  C   UNL d   1      32.508  23.029 -21.344  0.00  0.00     0.116 A 
ATOM      5  C   UNL d   1      32.824  23.702 -20.979  0.00  0.00     0.028 A 
ATOM      6  C   UNL d   1      33.067  23.665 -20.191  0.00  0.00     0.022 A 
ENDROOT
BRANCH   3   7
ATOM      7  N   UNL d   1      33.241  22.930 -18.979  0.00  0.00    -0.056 NA
ATOM      8  C   UNL d   1      32.804  23.295 -18.393  0.00  0.00     0.787 C 
ATOM      9  N   UNL d   1      33.045  23.262 -17.612  0.00  0.00     0.064 N 
ATOM     10  N   UNL d   1      32.111  23.700 -18.595  0.00  0.00     0.064 N 
ENDBRANCH   3   7
BRANCH   2  11
ATOM     11  O   UNL d   1      32.125  21.657 -21.281  0.00  0.00    -0.326 OA
ATOM     12  C   UNL d   1      32.406  20.912 -21.080  0.00  0.00     0.181 C 
ENDBRANCH   2  11
BRANCH   4  13
ATOM     13  O   UNL d   1      32.266  23.062 -22.124  0.00  0.00    -0.326 OA
ATOM     14  C   UNL d   1      32.543  23.663 -22.616  0.00  0.00     0.181 C 
ENDBRANCH   4  13
TORSDOF 3
ENDMDL
MODEL 2
REMARK VINA RESULT:      -2.5      6.477      7.559
REMARK  3 active torsions:
REMARK  status: ('A' for Active; 'I' for Inactive)
REMARK       I    between atoms: N_4  and  C_1 
REMARK    1  A    between atoms: O_11  and  C_3 
REMARK    2  A    between atoms: C_6  and  N_4 
REMARK    3  A    between atoms: O_12  and  C_7 
ROOT
ATOM      1  C   UNL d   1      30.610  17.465 -24.658  0.00  0.00     0.046 A 
ATOM      2  C   UNL d   1      29.986  17.042 -24.327  0.00  0.00     0.118 A 
ATOM      3  C   UNL d   1      31.392  17.261 -24.480  0.00  0.00     0.102 A 
ATOM      4  C   UNL d   1      30.142  16.412 -23.815  0.00  0.00     0.116 A 
ATOM      5  C   UNL d   1      30.924  16.208 -23.636  0.00  0.00     0.028 A 
ATOM      6  C   UNL d   1      31.546  16.634 -23.971  0.00  0.00     0.022 A 
ENDROOT
BRANCH   3   7
ATOM      7  N   UNL d   1      32.018  17.686 -24.814  0.00  0.00    -0.056 NA
ATOM      8  C   UNL d   1      32.463  18.197 -24.357  0.00  0.00     0.787 C 
ATOM      9  N   UNL d   1      33.082  18.618 -24.687  0.00  0.00     0.064 N 
ATOM     10  N   UNL d   1      32.283  18.286 -23.554  0.00  0.00     0.064 N 
ENDBRANCH   3   7
BRANCH   2  11
ATOM     11  O   UNL d   1      29.212  17.245 -24.504  0.00  0.00    -0.326 OA
ATOM     12  C   UNL d   1      29.056  17.792 -25.096  0.00  0.00     0.181 C 
ENDBRANCH   2  11
BRANCH   4  13
ATOM     13  O   UNL d   1      29.523  15.991 -23.485  0.00  0.00    -0.326 OA
ATOM     14  C   UNL d   1      29.668  15.455 -22.877  0.00  0.00     0.181 C 
ENDBRANCH   4  13
TORSDOF 3
ENDMDL
MODEL 3
REMARK VINA RESULT:      -2.4      7.199      7.718
REMARK  3 active torsions:
REMARK  status: ('A' for Active; 'I' for Inactive)
REMARK       I    between atoms: N_4  and  C_1 
REMARK    1  A    between atoms: O_11  and  C_3 
REMARK    2  A    between atoms: C_6  and  N_4 
REMARK    3  A    between atoms: O_12  and  C_7 
ROOT
ATOM      1  C   UNL d   1      30.531  16.096 -23.645  0.00  0.00     0.046 A 
ATOM      2  C   UNL d   1      29.788  16.401 -23.822  0.00  0.00     0.118 A 
ATOM      3  C   UNL d   1      31.201  16.375 -24.045  0.00  0.00     0.102 A 
ATOM      4  C   UNL d   1      29.709  16.987 -24.399  0.00  0.00     0.116 A 
ATOM      5  C   UNL d   1      30.378  17.267 -24.799  0.00  0.00     0.028 A 
ATOM      6  C   UNL d   1      31.122  16.958 -24.618  0.00  0.00     0.022 A 
ENDROOT
BRANCH   3   7
ATOM      7  N   UNL d   1      31.948  16.068 -23.866  0.00  0.00    -0.056 NA
ATOM      8  C   UNL d   1      32.500  16.522 -23.470  0.00  0.00     0.787 C 
ATOM      9  N   UNL d   1      33.238  16.218 -23.294  0.00  0.00     0.064 N 
ATOM     10  N   UNL d   1      32.306  17.295 -23.248  0.00  0.00     0.064 N 
ENDBRANCH   3   7
BRANCH   2  11
ATOM     11  O   UNL d   1      29.125  16.124 -23.426  0.00  0.00    -0.326 OA
ATOM     12  C   UNL d   1      29.187  15.474 -22.927  0.00  0.00     0.181 C 
ENDBRANCH   2  11
BRANCH   4  13
ATOM     13  O   UNL d   1      28.971  17.291 -24.576  0.00  0.00    -0.326 OA
ATOM     14  C   UNL d   1      28.900  17.925 -25.097  0.00  0.00     0.181 C 
ENDBRANCH   4  13
TORSDOF 3
ENDMDL
MODEL 4
REMARK VINA RESULT:      -2.3      6.093      7.527
REMARK  3 active torsions:
REMARK  status: ('A' for Active; 'I' for Inactive)
REMARK       I    between atoms: N_4  and  C_1 
REMARK    1  A    between atoms: O_11  and  C_3 
REMARK    2  A    between atoms: C_6  and  N_4 
REMARK    3  A    between atoms: O_12  and  C_7 
ROOT
ATOM      1  C   UNL d   1      31.651  17.724 -23.938  0.00  0.00     0.046 A 
ATOM      2  C   UNL d   1      32.272  17.397 -23.509  0.00  0.00     0.118 A 
ATOM      3  C   UNL d   1      31.194  17.247 -24.438  0.00  0.00     0.102 A 
ATOM      4  C   UNL d   1      32.440  16.590 -23.578  0.00  0.00     0.116 A 
ATOM      5  C   UNL d   1      31.983  16.113 -24.077  0.00  0.00     0.028 A 
ATOM      6  C   UNL d   1      31.362  16.446 -24.505  0.00  0.00     0.022 A 
ENDROOT
BRANCH   3   7
ATOM      7  N   UNL d   1      30.570  17.578 -24.869  0.00  0.00    -0.056 NA
ATOM      8  C   UNL d   1      29.795  17.411 -24.671  0.00  0.00     0.787 C 
ATOM      9  N   UNL d   1      29.178  17.737 -25.097  0.00  0.00     0.064 N 
ATOM     10  N   UNL d   1      29.637  16.906 -24.034  0.00  0.00     0.064 N 
ENDBRANCH   3   7
BRANCH   2  11
ATOM     11  O   UNL d   1      32.725  17.869 -23.014  0.00  0.00    -0.326 OA
ATOM     12  C   UNL d   1      32.737  18.683 -23.123  0.00  0.00     0.181 C 
ENDBRANCH   2  11
BRANCH   4  13
ATOM     13  O   UNL d   1      33.057  16.263 -23.152  0.00  0.00    -0.326 OA
ATOM     14  C   UNL d   1      33.202  15.453 -23.193  0.00  0.00     0.181 C 
ENDBRANCH   4  13
TORSDOF 3
ENDMDL
MODEL 5
REMARK VINA RESULT:      -2.3      7.169      8.085
REMARK  3 active torsions:
REMARK  status: ('A' for Active; 'I' for Inactive)
REMARK       I    between atoms: N_4  and  C_1 
REMARK    1  A    between atoms: O_11  and  C_3 
REMARK    2  A    between atoms: C_6  and  N_4 
REMARK    3  A    between atoms: O_12  and  C_7 
ROOT
ATOM      1  C   UNL d   1      30.344  15.989 -23.821  0.00  0.00     0.046 A 
ATOM      2  C   UNL d   1      31.008  16.470 -23.893  0.00  0.00     0.118 A 
ATOM      3  C   UNL d   1      29.642  16.189 -24.212  0.00  0.00     0.102 A 
ATOM      4  C   UNL d   1      30.973  17.154 -24.357  0.00  0.00     0.116 A 
ATOM      5  C   UNL d   1      30.271  17.353 -24.747  0.00  0.00     0.028 A 
ATOM      6  C   UNL d   1      29.608  16.868 -24.672  0.00  0.00     0.022 A 
ENDROOT
BRANCH   3   7
ATOM      7  N   UNL d   1      28.975  15.704 -24.139  0.00  0.00    -0.056 NA
ATOM      8  C   UNL d   1      28.346  15.931 -23.669  0.00  0.00     0.787 C 
ATOM      9  N   UNL d   1      27.687  15.453 -23.596  0.00  0.00     0.064 N 
ATOM     10  N   UNL d   1      28.381  16.653 -23.264  0.00  0.00     0.064 N 
ENDBRANCH   3   7
BRANCH   2  11
ATOM     11  O   UNL d   1      31.703  16.272 -23.507  0.00  0.00    -0.326 OA
ATOM     12  C   UNL d   1      31.813  15.508 -23.225  0.00  0.00     0.181 C 
ENDBRANCH   2  11
BRANCH   4  13
ATOM     13  O   UNL d   1      31.632  17.633 -24.429  0.00  0.00    -0.326 OA
ATOM     14  C   UNL d   1      31.639  18.242 -24.984  0.00  0.00     0.181 C 
ENDBRANCH   4  13
TORSDOF 3
ENDMDL
MODEL 6
REMARK VINA RESULT:      -2.0      6.262      7.347
REMARK  3 active torsions:
REMARK  status: ('A' for Active; 'I' for Inactive)
REMARK       I    between atoms: N_4  and  C_1 
REMARK    1  A    between atoms: O_11  and  C_3 
REMARK    2  A    between atoms: C_6  and  N_4 
REMARK    3  A    between atoms: O_12  and  C_7 
ROOT
ATOM      1  C   UNL d   1      32.400  16.710 -24.069  0.00  0.00     0.046 A 
ATOM      2  C   UNL d   1      31.930  16.134 -23.718  0.00  0.00     0.118 A 
ATOM      3  C   UNL d   1      32.054  17.392 -24.387  0.00  0.00     0.102 A 
ATOM      4  C   UNL d   1      31.110  16.235 -23.684  0.00  0.00     0.116 A 
ATOM      5  C   UNL d   1      30.764  16.916 -24.002  0.00  0.00     0.028 A 
ATOM      6  C   UNL d   1      31.239  17.492 -24.353  0.00  0.00     0.022 A 
ENDROOT
BRANCH   3   7
ATOM      7  N   UNL d   1      32.528  17.971 -24.740  0.00  0.00    -0.056 NA
ATOM      8  C   UNL d   1      32.714  18.657 -24.337  0.00  0.00     0.787 C 
ATOM      9  N   UNL d   1      33.182  19.230 -24.686  0.00  0.00     0.064 N 
ATOM     10  N   UNL d   1      32.423  18.770 -23.570  0.00  0.00     0.064 N 
ENDBRANCH   3   7
BRANCH   2  11
ATOM     11  O   UNL d   1      32.273  15.459 -23.402  0.00  0.00    -0.326 OA
ATOM     12  C   UNL d   1      33.074  15.453 -23.221  0.00  0.00     0.181 C 
ENDBRANCH   2  11
BRANCH   4  13
ATOM     13  O   UNL d   1      30.642  15.663 -23.335  0.00  0.00    -0.326 OA
ATOM     14  C   UNL d   1      29.824  15.759 -23.311  0.00  0.00     0.181 C 
ENDBRANCH   4  13
TORSDOF 3
ENDMDL
MODEL 7
REMARK VINA RESULT:      -1.9      2.167      2.992
REMARK  3 active torsions:
REMARK  status: ('A' for Active; 'I' for Inactive)
REMARK       I    between atoms: N_4  and  C_1 
REMARK    1  A    between atoms: O_11  and  C_3 
REMARK    2  A    between atoms: C_6  and  N_4 
REMARK    3  A    between atoms: O_12  and  C_7 
ROOT
ATOM      1  C   UNL d   1      32.667  22.211 -21.501  0.00  0.00     0.046 A 
ATOM      2  C   UNL d   1      32.478  22.188 -20.700  0.00  0.00     0.118 A 
ATOM      3  C   UNL d   1      33.049  22.873 -21.819  0.00  0.00     0.102 A 
ATOM      4  C   UNL d   1      32.671  22.827 -20.213  0.00  0.00     0.116 A 
ATOM      5  C   UNL d   1      33.054  23.489 -20.531  0.00  0.00     0.028 A 
ATOM      6  C   UNL d   1      33.241  23.508 -21.334  0.00  0.00     0.022 A 
ENDROOT
BRANCH   3   7
ATOM      7  N   UNL d   1      33.238  22.895 -22.624  0.00  0.00    -0.056 NA
ATOM      8  C   UNL d   1      32.763  23.298 -23.152  0.00  0.00     0.787 C 
ATOM      9  N   UNL d   1      32.949  23.320 -23.948  0.00  0.00     0.064 N 
ATOM     10  N   UNL d   1      32.086  23.687 -22.874  0.00  0.00     0.064 N 
ENDBRANCH   3   7
BRANCH   2  11
ATOM     11  O   UNL d   1      32.100  21.532 -20.385  0.00  0.00    -0.326 OA
ATOM     12  C   UNL d   1      32.217  20.791 -20.720  0.00  0.00     0.181 C 
ENDBRANCH   2  11
BRANCH   4  13
ATOM     13  O   UNL d   1      32.485  22.805 -19.417  0.00  0.00    -0.326 OA
ATOM     14  C   UNL d   1      32.488  23.500 -18.974  0.00  0.00     0.181 C 
ENDBRANCH   4  13
TORSDOF 3
ENDMDL
MODEL 8
REMARK VINA RESULT:      -1.5      1.674      2.059
REMARK  3 active torsions:
REMARK  status: ('A' for Active; 'I' for Inactive)
REMARK       I    between atoms: N_4  and  C_1 
REMARK    1  A    between atoms: O_11  and  C_3 
REMARK    2  A    between atoms: C_6  and  N_4 
REMARK    3  A    between atoms: O_12  and  C_7 
ROOT
ATOM      1  C   UNL d   1      33.231  21.766 -21.691  0.00  0.00     0.046 A 
ATOM      2  C   UNL d   1      33.231  21.475 -22.461  0.00  0.00     0.118 A 
ATOM      3  C   UNL d   1      33.231  22.583 -21.556  0.00  0.00     0.102 A 
ATOM      4  C   UNL d   1      33.230  21.999 -23.100  0.00  0.00     0.116 A 
ATOM      5  C   UNL d   1      33.230  22.816 -22.965  0.00  0.00     0.028 A 
ATOM      6  C   UNL d   1      33.230  23.104 -22.192  0.00  0.00     0.022 A 
ENDROOT
BRANCH   3   7
ATOM      7  N   UNL d   1      33.232  22.875 -20.782  0.00  0.00    -0.056 NA
ATOM      8  C   UNL d   1      32.549  23.182 -20.453  0.00  0.00     0.787 C 
ATOM      9  N   UNL d   1      32.550  23.471 -19.688  0.00  0.00     0.064 N 
ATOM     10  N   UNL d   1      31.854  23.200 -20.902  0.00  0.00     0.064 N 
ENDBRANCH   3   7
BRANCH   2  11
ATOM     11  O   UNL d   1      33.231  20.666 -22.594  0.00  0.00    -0.326 OA
ATOM     12  C   UNL d   1      32.757  20.175 -22.136  0.00  0.00     0.181 C 
ENDBRANCH   2  11
BRANCH   4  13
ATOM     13  O   UNL d   1      33.229  21.711 -23.865  0.00  0.00    -0.326 OA
ATOM     14  C   UNL d   1      33.196  22.232 -24.502  0.00  0.00     0.181 C 
ENDBRANCH   4  13
TORSDOF 3
ENDMDL
MODEL 9
REMARK VINA RESULT:      -1.3      0.896      1.847
REMARK  3 active torsions:
REMARK  status: ('A' for Active; 'I' for Inactive)
REMARK       I    between atoms: N_4  and  C_1 
REMARK    1  A    between atoms: O_11  and  C_3 
REMARK    2  A    between atoms: C_6  and  N_4 
REMARK    3  A    between atoms: O_12  and  C_7 
ROOT
ATOM      1  C   UNL d   1      33.056  22.776 -20.960  0.00  0.00     0.046 A 
ATOM      2  C   UNL d   1      32.992  22.255 -21.593  0.00  0.00     0.118 A 
ATOM      3  C   UNL d   1      33.176  22.487 -20.193  0.00  0.00     0.102 A 
ATOM      4  C   UNL d   1      33.049  21.440 -21.463  0.00  0.00     0.116 A 
ATOM      5  C   UNL d   1      33.169  21.151 -20.697  0.00  0.00     0.028 A 
ATOM      6  C   UNL d   1      33.232  21.677 -20.065  0.00  0.00     0.022 A 
ENDROOT
BRANCH   3   7
ATOM      7  N   UNL d   1      33.240  23.012 -19.558  0.00  0.00    -0.056 NA
ATOM      8  C   UNL d   1      32.650  23.057 -18.995  0.00  0.00     0.787 C 
ATOM      9  N   UNL d   1      32.712  23.576 -18.366  0.00  0.00     0.064 N 
ATOM     10  N   UNL d   1      31.983  22.571 -19.066  0.00  0.00     0.064 N 
ENDBRANCH   3   7
BRANCH   2  11
ATOM     11  O   UNL d   1      32.873  22.541 -22.352  0.00  0.00    -0.326 OA
ATOM     12  C   UNL d   1      33.132  23.295 -22.551  0.00  0.00     0.181 C 
ENDBRANCH   2  11
BRANCH   4  13
ATOM     13  O   UNL d   1      32.986  20.921 -22.092  0.00  0.00    -0.326 OA
ATOM     14  C   UNL d   1      32.772  20.136 -21.958  0.00  0.00     0.181 C 
ENDBRANCH   4  13
TORSDOF 3
ENDMDL
