MODEL 1
REMARK VINA RESULT:     -11.9      0.000      0.000
REMARK  4 active torsions:
REMARK  status: ('A' for Active; 'I' for Inactive)
REMARK    1  A    between atoms: C_11  and  C_4 
REMARK    2  A    between atoms: N_10  and  C_7 
REMARK    3  A    between atoms: C_14  and  N_10 
REMARK    4  A    between atoms: C_21  and  C_14 
ROOT
ATOM      1  C   UNL d   1      52.762  34.176  53.838  0.00  0.00     0.186 A 
ATOM      2  N   UNL d   1      53.316  34.601  54.289  0.00  0.00    -0.193 N 
ATOM      3  N   UNL d   1      52.829  33.343  53.788  0.00  0.00    -0.206 NA
ATOM      4  C   UNL d   1      52.228  34.711  53.514  0.00  0.00     0.140 A 
ATOM      5  N   UNL d   1      53.116  35.406  54.239  0.00  0.00    -0.058 NA
ATOM      6  N   UNL d   1      52.442  35.477  53.760  0.00  0.00    -0.127 NA
ATOM      7  C   UNL d   1      53.439  32.946  54.182  0.00  0.00     0.166 A 
ATOM      8  C   UNL d   1      53.985  33.383  54.629  0.00  0.00     0.054 A 
ATOM      9  C   UNL d   1      53.922  34.204  54.681  0.00  0.00     0.089 A 
ATOM     10  C   UNL d   1      54.590  32.987  55.021  0.00  0.00     0.005 A 
ATOM     11  C   UNL d   1      54.472  34.629  55.129  0.00  0.00     0.019 A 
ATOM     12  C   UNL d   1      55.137  33.411  55.467  0.00  0.00     0.000 A 
ATOM     13  C   UNL d   1      55.078  34.232  55.521  0.00  0.00     0.002 A 
ENDROOT
BRANCH   7  14
ATOM     14  N   UNL d   1      53.505  32.125  54.134  0.00  0.00    -0.225 NA
BRANCH  14  15
ATOM     15  C   UNL d   1      53.329  31.746  53.428  0.00  0.00     0.101 C 
BRANCH  15  16
ATOM     16  C   UNL d   1      53.180  30.935  53.419  0.00  0.00     0.019 A 
ATOM     17  C   UNL d   1      53.614  30.426  53.901  0.00  0.00     0.002 A 
ATOM     18  C   UNL d   1      53.465  29.614  53.892  0.00  0.00     0.000 A 
ATOM     19  C   UNL d   1      52.875  29.313  53.395  0.00  0.00     0.000 A 
ATOM     20  C   UNL d   1      52.438  29.827  52.910  0.00  0.00     0.000 A 
ATOM     21  C   UNL d   1      52.596  30.636  52.927  0.00  0.00     0.002 A 
ENDBRANCH  15  16
ENDBRANCH  14  15
ENDBRANCH   7  14
BRANCH   4  22
ATOM     22  C   UNL d   1      51.594  34.521  53.033  0.00  0.00     0.023 A 
ATOM     23  C   UNL d   1      50.844  34.433  53.363  0.00  0.00     0.004 A 
ATOM     24  C   UNL d   1      50.198  34.240  52.876  0.00  0.00     0.030 A 
ATOM     25  C   UNL d   1      50.310  34.139  52.071  0.00  0.00     0.140 A 
ATOM     26  C   UNL d   1      51.070  34.230  51.747  0.00  0.00     0.030 A 
ATOM     27  F   UNL d   1      49.675  33.949  51.589  0.00  0.00    -0.204 F 
ATOM     28  C   UNL d   1      51.704  34.419  52.228  0.00  0.00     0.004 A 
ENDBRANCH   4  22
TORSDOF 4
ENDMDL
MODEL 2
REMARK VINA RESULT:      -9.6      1.601      3.412
REMARK  4 active torsions:
REMARK  status: ('A' for Active; 'I' for Inactive)
REMARK    1  A    between atoms: C_11  and  C_4 
REMARK    2  A    between atoms: N_10  and  C_7 
REMARK    3  A    between atoms: C_14  and  N_10 
REMARK    4  A    between atoms: C_21  and  C_14 
ROOT
ATOM      1  C   UNL d   1      52.712  34.110  53.933  0.00  0.00     0.186 A 
ATOM      2  N   UNL d   1      52.101  34.604  53.662  0.00  0.00    -0.193 N 
ATOM      3  N   UNL d   1      52.708  33.301  53.720  0.00  0.00    -0.206 NA
ATOM      4  C   UNL d   1      53.228  34.563  54.387  0.00  0.00     0.140 A 
ATOM      5  N   UNL d   1      52.246  35.368  53.955  0.00  0.00    -0.058 NA
ATOM      6  N   UNL d   1      52.944  35.345  54.405  0.00  0.00    -0.127 NA
ATOM      7  C   UNL d   1      52.104  32.994  53.246  0.00  0.00     0.166 A 
ATOM      8  C   UNL d   1      51.500  33.499  52.982  0.00  0.00     0.054 A 
ATOM      9  C   UNL d   1      51.500  34.297  53.190  0.00  0.00     0.089 A 
ATOM     10  C   UNL d   1      50.899  33.192  52.511  0.00  0.00     0.005 A 
ATOM     11  C   UNL d   1      50.893  34.790  52.922  0.00  0.00     0.019 A 
ATOM     12  C   UNL d   1      50.295  33.684  52.244  0.00  0.00     0.000 A 
ATOM     13  C   UNL d   1      50.292  34.483  52.450  0.00  0.00     0.002 A 
ENDROOT
BRANCH   7  14
ATOM     14  N   UNL d   1      52.099  32.196  53.035  0.00  0.00    -0.225 NA
BRANCH  14  15
ATOM     15  C   UNL d   1      52.810  31.809  52.904  0.00  0.00     0.101 C 
BRANCH  15  16
ATOM     16  C   UNL d   1      52.900  31.020  53.131  0.00  0.00     0.019 A 
ATOM     17  C   UNL d   1      52.347  30.454  52.898  0.00  0.00     0.002 A 
ATOM     18  C   UNL d   1      52.437  29.666  53.125  0.00  0.00     0.000 A 
ATOM     19  C   UNL d   1      53.087  29.446  53.588  0.00  0.00     0.000 A 
ATOM     20  C   UNL d   1      53.643  30.017  53.821  0.00  0.00     0.000 A 
ATOM     21  C   UNL d   1      53.543  30.802  53.589  0.00  0.00     0.002 A 
ENDBRANCH  15  16
ENDBRANCH  14  15
ENDBRANCH   7  14
BRANCH   4  22
ATOM     22  C   UNL d   1      53.905  34.289  54.758  0.00  0.00     0.023 A 
ATOM     23  C   UNL d   1      53.852  33.970  55.515  0.00  0.00     0.004 A 
ATOM     24  C   UNL d   1      54.538  33.692  55.894  0.00  0.00     0.030 A 
ATOM     25  C   UNL d   1      55.262  33.735  55.513  0.00  0.00     0.140 A 
ATOM     26  C   UNL d   1      55.304  34.059  54.748  0.00  0.00     0.030 A 
ATOM     27  F   UNL d   1      55.939  33.462  55.884  0.00  0.00    -0.204 F 
ATOM     28  C   UNL d   1      54.628  34.333  54.377  0.00  0.00     0.004 A 
ENDBRANCH   4  22
TORSDOF 4
ENDMDL
MODEL 3
REMARK VINA RESULT:      -9.6      1.424      3.823
REMARK  4 active torsions:
REMARK  status: ('A' for Active; 'I' for Inactive)
REMARK    1  A    between atoms: C_11  and  C_4 
REMARK    2  A    between atoms: N_10  and  C_7 
REMARK    3  A    between atoms: C_14  and  N_10 
REMARK    4  A    between atoms: C_21  and  C_14 
ROOT
ATOM      1  C   UNL d   1      53.324  32.850  54.050  0.00  0.00     0.186 A 
ATOM      2  N   UNL d   1      53.736  33.377  54.543  0.00  0.00    -0.193 N 
ATOM      3  N   UNL d   1      52.704  33.139  53.569  0.00  0.00    -0.206 NA
ATOM      4  C   UNL d   1      53.644  32.099  54.152  0.00  0.00     0.140 A 
ATOM      5  N   UNL d   1      54.314  32.942  54.951  0.00  0.00    -0.058 NA
ATOM      6  N   UNL d   1      54.260  32.149  54.711  0.00  0.00    -0.127 NA
ATOM      7  C   UNL d   1      52.501  33.941  53.583  0.00  0.00     0.166 A 
ATOM      8  C   UNL d   1      52.920  34.457  54.080  0.00  0.00     0.054 A 
ATOM      9  C   UNL d   1      53.533  34.176  54.555  0.00  0.00     0.089 A 
ATOM     10  C   UNL d   1      52.717  35.254  54.092  0.00  0.00     0.005 A 
ATOM     11  C   UNL d   1      53.943  34.698  55.046  0.00  0.00     0.019 A 
ATOM     12  C   UNL d   1      53.127  35.775  54.582  0.00  0.00     0.000 A 
ATOM     13  C   UNL d   1      53.740  35.497  55.059  0.00  0.00     0.002 A 
ENDROOT
BRANCH   7  14
ATOM     14  N   UNL d   1      51.889  34.228  53.109  0.00  0.00    -0.225 NA
BRANCH  14  15
ATOM     15  C   UNL d   1      51.209  33.780  53.012  0.00  0.00     0.101 C 
BRANCH  15  16
ATOM     16  C   UNL d   1      50.585  34.067  52.555  0.00  0.00     0.019 A 
ATOM     17  C   UNL d   1      50.603  33.998  51.733  0.00  0.00     0.002 A 
ATOM     18  C   UNL d   1      49.979  34.286  51.277  0.00  0.00     0.000 A 
ATOM     19  C   UNL d   1      49.332  34.645  51.650  0.00  0.00     0.000 A 
ATOM     20  C   UNL d   1      49.315  34.713  52.478  0.00  0.00     0.000 A 
ATOM     21  C   UNL d   1      49.944  34.423  52.924  0.00  0.00     0.002 A 
ENDBRANCH  15  16
ENDBRANCH  14  15
ENDBRANCH   7  14
BRANCH   4  22
ATOM     22  C   UNL d   1      53.398  31.418  53.769  0.00  0.00     0.023 A 
ATOM     23  C   UNL d   1      52.921  30.877  54.167  0.00  0.00     0.004 A 
ATOM     24  C   UNL d   1      52.670  30.185  53.781  0.00  0.00     0.030 A 
ATOM     25  C   UNL d   1      52.897  30.045  53.006  0.00  0.00     0.140 A 
ATOM     26  C   UNL d   1      53.379  30.596  52.613  0.00  0.00     0.030 A 
ATOM     27  F   UNL d   1      52.651  29.364  52.623  0.00  0.00    -0.204 F 
ATOM     28  C   UNL d   1      53.625  31.277  52.996  0.00  0.00     0.004 A 
ENDBRANCH   4  22
TORSDOF 4
ENDMDL
