MODEL 1
REMARK VINA RESULT:      -1.0      0.000      0.000
REMARK  7 active torsions:
REMARK  status: ('A' for Active; 'I' for Inactive)
REMARK    1  A    between atoms: C_6  and  N_1 
REMARK    2  A    between atoms: C_9  and  C_5 
REMARK    3  A    between atoms: C_7  and  C_6 
REMARK       I    between atoms: N_10  and  C_7 
REMARK    4  A    between atoms: C_12  and  C_9 
REMARK    5  A    between atoms: C_15  and  N_10 
REMARK    6  A    between atoms: C_14  and  C_12 
REMARK    7  A    between atoms: C_17  and  C_14 
ROOT
ATOM      1  N   UNL d   1     -41.403-122.552 -51.121  0.00  0.00    -0.230 N 
ATOM      2  C   UNL d   1     -41.650-121.775 -51.153  0.00  0.00     0.299 A 
ATOM      3  C   UNL d   1     -41.478-122.875 -51.879  0.00  0.00     0.274 A 
ATOM      4  S   UNL d   1     -41.876-121.617 -51.924  0.00  0.00    -0.022 SA
ATOM      5  C   UNL d   1     -41.771-122.293 -52.371  0.00  0.00     0.090 A 
ATOM      6  O   UNL d   1     -41.666-121.247 -50.514  0.00  0.00    -0.259 OA
ATOM      7  O   UNL d   1     -41.293-123.640 -52.097  0.00  0.00    -0.266 OA
ENDROOT
BRANCH   1   8
ATOM      8  C   UNL d   1     -41.128-122.943 -50.448  0.00  0.00     0.149 C 
BRANCH   8   9
ATOM      9  C   UNL d   1     -41.666-123.166 -49.853  0.00  0.00     0.297 C 
ATOM     10  N   UNL d   1     -41.542-122.924 -49.073  0.00  0.00    -0.207 NA
ATOM     11  O   UNL d   1     -42.325-123.631 -50.051  0.00  0.00    -0.264 OA
BRANCH  10  12
ATOM     12  C   UNL d   1     -42.077-123.146 -48.485  0.00  0.00     0.085 A 
ATOM     13  C   UNL d   1     -42.873-122.925 -48.539  0.00  0.00     0.022 A 
ATOM     14  C   UNL d   1     -43.408-123.146 -47.951  0.00  0.00     0.044 A 
ATOM     15  C   UNL d   1     -43.145-123.594 -47.301  0.00  0.00     0.196 A 
ATOM     16  C   UNL d   1     -42.345-123.817 -47.246  0.00  0.00     0.044 A 
ATOM     17  O   UNL d   1     -43.681-123.817 -46.710  0.00  0.00    -0.287 OA
ATOM     18  C   UNL d   1     -41.811-123.590 -47.842  0.00  0.00     0.022 A 
ENDBRANCH  10  12
ENDBRANCH   8   9
ENDBRANCH   1   8
BRANCH   5  19
ATOM     19  C   UNL d   1     -41.769-122.789 -53.027  0.00  0.00     0.011 C 
BRANCH  19  20
ATOM     20  C   UNL d   1     -42.100-122.527 -53.743  0.00  0.00     0.001 C 
BRANCH  20  21
ATOM     21  C   UNL d   1     -41.615-122.413 -54.398  0.00  0.00     0.000 C 
BRANCH  21  22
ATOM     22  C   UNL d   1     -41.942-122.178 -55.118  0.00  0.00     0.000 A 
ATOM     23  C   UNL d   1     -41.530-121.637 -55.593  0.00  0.00     0.000 A 
ATOM     24  C   UNL d   1     -41.854-121.398 -56.319  0.00  0.00     0.000 A 
ATOM     25  C   UNL d   1     -42.579-121.699 -56.561  0.00  0.00     0.000 A 
ATOM     26  C   UNL d   1     -42.984-122.241 -56.079  0.00  0.00     0.000 A 
ATOM     27  C   UNL d   1     -42.660-122.473 -55.365  0.00  0.00     0.000 A 
ENDBRANCH  21  22
ENDBRANCH  20  21
ENDBRANCH  19  20
ENDBRANCH   5  19
TORSDOF 7
ENDMDL
