MODEL 1
REMARK VINA RESULT:       8.5      0.000      0.000
REMARK  4 active torsions:
REMARK  status: ('A' for Active; 'I' for Inactive)
REMARK    1  A    between atoms: S_8  and  C_1 
REMARK    2  A    between atoms: C_2  and  S_7 
REMARK    3  A    between atoms: S_7  and  C_13 
REMARK    4  A    between atoms: C_13  and  S_8 
ROOT
ATOM      1  C   UNL d   1      45.939 -16.615  44.407  0.00  0.00     0.128 C 
ENDROOT
BRANCH   1   2
ATOM      2  S   UNL d   1      46.079 -17.382  44.675  0.00  0.00    -0.076 SA
BRANCH   2   3
ATOM      3  C   UNL d   1      46.209 -17.957  44.119  0.00  0.00     0.137 A 
ATOM      4  N   UNL d   1      46.288 -17.900  43.285  0.00  0.00    -0.232 NA
ATOM      5  C   UNL d   1      46.412 -18.646  42.993  0.00  0.00     0.088 A 
ATOM      6  C   UNL d   1      46.529 -18.945  42.235  0.00  0.00     0.020 A 
ATOM      7  C   UNL d   1      46.413 -19.177  43.630  0.00  0.00     0.049 A 
ATOM      8  C   UNL d   1      46.641 -19.735  42.108  0.00  0.00     0.002 A 
ATOM      9  C   UNL d   1      46.646 -20.280  42.722  0.00  0.00     0.001 A 
ATOM     10  C   UNL d   1      46.529 -19.985  43.499  0.00  0.00     0.008 A 
ATOM     11  S   UNL d   1      46.289 -18.759  44.323  0.00  0.00    -0.060 SA
ENDBRANCH   2   3
ENDBRANCH   1   2
BRANCH   1  12
ATOM     12  S   UNL d   1      45.828 -16.009  44.955  0.00  0.00    -0.076 SA
BRANCH  12  13
ATOM     13  C   UNL d   1      45.681 -15.229  44.733  0.00  0.00     0.137 A 
ATOM     14  N   UNL d   1      45.061 -14.982  44.300  0.00  0.00    -0.232 NA
ATOM     15  C   UNL d   1      45.136 -14.176  44.215  0.00  0.00     0.088 A 
ATOM     16  C   UNL d   1      44.696 -13.607  43.843  0.00  0.00     0.020 A 
ATOM     17  C   UNL d   1      45.824 -13.958  44.614  0.00  0.00     0.049 A 
ATOM     18  C   UNL d   1      44.916 -12.809  43.850  0.00  0.00     0.002 A 
ATOM     19  C   UNL d   1      45.623 -12.585  44.260  0.00  0.00     0.001 A 
ATOM     20  C   UNL d   1      46.071 -13.171  44.641  0.00  0.00     0.008 A 
ATOM     21  S   UNL d   1      46.161 -14.634  44.939  0.00  0.00    -0.060 SA
ENDBRANCH  12  13
ENDBRANCH   1  12
TORSDOF 4
ENDMDL
MODEL 2
REMARK VINA RESULT:       9.0      0.440      5.269
REMARK  4 active torsions:
REMARK  status: ('A' for Active; 'I' for Inactive)
REMARK    1  A    between atoms: S_8  and  C_1 
REMARK    2  A    between atoms: C_2  and  S_7 
REMARK    3  A    between atoms: S_7  and  C_13 
REMARK    4  A    between atoms: C_13  and  S_8 
ROOT
ATOM      1  C   UNL d   1      45.959 -16.592  44.435  0.00  0.00     0.128 C 
ENDROOT
BRANCH   1   2
ATOM      2  S   UNL d   1      45.572 -16.083  44.955  0.00  0.00    -0.076 SA
BRANCH   2   3
ATOM      3  C   UNL d   1      45.595 -15.290  44.792  0.00  0.00     0.137 A 
ATOM      4  N   UNL d   1      46.187 -14.717  44.955  0.00  0.00    -0.232 NA
ATOM      5  C   UNL d   1      45.931 -14.003  44.672  0.00  0.00     0.088 A 
ATOM      6  C   UNL d   1      46.256 -13.246  44.665  0.00  0.00     0.020 A 
ATOM      7  C   UNL d   1      45.183 -14.112  44.331  0.00  0.00     0.049 A 
ATOM      8  C   UNL d   1      45.862 -12.623  44.336  0.00  0.00     0.002 A 
ATOM      9  C   UNL d   1      45.122 -12.706  43.992  0.00  0.00     0.001 A 
ATOM     10  C   UNL d   1      44.780 -13.473  43.994  0.00  0.00     0.008 A 
ATOM     11  S   UNL d   1      44.973 -14.899  44.402  0.00  0.00    -0.060 SA
ENDBRANCH   2   3
ENDBRANCH   1   2
BRANCH   1  12
ATOM     12  S   UNL d   1      46.159 -17.352  44.685  0.00  0.00    -0.076 SA
BRANCH  12  13
ATOM     13  C   UNL d   1      46.262 -17.981  44.163  0.00  0.00     0.137 A 
ATOM     14  N   UNL d   1      46.404 -17.913  43.383  0.00  0.00    -0.232 NA
ATOM     15  C   UNL d   1      46.468 -18.669  43.087  0.00  0.00     0.088 A 
ATOM     16  C   UNL d   1      46.606 -18.974  42.349  0.00  0.00     0.020 A 
ATOM     17  C   UNL d   1      46.358 -19.183  43.722  0.00  0.00     0.049 A 
ATOM     18  C   UNL d   1      46.642 -19.789  42.211  0.00  0.00     0.002 A 
ATOM     19  C   UNL d   1      46.529 -20.318  42.864  0.00  0.00     0.001 A 
ATOM     20  C   UNL d   1      46.387 -20.001  43.619  0.00  0.00     0.008 A 
ATOM     21  S   UNL d   1      46.228 -18.736  44.399  0.00  0.00    -0.060 SA
ENDBRANCH  12  13
ENDBRANCH   1  12
TORSDOF 4
ENDMDL
