MODEL 1
REMARK VINA RESULT:      -2.2      0.000      0.000
REMARK  4 active torsions:
REMARK  status: ('A' for Active; 'I' for Inactive)
REMARK    1  A    between atoms: S_3  and  N_1 
REMARK    2  A    between atoms: C_7  and  C_4 
REMARK    3  A    between atoms: C_11  and  C_5 
REMARK    4  A    between atoms: O_21  and  C_18 
ROOT
ATOM      1  N   UNL d   1      32.609  21.993 -20.467  0.00  0.00    -0.155 N 
ATOM      2  N   UNL d   1      32.700  21.881 -19.660  0.00  0.00    -0.156 NA
ATOM      3  C   UNL d   1      32.656  22.800 -20.626  0.00  0.00     0.102 A 
ATOM      4  C   UNL d   1      32.805  22.612 -19.292  0.00  0.00     0.104 A 
ATOM      5  C   UNL d   1      32.775  23.185 -19.915  0.00  0.00     0.041 A 
ENDROOT
BRANCH   4   6
ATOM      6  C   UNL d   1      32.913  22.752 -18.516  0.00  0.00     0.020 A 
ATOM      7  C   UNL d   1      32.797  23.544 -18.208  0.00  0.00     0.004 A 
ATOM      8  C   UNL d   1      32.902  23.702 -17.423  0.00  0.00     0.024 A 
ATOM      9  C   UNL d   1      33.128  23.106 -16.876  0.00  0.00     0.094 A 
ATOM     10  C   UNL d   1      33.241  22.339 -17.175  0.00  0.00     0.024 A 
ATOM     11  C   UNL d   1      33.141  22.147 -17.971  0.00  0.00     0.004 A 
BRANCH   9  12
ATOM     12  O   UNL d   1      33.236  23.280 -16.058  0.00  0.00    -0.328 OA
ATOM     13  C   UNL d   1      33.172  22.665 -15.510  0.00  0.00     0.181 C 
ENDBRANCH   9  12
ENDBRANCH   4   6
BRANCH   1  14
ATOM     14  S   UNL d   1      32.488  21.370 -21.029  0.00  0.00     0.266 S 
ATOM     15  O   UNL d   1      33.218  21.514 -21.371  0.00  0.00    -0.203 OA
ATOM     16  O   UNL d   1      32.358  20.762 -21.567  0.00  0.00    -0.203 OA
ATOM     17  C   UNL d   1      31.726  21.227 -20.662  0.00  0.00     0.165 C 
ENDBRANCH   1  14
BRANCH   3  18
ATOM     18  C   UNL d   1      32.591  23.153 -21.379  0.00  0.00     0.048 A 
ATOM     19  S   UNL d   1      33.194  23.357 -21.871  0.00  0.00    -0.085 SA
ATOM     20  C   UNL d   1      32.891  23.689 -22.560  0.00  0.00     0.035 A 
ATOM     21  C   UNL d   1      32.093  23.691 -22.494  0.00  0.00     0.007 A 
ATOM     22  C   UNL d   1      31.900  23.363 -21.772  0.00  0.00     0.009 A 
ENDBRANCH   3  18
TORSDOF 4
ENDMDL
MODEL 2
REMARK VINA RESULT:      -2.2      4.917      6.623
REMARK  4 active torsions:
REMARK  status: ('A' for Active; 'I' for Inactive)
REMARK    1  A    between atoms: S_3  and  N_1 
REMARK    2  A    between atoms: C_7  and  C_4 
REMARK    3  A    between atoms: C_11  and  C_5 
REMARK    4  A    between atoms: O_21  and  C_18 
ROOT
ATOM      1  N   UNL d   1      32.551  16.979 -23.851  0.00  0.00    -0.155 N 
ATOM      2  N   UNL d   1      32.971  17.619 -23.556  0.00  0.00    -0.156 NA
ATOM      3  C   UNL d   1      31.778  17.220 -24.001  0.00  0.00     0.102 A 
ATOM      4  C   UNL d   1      32.475  18.276 -23.513  0.00  0.00     0.104 A 
ATOM      5  C   UNL d   1      31.723  18.010 -23.798  0.00  0.00     0.041 A 
ENDROOT
BRANCH   4   6
ATOM      6  C   UNL d   1      32.660  19.008 -23.259  0.00  0.00     0.020 A 
ATOM      7  C   UNL d   1      32.681  19.172 -22.418  0.00  0.00     0.004 A 
ATOM      8  C   UNL d   1      32.867  19.908 -22.144  0.00  0.00     0.024 A 
ATOM      9  C   UNL d   1      33.047  20.542 -22.664  0.00  0.00     0.094 A 
ATOM     10  C   UNL d   1      33.028  20.383 -23.480  0.00  0.00     0.024 A 
ATOM     11  C   UNL d   1      32.841  19.641 -23.788  0.00  0.00     0.004 A 
BRANCH   9  12
ATOM     12  O   UNL d   1      33.241  21.309 -22.370  0.00  0.00    -0.328 OA
ATOM     13  C   UNL d   1      32.840  21.591 -21.705  0.00  0.00     0.181 C 
ENDBRANCH   9  12
ENDBRANCH   4   6
BRANCH   1  14
ATOM     14  S   UNL d   1      32.876  16.206 -23.973  0.00  0.00     0.266 S 
ATOM     15  O   UNL d   1      32.662  15.977 -23.217  0.00  0.00    -0.203 OA
ATOM     16  O   UNL d   1      33.195  15.460 -24.107  0.00  0.00    -0.203 OA
ATOM     17  C   UNL d   1      33.096  16.456 -24.764  0.00  0.00     0.165 C 
ENDBRANCH   1  14
BRANCH   3  18
ATOM     18  C   UNL d   1      31.168  16.740 -24.305  0.00  0.00     0.048 A 
ATOM     19  S   UNL d   1      30.714  16.886 -24.952  0.00  0.00    -0.085 SA
ATOM     20  C   UNL d   1      30.177  16.272 -25.060  0.00  0.00     0.035 A 
ATOM     21  C   UNL d   1      30.300  15.740 -24.474  0.00  0.00     0.007 A 
ATOM     22  C   UNL d   1      30.907  16.019 -24.006  0.00  0.00     0.009 A 
ENDBRANCH   3  18
TORSDOF 4
ENDMDL
MODEL 3
REMARK VINA RESULT:      -1.6      2.314      4.690
REMARK  4 active torsions:
REMARK  status: ('A' for Active; 'I' for Inactive)
REMARK    1  A    between atoms: S_3  and  N_1 
REMARK    2  A    between atoms: C_7  and  C_4 
REMARK    3  A    between atoms: C_11  and  C_5 
REMARK    4  A    between atoms: O_21  and  C_18 
ROOT
ATOM      1  N   UNL d   1      32.520  22.152 -21.609  0.00  0.00    -0.155 N 
ATOM      2  N   UNL d   1      32.511  21.533 -22.146  0.00  0.00    -0.156 NA
ATOM      3  C   UNL d   1      32.862  21.885 -20.908  0.00  0.00     0.102 A 
ATOM      4  C   UNL d   1      32.845  20.863 -21.799  0.00  0.00     0.104 A 
ATOM      5  C   UNL d   1      33.063  21.100 -21.015  0.00  0.00     0.041 A 
ENDROOT
BRANCH   4   6
ATOM      6  C   UNL d   1      32.943  20.144 -22.128  0.00  0.00     0.020 A 
ATOM      7  C   UNL d   1      32.851  20.049 -22.974  0.00  0.00     0.004 A 
ATOM      8  C   UNL d   1      32.947  19.327 -23.323  0.00  0.00     0.024 A 
ATOM      9  C   UNL d   1      33.141  18.642 -22.877  0.00  0.00     0.094 A 
ATOM     10  C   UNL d   1      33.231  18.734 -22.056  0.00  0.00     0.024 A 
ATOM     11  C   UNL d   1      33.139  19.459 -21.673  0.00  0.00     0.004 A 
BRANCH   9  12
ATOM     12  O   UNL d   1      33.241  17.891 -23.249  0.00  0.00    -0.328 OA
ATOM     13  C   UNL d   1      32.698  17.660 -23.827  0.00  0.00     0.181 C 
ENDBRANCH   9  12
ENDBRANCH   4   6
BRANCH   1  14
ATOM     14  S   UNL d   1      32.223  22.930 -21.766  0.00  0.00     0.266 S 
ATOM     15  O   UNL d   1      31.575  22.798 -21.283  0.00  0.00    -0.203 OA
ATOM     16  O   UNL d   1      31.946  23.687 -21.928  0.00  0.00    -0.203 OA
ATOM     17  C   UNL d   1      32.906  23.057 -22.270  0.00  0.00     0.165 C 
ENDBRANCH   1  14
BRANCH   3  18
ATOM     18  C   UNL d   1      32.977  22.340 -20.219  0.00  0.00     0.048 A 
ATOM     19  S   UNL d   1      32.907  22.091 -19.457  0.00  0.00    -0.085 SA
ATOM     20  C   UNL d   1      33.069  22.714 -18.945  0.00  0.00     0.035 A 
ATOM     21  C   UNL d   1      33.240  23.355 -19.393  0.00  0.00     0.007 A 
ATOM     22  C   UNL d   1      33.187  23.134 -20.177  0.00  0.00     0.009 A 
ENDBRANCH   3  18
TORSDOF 4
ENDMDL
MODEL 4
REMARK VINA RESULT:      -1.6      6.880      8.408
REMARK  4 active torsions:
REMARK  status: ('A' for Active; 'I' for Inactive)
REMARK    1  A    between atoms: S_3  and  N_1 
REMARK    2  A    between atoms: C_7  and  C_4 
REMARK    3  A    between atoms: C_11  and  C_5 
REMARK    4  A    between atoms: O_21  and  C_18 
ROOT
ATOM      1  N   UNL d   1      31.631  16.338 -23.877  0.00  0.00    -0.155 N 
ATOM      2  N   UNL d   1      30.943  15.916 -23.732  0.00  0.00    -0.156 NA
ATOM      3  C   UNL d   1      31.431  17.044 -24.251  0.00  0.00     0.102 A 
ATOM      4  C   UNL d   1      30.295  16.344 -24.011  0.00  0.00     0.104 A 
ATOM      5  C   UNL d   1      30.618  17.056 -24.337  0.00  0.00     0.041 A 
ENDROOT
BRANCH   4   6
ATOM      6  C   UNL d   1      29.527  16.135 -23.981  0.00  0.00     0.020 A 
ATOM      7  C   UNL d   1      29.153  16.001 -23.222  0.00  0.00     0.004 A 
ATOM      8  C   UNL d   1      28.375  15.788 -23.175  0.00  0.00     0.024 A 
ATOM      9  C   UNL d   1      27.900  15.690 -23.862  0.00  0.00     0.094 A 
ATOM     10  C   UNL d   1      28.263  15.820 -24.598  0.00  0.00     0.024 A 
ATOM     11  C   UNL d   1      29.055  16.037 -24.676  0.00  0.00     0.004 A 
BRANCH   9  12
ATOM     12  O   UNL d   1      27.088  15.468 -23.804  0.00  0.00    -0.328 OA
ATOM     13  C   UNL d   1      26.699  15.571 -23.083  0.00  0.00     0.181 C 
ENDBRANCH   9  12
ENDBRANCH   4   6
BRANCH   1  14
ATOM     14  S   UNL d   1      32.409  16.075 -23.668  0.00  0.00     0.266 S 
ATOM     15  O   UNL d   1      32.397  16.528 -22.986  0.00  0.00    -0.203 OA
ATOM     16  O   UNL d   1      33.164  15.811 -23.478  0.00  0.00    -0.203 OA
ATOM     17  C   UNL d   1      32.410  15.604 -24.385  0.00  0.00     0.165 C 
ENDBRANCH   1  14
BRANCH   3  18
ATOM     18  C   UNL d   1      31.967  17.635 -24.495  0.00  0.00     0.048 A 
ATOM     19  S   UNL d   1      31.949  18.414 -24.299  0.00  0.00    -0.085 SA
ATOM     20  C   UNL d   1      32.578  18.805 -24.657  0.00  0.00     0.035 A 
ATOM     21  C   UNL d   1      32.990  18.262 -25.078  0.00  0.00     0.007 A 
ATOM     22  C   UNL d   1      32.621  17.541 -24.984  0.00  0.00     0.009 A 
ENDBRANCH   3  18
TORSDOF 4
ENDMDL
MODEL 5
REMARK VINA RESULT:      -1.4      2.731      4.947
REMARK  4 active torsions:
REMARK  status: ('A' for Active; 'I' for Inactive)
REMARK    1  A    between atoms: S_3  and  N_1 
REMARK    2  A    between atoms: C_7  and  C_4 
REMARK    3  A    between atoms: C_11  and  C_5 
REMARK    4  A    between atoms: O_21  and  C_18 
ROOT
ATOM      1  N   UNL d   1      32.612  21.075 -21.346  0.00  0.00    -0.155 N 
ATOM      2  N   UNL d   1      32.681  20.275 -21.513  0.00  0.00    -0.156 NA
ATOM      3  C   UNL d   1      32.716  21.498 -22.045  0.00  0.00     0.102 A 
ATOM      4  C   UNL d   1      32.828  20.174 -22.318  0.00  0.00     0.104 A 
ATOM      5  C   UNL d   1      32.848  20.956 -22.644  0.00  0.00     0.041 A 
ENDROOT
BRANCH   4   6
ATOM      6  C   UNL d   1      32.931  19.489 -22.711  0.00  0.00     0.020 A 
ATOM      7  C   UNL d   1      32.834  19.469 -23.562  0.00  0.00     0.004 A 
ATOM      8  C   UNL d   1      32.935  18.782 -23.974  0.00  0.00     0.024 A 
ATOM      9  C   UNL d   1      33.137  18.061 -23.592  0.00  0.00     0.094 A 
ATOM     10  C   UNL d   1      33.231  18.080 -22.767  0.00  0.00     0.024 A 
ATOM     11  C   UNL d   1      33.135  18.767 -22.320  0.00  0.00     0.004 A 
BRANCH   9  12
ATOM     12  O   UNL d   1      33.241  17.347 -24.030  0.00  0.00    -0.328 OA
ATOM     13  C   UNL d   1      33.175  16.626 -23.633  0.00  0.00     0.181 C 
ENDBRANCH   9  12
ENDBRANCH   4   6
BRANCH   1  14
ATOM     14  S   UNL d   1      32.460  21.394 -20.576  0.00  0.00     0.266 S 
ATOM     15  O   UNL d   1      33.240  21.632 -20.502  0.00  0.00    -0.203 OA
ATOM     16  O   UNL d   1      32.298  21.699 -19.830  0.00  0.00    -0.203 OA
ATOM     17  C   UNL d   1      31.645  21.140 -20.664  0.00  0.00     0.165 C 
ENDBRANCH   1  14
BRANCH   3  18
ATOM     18  C   UNL d   1      32.689  22.328 -22.121  0.00  0.00     0.048 A 
ATOM     19  S   UNL d   1      33.237  22.799 -22.474  0.00  0.00    -0.085 SA
ATOM     20  C   UNL d   1      32.998  23.585 -22.428  0.00  0.00     0.035 A 
ATOM     21  C   UNL d   1      32.296  23.601 -22.043  0.00  0.00     0.007 A 
ATOM     22  C   UNL d   1      32.099  22.833 -21.851  0.00  0.00     0.009 A 
ENDBRANCH   3  18
TORSDOF 4
ENDMDL
MODEL 6
REMARK VINA RESULT:      -0.2      5.242      7.602
REMARK  4 active torsions:
REMARK  status: ('A' for Active; 'I' for Inactive)
REMARK    1  A    between atoms: S_3  and  N_1 
REMARK    2  A    between atoms: C_7  and  C_4 
REMARK    3  A    between atoms: C_11  and  C_5 
REMARK    4  A    between atoms: O_21  and  C_18 
ROOT
ATOM      1  N   UNL d   1      32.095  18.259 -24.258  0.00  0.00    -0.155 N 
ATOM      2  N   UNL d   1      31.513  17.800 -24.608  0.00  0.00    -0.156 NA
ATOM      3  C   UNL d   1      32.020  18.195 -23.440  0.00  0.00     0.102 A 
ATOM      4  C   UNL d   1      31.059  17.437 -24.023  0.00  0.00     0.104 A 
ATOM      5  C   UNL d   1      31.391  17.696 -23.288  0.00  0.00     0.041 A 
ENDROOT
BRANCH   4   6
ATOM      6  C   UNL d   1      30.439  16.947 -24.124  0.00  0.00     0.020 A 
ATOM      7  C   UNL d   1      29.681  17.266 -24.365  0.00  0.00     0.004 A 
ATOM      8  C   UNL d   1      29.044  16.782 -24.471  0.00  0.00     0.024 A 
ATOM      9  C   UNL d   1      29.092  15.952 -24.351  0.00  0.00     0.094 A 
ATOM     10  C   UNL d   1      29.827  15.643 -24.117  0.00  0.00     0.024 A 
ATOM     11  C   UNL d   1      30.495  16.112 -24.001  0.00  0.00     0.004 A 
BRANCH   9  12
ATOM     12  O   UNL d   1      28.421  15.453 -24.464  0.00  0.00    -0.328 OA
ATOM     13  C   UNL d   1      27.745  15.588 -24.008  0.00  0.00     0.181 C 
ENDBRANCH   9  12
ENDBRANCH   4   6
BRANCH   1  14
ATOM     14  S   UNL d   1      32.668  18.716 -24.683  0.00  0.00     0.266 S 
ATOM     15  O   UNL d   1      33.224  18.119 -24.608  0.00  0.00    -0.203 OA
ATOM     16  O   UNL d   1      33.214  19.170 -25.097  0.00  0.00    -0.203 OA
ATOM     17  C   UNL d   1      32.078  19.334 -24.756  0.00  0.00     0.165 C 
ENDBRANCH   1  14
BRANCH   3  18
ATOM     18  C   UNL d   1      32.504  18.574 -22.876  0.00  0.00     0.048 A 
ATOM     19  S   UNL d   1      32.784  19.327 -22.908  0.00  0.00    -0.085 SA
ATOM     20  C   UNL d   1      33.240  19.483 -22.241  0.00  0.00     0.035 A 
ATOM     21  C   UNL d   1      33.241  18.820 -21.791  0.00  0.00     0.007 A 
ATOM     22  C   UNL d   1      32.791  18.257 -22.174  0.00  0.00     0.009 A 
ENDBRANCH   3  18
TORSDOF 4
ENDMDL
