MODEL 1
REMARK VINA RESULT:      35.5      0.000      0.000
REMARK  3 active torsions:
REMARK  status: ('A' for Active; 'I' for Inactive)
REMARK    1  A    between atoms: N_5  and  C_1 
REMARK    2  A    between atoms: C_10  and  C_2 
REMARK       I    between atoms: C_8  and  N_5 
REMARK    3  A    between atoms: C_7  and  C_8 
ROOT
ATOM      1  C   UNL d   1     -56.447 -99.336 -44.388  0.00  0.00     0.119 A 
ATOM      2  C   UNL d   1     -56.008-100.046 -44.382  0.00  0.00     0.084 A 
ATOM      3  S   UNL d   1     -56.017 -98.779 -44.813  0.00  0.00    -0.068 SA
ATOM      4  C   UNL d   1     -55.310 -99.919 -44.805  0.00  0.00     0.013 A 
ATOM      5  C   UNL d   1     -55.315 -99.130 -45.074  0.00  0.00     0.031 A 
ATOM      6  C   UNL d   1     -54.711-100.468 -44.941  0.00  0.00     0.001 C 
ATOM      7  C   UNL d   1     -54.723 -98.771 -45.519  0.00  0.00     0.007 C 
ENDROOT
BRANCH   1   8
ATOM      8  N   UNL d   1     -57.180 -99.219 -44.030  0.00  0.00    -0.201 NA
ATOM      9  C   UNL d   1     -57.847 -99.085 -44.501  0.00  0.00     0.286 C 
ATOM     10  O   UNL d   1     -57.792 -99.066 -45.315  0.00  0.00    -0.265 OA
BRANCH   9  11
ATOM     11  C   UNL d   1     -58.584 -98.967 -44.141  0.00  0.00     0.088 A 
ATOM     12  S   UNL d   1     -58.741 -98.949 -43.323  0.00  0.00    -0.075 SA
ATOM     13  C   UNL d   1     -59.556 -98.817 -43.215  0.00  0.00     0.064 A 
ATOM     14 BR   UNL d   1     -59.961 -98.757 -42.484  0.00  0.00    -0.042 Br
ATOM     15  C   UNL d   1     -59.889 -98.755 -43.967  0.00  0.00     0.014 A 
ATOM     16  C   UNL d   1     -59.299 -98.847 -44.530  0.00  0.00     0.012 A 
ENDBRANCH   9  11
ENDBRANCH   1   8
BRANCH   2  17
ATOM     17  C   UNL d   1     -56.234-100.750 -44.017  0.00  0.00     0.299 C 
ATOM     18  O   UNL d   1     -56.826-101.227 -44.362  0.00  0.00    -0.264 OA
ATOM     19  N   UNL d   1     -55.878-100.993 -43.305  0.00  0.00    -0.102 N 
ENDBRANCH   2  17
TORSDOF 3
ENDMDL
