MODEL 1
REMARK VINA RESULT:      72.0      0.000      0.000
REMARK  8 active torsions:
REMARK  status: ('A' for Active; 'I' for Inactive)
REMARK    1  A    between atoms: C_2  and  P_1 
REMARK    2  A    between atoms: O_4  and  P_1 
REMARK    3  A    between atoms: C_5  and  P_1 
REMARK    4  A    between atoms: C_3  and  C_2 
REMARK    5  A    between atoms: C_20  and  O_4 
REMARK    6  A    between atoms: O_19  and  C_8 
REMARK    7  A    between atoms: N_11  and  C_9 
REMARK    8  A    between atoms: O_21  and  C_10 
ROOT
ATOM      1  P   UNL d   1     -55.051-101.114 -43.378  0.00  0.00     0.307 P 
ATOM      2  O   UNL d   1     -54.809-101.878 -43.565  0.00  0.00    -0.277 OA
ENDROOT
BRANCH   1   3
ATOM      3  C   UNL d   1     -55.292-100.351 -43.191  0.00  0.00     0.253 C 
ATOM      4  O   UNL d   1     -54.996 -99.965 -42.517  0.00  0.00    -0.281 OA
BRANCH   3   5
ATOM      5  C   UNL d   1     -55.838 -99.952 -43.675  0.00  0.00     0.046 A 
ATOM      6  C   UNL d   1     -56.640 -99.954 -43.488  0.00  0.00     0.030 A 
ATOM      7  C   UNL d   1     -57.172 -99.560 -43.967  0.00  0.00     0.116 A 
ATOM      8  C   UNL d   1     -56.920 -99.153 -44.648  0.00  0.00     0.116 A 
ATOM      9  C   UNL d   1     -56.108 -99.151 -44.837  0.00  0.00     0.026 A 
ATOM     10  C   UNL d   1     -55.568 -99.552 -44.349  0.00  0.00     0.005 A 
BRANCH   7  11
ATOM     11  O   UNL d   1     -57.972 -99.564 -43.778  0.00  0.00    -0.326 OA
ATOM     12  C   UNL d   1     -58.303 -98.922 -43.379  0.00  0.00     0.181 C 
ENDBRANCH   7  11
BRANCH   8  13
ATOM     13  O   UNL d   1     -57.453 -98.757 -45.130  0.00  0.00    -0.326 OA
ATOM     14  C   UNL d   1     -58.251 -98.758 -44.929  0.00  0.00     0.181 C 
ENDBRANCH   8  13
ENDBRANCH   3   5
ENDBRANCH   1   3
BRANCH   1  15
ATOM     15  O   UNL d   1     -55.083-100.929 -44.179  0.00  0.00    -0.281 OA
BRANCH  15  16
ATOM     16  C   UNL d   1     -54.959-101.511 -44.743  0.00  0.00     0.101 A 
ATOM     17  C   UNL d   1     -54.953-101.312 -45.549  0.00  0.00     0.025 A 
ATOM     18  C   UNL d   1     -54.829-101.890 -46.113  0.00  0.00     0.002 A 
ATOM     19  C   UNL d   1     -54.711-102.671 -45.884  0.00  0.00     0.000 A 
ATOM     20  C   UNL d   1     -54.717-102.875 -45.087  0.00  0.00     0.002 A 
ATOM     21  C   UNL d   1     -54.842-102.288 -44.512  0.00  0.00     0.025 A 
ENDBRANCH  15  16
ENDBRANCH   1  15
BRANCH   1  22
ATOM     22  C   UNL d   1     -55.018-101.301 -42.570  0.00  0.00     0.061 A 
ATOM     23  C   UNL d   1     -54.746-100.740 -42.030  0.00  0.00     0.007 A 
ATOM     24  C   UNL d   1     -54.713-100.928 -41.218  0.00  0.00     0.018 A 
ATOM     25  C   UNL d   1     -54.950-101.668 -40.955  0.00  0.00     0.064 A 
ATOM     26  C   UNL d   1     -55.222-102.227 -41.503  0.00  0.00     0.018 A 
ATOM     27  C   UNL d   1     -55.256-102.039 -42.316  0.00  0.00     0.007 A 
BRANCH  25  28
ATOM     28  N   UNL d   1     -54.917-101.853 -40.151  0.00  0.00    -0.301 N 
ATOM     29  C   UNL d   1     -55.061-102.624 -39.900  0.00  0.00     0.100 C 
ATOM     30  C   UNL d   1     -54.740-101.264 -39.602  0.00  0.00     0.100 C 
ENDBRANCH  25  28
ENDBRANCH   1  22
TORSDOF 8
ENDMDL
