MODEL 1
REMARK VINA RESULT:      -2.5      0.000      0.000
REMARK  0 active torsions:
REMARK  status: ('A' for Active; 'I' for Inactive)
ROOT
ATOM      1  C   UNL d   1      33.029  20.429 -21.597  0.00  0.00     0.311 A 
ATOM      2  N   UNL d   1      32.570  20.714 -20.967  0.00  0.00    -0.202 NA
ATOM      3  S   UNL d   1      33.241  21.064 -22.075  0.00  0.00    -0.024 SA
ATOM      4  C   UNL d   1      32.500  21.538 -21.063  0.00  0.00     0.091 A 
ATOM      5  C   UNL d   1      32.913  21.753 -21.745  0.00  0.00     0.052 A 
ATOM      6  O   UNL d   1      33.239  19.634 -21.722  0.00  0.00    -0.258 OA
ATOM      7  C   UNL d   1      32.114  22.113 -20.615  0.00  0.00     0.020 A 
ATOM      8  C   UNL d   1      32.940  22.544 -21.979  0.00  0.00     0.008 A 
ATOM      9  C   UNL d   1      32.553  23.120 -21.531  0.00  0.00     0.001 A 
ATOM     10  C   UNL d   1      32.140  22.904 -20.849  0.00  0.00     0.002 A 
ENDROOT
TORSDOF 0
ENDMDL
MODEL 2
REMARK VINA RESULT:      -2.3      6.268      6.622
REMARK  0 active torsions:
REMARK  status: ('A' for Active; 'I' for Inactive)
ROOT
ATOM      1  C   UNL d   1      31.276  16.089 -23.749  0.00  0.00     0.311 A 
ATOM      2  N   UNL d   1      30.812  15.632 -23.234  0.00  0.00    -0.202 NA
ATOM      3  S   UNL d   1      30.776  16.566 -24.197  0.00  0.00    -0.024 SA
ATOM      4  C   UNL d   1      30.016  15.834 -23.369  0.00  0.00     0.091 A 
ATOM      5  C   UNL d   1      29.994  16.409 -23.962  0.00  0.00     0.052 A 
ATOM      6  O   UNL d   1      32.105  16.067 -23.802  0.00  0.00    -0.258 OA
ATOM      7  C   UNL d   1      29.315  15.566 -23.027  0.00  0.00     0.020 A 
ATOM      8  C   UNL d   1      29.271  16.715 -24.213  0.00  0.00     0.008 A 
ATOM      9  C   UNL d   1      28.569  16.448 -23.871  0.00  0.00     0.001 A 
ATOM     10  C   UNL d   1      28.591  15.873 -23.278  0.00  0.00     0.002 A 
ENDROOT
TORSDOF 0
ENDMDL
MODEL 3
REMARK VINA RESULT:      -2.3      6.272      6.684
REMARK  0 active torsions:
REMARK  status: ('A' for Active; 'I' for Inactive)
ROOT
ATOM      1  C   UNL d   1      29.235  17.471 -24.678  0.00  0.00     0.311 A 
ATOM      2  N   UNL d   1      30.064  17.448 -24.629  0.00  0.00    -0.202 NA
ATOM      3  S   UNL d   1      28.930  16.843 -24.242  0.00  0.00    -0.024 SA
ATOM      4  C   UNL d   1      30.267  16.795 -24.155  0.00  0.00     0.091 A 
ATOM      5  C   UNL d   1      29.570  16.422 -23.918  0.00  0.00     0.052 A 
ATOM      6  O   UNL d   1      28.791  18.035 -25.097  0.00  0.00    -0.258 OA
ATOM      7  C   UNL d   1      30.998  16.497 -23.914  0.00  0.00     0.020 A 
ATOM      8  C   UNL d   1      29.602  15.751 -23.439  0.00  0.00     0.008 A 
ATOM      9  C   UNL d   1      30.333  15.453 -23.197  0.00  0.00     0.001 A 
ATOM     10  C   UNL d   1      31.031  15.825 -23.435  0.00  0.00     0.002 A 
ENDROOT
TORSDOF 0
ENDMDL
MODEL 4
REMARK VINA RESULT:      -2.3      1.744      2.464
REMARK  0 active torsions:
REMARK  status: ('A' for Active; 'I' for Inactive)
ROOT
ATOM      1  C   UNL d   1      32.322  22.919 -20.848  0.00  0.00     0.311 A 
ATOM      2  N   UNL d   1      32.669  22.864 -21.601  0.00  0.00    -0.202 NA
ATOM      3  S   UNL d   1      32.260  22.162 -20.532  0.00  0.00    -0.024 SA
ATOM      4  C   UNL d   1      32.822  22.058 -21.746  0.00  0.00     0.091 A 
ATOM      5  C   UNL d   1      32.571  21.626 -21.088  0.00  0.00     0.052 A 
ATOM      6  O   UNL d   1      32.078  23.623 -20.479  0.00  0.00    -0.258 OA
ATOM      7  C   UNL d   1      33.157  21.670 -22.392  0.00  0.00     0.020 A 
ATOM      8  C   UNL d   1      32.654  20.806 -21.077  0.00  0.00     0.008 A 
ATOM      9  C   UNL d   1      32.989  20.417 -21.723  0.00  0.00     0.001 A 
ATOM     10  C   UNL d   1      33.241  20.849 -22.381  0.00  0.00     0.002 A 
ENDROOT
TORSDOF 0
ENDMDL
MODEL 5
REMARK VINA RESULT:      -2.3      2.423      2.800
REMARK  0 active torsions:
REMARK  status: ('A' for Active; 'I' for Inactive)
ROOT
ATOM      1  C   UNL d   1      33.012  23.236 -18.823  0.00  0.00     0.311 A 
ATOM      2  N   UNL d   1      32.540  23.684 -19.339  0.00  0.00    -0.202 NA
ATOM      3  S   UNL d   1      33.241  22.547 -19.210  0.00  0.00    -0.024 SA
ATOM      4  C   UNL d   1      32.480  23.260 -20.053  0.00  0.00     0.091 A 
ATOM      5  C   UNL d   1      32.912  22.560 -19.974  0.00  0.00     0.052 A 
ATOM      6  O   UNL d   1      33.216  23.450 -18.046  0.00  0.00    -0.258 OA
ATOM      7  C   UNL d   1      32.089  23.426 -20.760  0.00  0.00     0.020 A 
ATOM      8  C   UNL d   1      32.952  22.026 -20.601  0.00  0.00     0.008 A 
ATOM      9  C   UNL d   1      32.561  22.192 -21.309  0.00  0.00     0.001 A 
ATOM     10  C   UNL d   1      32.129  22.892 -21.389  0.00  0.00     0.002 A 
ENDROOT
TORSDOF 0
ENDMDL
MODEL 6
REMARK VINA RESULT:      -2.3      6.418      6.889
REMARK  0 active torsions:
REMARK  status: ('A' for Active; 'I' for Inactive)
ROOT
ATOM      1  C   UNL d   1      28.547  15.841 -23.641  0.00  0.00     0.311 A 
ATOM      2  N   UNL d   1      28.841  16.444 -24.131  0.00  0.00    -0.202 NA
ATOM      3  S   UNL d   1      29.180  15.494 -23.245  0.00  0.00    -0.024 SA
ATOM      4  C   UNL d   1      29.667  16.465 -24.033  0.00  0.00     0.091 A 
ATOM      5  C   UNL d   1      29.876  15.880 -23.488  0.00  0.00     0.052 A 
ATOM      6  O   UNL d   1      27.748  15.626 -23.564  0.00  0.00    -0.258 OA
ATOM      7  C   UNL d   1      30.249  16.941 -24.371  0.00  0.00     0.020 A 
ATOM      8  C   UNL d   1      30.667  15.773 -23.281  0.00  0.00     0.008 A 
ATOM      9  C   UNL d   1      31.250  16.249 -23.619  0.00  0.00     0.001 A 
ATOM     10  C   UNL d   1      31.041  16.834 -24.164  0.00  0.00     0.002 A 
ENDROOT
TORSDOF 0
ENDMDL
MODEL 7
REMARK VINA RESULT:      -2.1      5.538      6.034
REMARK  0 active torsions:
REMARK  status: ('A' for Active; 'I' for Inactive)
ROOT
ATOM      1  C   UNL d   1      29.587  16.618 -24.514  0.00  0.00     0.311 A 
ATOM      2  N   UNL d   1      30.070  16.151 -24.024  0.00  0.00    -0.202 NA
ATOM      3  S   UNL d   1      30.009  17.290 -24.732  0.00  0.00    -0.024 SA
ATOM      4  C   UNL d   1      30.798  16.546 -23.943  0.00  0.00     0.091 A 
ATOM      5  C   UNL d   1      30.760  17.247 -24.379  0.00  0.00     0.052 A 
ATOM      6  O   UNL d   1      28.810  16.434 -24.743  0.00  0.00    -0.258 OA
ATOM      7  C   UNL d   1      31.485  16.354 -23.528  0.00  0.00     0.020 A 
ATOM      8  C   UNL d   1      31.409  17.755 -24.400  0.00  0.00     0.008 A 
ATOM      9  C   UNL d   1      32.097  17.564 -23.985  0.00  0.00     0.001 A 
ATOM     10  C   UNL d   1      32.135  16.863 -23.549  0.00  0.00     0.002 A 
ENDROOT
TORSDOF 0
ENDMDL
MODEL 8
REMARK VINA RESULT:      -2.0      4.626      5.613
REMARK  0 active torsions:
REMARK  status: ('A' for Active; 'I' for Inactive)
ROOT
ATOM      1  C   UNL d   1      32.417  18.031 -24.010  0.00  0.00     0.311 A 
ATOM      2  N   UNL d   1      31.703  18.094 -24.431  0.00  0.00    -0.202 NA
ATOM      3  S   UNL d   1      32.407  17.328 -23.583  0.00  0.00    -0.024 SA
ATOM      4  C   UNL d   1      31.251  17.417 -24.258  0.00  0.00     0.091 A 
ATOM      5  C   UNL d   1      31.685  16.945 -23.736  0.00  0.00     0.052 A 
ATOM      6  O   UNL d   1      33.034  18.587 -24.020  0.00  0.00    -0.258 OA
ATOM      7  C   UNL d   1      30.504  17.175 -24.510  0.00  0.00     0.020 A 
ATOM      8  C   UNL d   1      31.371  16.232 -23.467  0.00  0.00     0.008 A 
ATOM      9  C   UNL d   1      30.623  15.989 -23.719  0.00  0.00     0.001 A 
ATOM     10  C   UNL d   1      30.190  16.461 -24.241  0.00  0.00     0.002 A 
ENDROOT
TORSDOF 0
ENDMDL
MODEL 9
REMARK VINA RESULT:      -1.8      1.224      1.523
REMARK  0 active torsions:
REMARK  status: ('A' for Active; 'I' for Inactive)
ROOT
ATOM      1  C   UNL d   1      32.841  21.804 -21.766  0.00  0.00     0.311 A 
ATOM      2  N   UNL d   1      33.095  21.612 -20.998  0.00  0.00    -0.202 NA
ATOM      3  S   UNL d   1      32.512  22.558 -21.751  0.00  0.00    -0.024 SA
ATOM      4  C   UNL d   1      32.917  22.261 -20.508  0.00  0.00     0.091 A 
ATOM      5  C   UNL d   1      32.558  22.843 -20.971  0.00  0.00     0.052 A 
ATOM      6  O   UNL d   1      32.910  21.315 -22.434  0.00  0.00    -0.258 OA
ATOM      7  C   UNL d   1      33.037  22.390 -19.702  0.00  0.00     0.020 A 
ATOM      8  C   UNL d   1      32.319  23.554 -20.629  0.00  0.00     0.008 A 
ATOM      9  C   UNL d   1      32.440  23.684 -19.822  0.00  0.00     0.001 A 
ATOM     10  C   UNL d   1      32.798  23.102 -19.359  0.00  0.00     0.002 A 
ENDROOT
TORSDOF 0
ENDMDL
