MODEL 1
REMARK VINA RESULT:      48.0      0.000      0.000
REMARK  4 active torsions:
REMARK  status: ('A' for Active; 'I' for Inactive)
REMARK    1  A    between atoms: C_7  and  C_3 
REMARK       I    between atoms: N_13  and  C_7 
REMARK    2  A    between atoms: C_14  and  N_13 
REMARK    3  A    between atoms: C_16  and  C_14 
REMARK    4  A    between atoms: C_15  and  C_16 
ROOT
ATOM      1  C   UNL d   1      59.515  49.645  49.986  0.00  0.00     0.285 C 
ATOM      2  O   UNL d   1      60.043  49.676  49.366  0.00  0.00    -0.265 OA
ATOM      3  N   UNL d   1      59.787  49.623  50.761  0.00  0.00    -0.206 NA
ENDROOT
BRANCH   1   4
ATOM      4  C   UNL d   1      58.700  49.634  49.844  0.00  0.00     0.133 A 
ATOM      5  C   UNL d   1      58.179  49.657  50.484  0.00  0.00     0.272 A 
ATOM      6  N   UNL d   1      57.360  49.647  50.356  0.00  0.00    -0.265 N 
ATOM      7  O   UNL d   1      58.465  49.690  51.255  0.00  0.00    -0.266 OA
ATOM      8  C   UNL d   1      57.074  49.614  49.585  0.00  0.00     0.181 A 
ATOM      9  C   UNL d   1      56.724  49.664  50.866  0.00  0.00     0.123 A 
ATOM     10  N   UNL d   1      57.591  49.591  48.948  0.00  0.00    -0.220 NA
ATOM     11  S   UNL d   1      56.251  49.610  49.619  0.00  0.00    -0.049 SA
ATOM     12  C   UNL d   1      58.406  49.601  49.076  0.00  0.00     0.111 A 
ATOM     13  C   UNL d   1      56.036  49.642  50.422  0.00  0.00     0.043 A 
ENDBRANCH   1   4
BRANCH   3  14
ATOM     14  C   UNL d   1      60.594  49.633  50.913  0.00  0.00     0.102 C 
BRANCH  14  15
ATOM     15  C   UNL d   1      60.959  49.012  51.316  0.00  0.00     0.021 C 
BRANCH  15  16
ATOM     16  C   UNL d   1      61.322  49.146  52.048  0.00  0.00     0.002 A 
ATOM     17  C   UNL d   1      62.034  49.564  52.082  0.00  0.00     0.000 A 
ATOM     18  C   UNL d   1      62.392  49.696  52.806  0.00  0.00     0.000 A 
ATOM     19  C   UNL d   1      62.043  49.413  53.510  0.00  0.00     0.000 A 
ATOM     20  C   UNL d   1      61.336  48.999  53.466  0.00  0.00     0.000 A 
ATOM     21  C   UNL d   1      60.970  48.862  52.742  0.00  0.00     0.000 A 
ENDBRANCH  15  16
ENDBRANCH  14  15
ENDBRANCH   3  14
TORSDOF 4
ENDMDL
