MODEL 1
REMARK VINA RESULT:      29.9      0.000      0.000
REMARK  4 active torsions:
REMARK  status: ('A' for Active; 'I' for Inactive)
REMARK    1  A    between atoms: C_5  and  C_1 
REMARK       I    between atoms: N_8  and  C_5 
REMARK    2  A    between atoms: C_10  and  N_8 
REMARK    3  A    between atoms: C_13  and  C_10 
REMARK    4  A    between atoms: C_11  and  C_13 
ROOT
ATOM      1  C   UNL d   1      58.886  49.666  51.318  0.00  0.00     0.299 C 
ATOM      2  O   UNL d   1      58.949  49.626  52.134  0.00  0.00    -0.263 OA
ATOM      3  N   UNL d   1      58.141  49.694  50.962  0.00  0.00    -0.205 NA
ENDROOT
BRANCH   1   4
ATOM      4  C   UNL d   1      59.567  49.677  50.850  0.00  0.00     0.162 A 
ATOM      5  N   UNL d   1      59.582  49.682  50.032  0.00  0.00    -0.143 NA
ATOM      6  N   UNL d   1      60.376  49.694  49.785  0.00  0.00    -0.148 NA
ATOM      7  C   UNL d   1      60.845  49.696  50.474  0.00  0.00     0.105 A 
ATOM      8  C   UNL d   1      60.342  49.686  51.129  0.00  0.00     0.044 A 
ATOM      9  C   UNL d   1      61.653  49.706  50.575  0.00  0.00     0.021 A 
ATOM     10  C   UNL d   1      60.665  49.686  51.884  0.00  0.00     0.003 A 
ATOM     11  C   UNL d   1      61.469  49.696  51.985  0.00  0.00     0.000 A 
ATOM     12  C   UNL d   1      61.964  49.706  51.335  0.00  0.00     0.002 A 
ENDBRANCH   1   4
BRANCH   3  13
ATOM     13  C   UNL d   1      57.460  49.683  51.430  0.00  0.00     0.102 C 
BRANCH  13  14
ATOM     14  C   UNL d   1      56.718  49.614  51.067  0.00  0.00     0.021 C 
BRANCH  14  15
ATOM     15  C   UNL d   1      56.667  49.240  50.327  0.00  0.00     0.002 A 
ATOM     16  C   UNL d   1      56.617  49.707  49.643  0.00  0.00     0.000 A 
ATOM     17  C   UNL d   1      56.566  49.332  48.904  0.00  0.00     0.000 A 
ATOM     18  C   UNL d   1      56.565  48.515  48.851  0.00  0.00     0.000 A 
ATOM     19  C   UNL d   1      56.614  48.065  49.536  0.00  0.00     0.000 A 
ATOM     20  C   UNL d   1      56.665  48.415  50.266  0.00  0.00     0.000 A 
ENDBRANCH  14  15
ENDBRANCH  13  14
ENDBRANCH   3  13
TORSDOF 4
ENDMDL
