MODEL 1
REMARK VINA RESULT:      66.5      0.000      0.000
REMARK  3 active torsions:
REMARK  status: ('A' for Active; 'I' for Inactive)
REMARK    1  A    between atoms: S_2  and  N_1 
REMARK    2  A    between atoms: C_8  and  S_2 
REMARK       I    between atoms: C_14  and  N_15 
REMARK    3  A    between atoms: N_15  and  C_19 
ROOT
ATOM      1  S   UNL d   1     -58.420 -98.988 -43.799  0.00  0.00     0.273 S 
ATOM      2  O   UNL d   1     -58.022 -98.757 -43.114  0.00  0.00    -0.200 OA
ATOM      3  O   UNL d   1     -59.196 -99.255 -43.753  0.00  0.00    -0.200 OA
ENDROOT
BRANCH   1   4
ATOM      4  N   UNL d   1     -58.045 -98.953 -44.531  0.00  0.00    -0.212 N 
ATOM      5  C   UNL d   1     -57.222 -98.930 -44.580  0.00  0.00     0.094 A 
ATOM      6  C   UNL d   1     -56.853 -98.895 -45.319  0.00  0.00     0.100 A 
ATOM      7  C   UNL d   1     -56.763 -98.942 -43.890  0.00  0.00     0.020 A 
ATOM      8  C   UNL d   1     -56.022 -98.872 -45.373  0.00  0.00     0.021 A 
ATOM      9  N   UNL d   1     -58.132 -98.906 -45.967  0.00  0.00    -0.223 NA
ATOM     10  C   UNL d   1     -55.562 -98.884 -44.674  0.00  0.00     0.002 A 
ATOM     11  C   UNL d   1     -55.939 -98.919 -43.939  0.00  0.00     0.002 A 
ATOM     12  C   UNL d   1     -54.744 -98.861 -44.720  0.00  0.00     0.000 C 
ATOM     13  C   UNL d   1     -55.494 -98.932 -43.247  0.00  0.00     0.000 C 
ATOM     14  C   UNL d   1     -58.503 -98.941 -45.225  0.00  0.00     0.193 A 
ENDBRANCH   1   4
BRANCH   1  15
ATOM     15  C   UNL d   1     -58.808 -99.029 -43.074  0.00  0.00     0.104 A 
ATOM     16  C   UNL d   1     -59.573 -99.316 -43.030  0.00  0.00     0.014 A 
ATOM     17  C   UNL d   1     -59.958 -99.356 -42.303  0.00  0.00     0.020 A 
ATOM     18  C   UNL d   1     -59.570 -99.104 -41.617  0.00  0.00     0.085 A 
ATOM     19  C   UNL d   1     -58.800 -98.815 -41.670  0.00  0.00     0.020 A 
ATOM     20  C   UNL d   1     -58.415 -98.775 -42.390  0.00  0.00     0.014 A 
BRANCH  18  21
ATOM     21  N   UNL d   1     -59.960 -99.146 -40.898  0.00  0.00    -0.208 NA
ATOM     22  C   UNL d   1     -59.541 -99.008 -40.202  0.00  0.00     0.279 C 
ATOM     23  O   UNL d   1     -59.922 -99.048 -39.474  0.00  0.00    -0.265 OA
ATOM     24  C   UNL d   1     -58.737 -98.830 -40.228  0.00  0.00     0.068 C 
ENDBRANCH  18  21
ENDBRANCH   1  15
TORSDOF 3
ENDMDL
