MODEL 1
REMARK VINA RESULT:      -5.8      0.000      0.000
REMARK  1 active torsions:
REMARK  status: ('A' for Active; 'I' for Inactive)
REMARK    1  A    between atoms: C_6  and  C_1 
ROOT
ATOM      1  C   UNL d   1     -41.825-122.343 -54.514  0.00  0.00     0.128 A 
ATOM      2  C   UNL d   1     -41.597-123.135 -54.552  0.00  0.00     0.306 A 
ATOM      3  C   UNL d   1     -41.821-121.943 -53.783  0.00  0.00     0.013 A 
ATOM      4  O   UNL d   1     -41.363-123.531 -53.860  0.00  0.00    -0.273 OA
ATOM      5  C   UNL d   1     -41.588-122.343 -53.101  0.00  0.00     0.023 A 
ATOM      6  C   UNL d   1     -41.359-123.135 -53.139  0.00  0.00     0.103 A 
ATOM      7  O   UNL d   1     -41.600-123.532 -55.273  0.00  0.00    -0.259 OA
ATOM      8  C   UNL d   1     -41.584-121.948 -52.378  0.00  0.00     0.002 A 
ATOM      9  C   UNL d   1     -41.126-123.531 -52.455  0.00  0.00     0.025 A 
ATOM     10  C   UNL d   1     -41.351-122.343 -51.695  0.00  0.00     0.000 A 
ATOM     11  C   UNL d   1     -41.123-123.134 -51.733  0.00  0.00     0.002 A 
ATOM     12  C   UNL d   1     -41.347-121.947 -50.973  0.00  0.00     0.000 C 
ENDROOT
BRANCH   1  13
ATOM     13  C   UNL d   1     -42.058-121.948 -55.202  0.00  0.00     0.216 C 
ATOM     14  O   UNL d   1     -42.854-121.937 -55.420  0.00  0.00    -0.644 OA
ATOM     15  O   UNL d   1     -41.498-121.567 -55.668  0.00  0.00    -0.644 OA
ENDBRANCH   1  13
TORSDOF 1
ENDMDL
MODEL 2
REMARK VINA RESULT:      -5.7      1.504      3.071
REMARK  1 active torsions:
REMARK  status: ('A' for Active; 'I' for Inactive)
REMARK    1  A    between atoms: C_6  and  C_1 
ROOT
ATOM      1  C   UNL d   1     -41.602-122.353 -52.022  0.00  0.00     0.128 A 
ATOM      2  C   UNL d   1     -41.316-123.126 -52.048  0.00  0.00     0.306 A 
ATOM      3  C   UNL d   1     -41.797-121.956 -52.728  0.00  0.00     0.013 A 
ATOM      4  O   UNL d   1     -41.223-123.508 -52.781  0.00  0.00    -0.273 OA
ATOM      5  C   UNL d   1     -41.703-122.342 -53.451  0.00  0.00     0.023 A 
ATOM      6  C   UNL d   1     -41.416-123.115 -53.478  0.00  0.00     0.103 A 
ATOM      7  O   UNL d   1     -41.123-123.519 -51.351  0.00  0.00    -0.259 OA
ATOM      8  C   UNL d   1     -41.896-121.950 -54.150  0.00  0.00     0.002 A 
ATOM      9  C   UNL d   1     -41.323-123.497 -54.202  0.00  0.00     0.025 A 
ATOM     10  C   UNL d   1     -41.803-122.331 -54.873  0.00  0.00     0.000 A 
ATOM     11  C   UNL d   1     -41.517-123.104 -54.899  0.00  0.00     0.002 A 
ATOM     12  C   UNL d   1     -41.996-121.939 -55.571  0.00  0.00     0.000 C 
ENDROOT
BRANCH   1  13
ATOM     13  C   UNL d   1     -41.694-121.972 -51.294  0.00  0.00     0.216 C 
ATOM     14  O   UNL d   1     -41.127-121.431 -51.038  0.00  0.00    -0.644 OA
ATOM     15  O   UNL d   1     -42.351-122.134 -50.825  0.00  0.00    -0.644 OA
ENDBRANCH   1  13
TORSDOF 1
ENDMDL
MODEL 3
REMARK VINA RESULT:      -4.4      3.055      4.443
REMARK  1 active torsions:
REMARK  status: ('A' for Active; 'I' for Inactive)
REMARK    1  A    between atoms: C_6  and  C_1 
ROOT
ATOM      1  C   UNL d   1     -41.842-122.724 -50.332  0.00  0.00     0.128 A 
ATOM      2  C   UNL d   1     -42.620-122.491 -50.190  0.00  0.00     0.306 A 
ATOM      3  C   UNL d   1     -41.382-123.039 -49.713  0.00  0.00     0.013 A 
ATOM      4  O   UNL d   1     -42.943-122.571 -49.429  0.00  0.00    -0.273 OA
ATOM      5  C   UNL d   1     -41.709-123.116 -48.960  0.00  0.00     0.023 A 
ATOM      6  C   UNL d   1     -42.488-122.883 -48.818  0.00  0.00     0.103 A 
ATOM      7  O   UNL d   1     -43.076-122.179 -50.801  0.00  0.00    -0.259 OA
ATOM      8  C   UNL d   1     -41.255-123.428 -48.348  0.00  0.00     0.002 A 
ATOM      9  C   UNL d   1     -42.812-122.961 -48.065  0.00  0.00     0.025 A 
ATOM     10  C   UNL d   1     -41.578-123.506 -47.596  0.00  0.00     0.000 A 
ATOM     11  C   UNL d   1     -42.356-123.272 -47.454  0.00  0.00     0.002 A 
ATOM     12  C   UNL d   1     -41.123-123.817 -46.984  0.00  0.00     0.000 C 
ENDROOT
BRANCH   1  13
ATOM     13  C   UNL d   1     -41.519-122.645 -51.089  0.00  0.00     0.216 C 
ATOM     14  O   UNL d   1     -41.159-121.936 -51.310  0.00  0.00    -0.644 OA
ATOM     15  O   UNL d   1     -41.557-123.271 -51.621  0.00  0.00    -0.644 OA
ENDBRANCH   1  13
TORSDOF 1
ENDMDL
MODEL 4
REMARK VINA RESULT:      -4.3      2.030      3.649
REMARK  1 active torsions:
REMARK  status: ('A' for Active; 'I' for Inactive)
REMARK    1  A    between atoms: C_6  and  C_1 
ROOT
ATOM      1  C   UNL d   1     -41.737-123.220 -51.019  0.00  0.00     0.128 A 
ATOM      2  C   UNL d   1     -41.686-122.398 -51.054  0.00  0.00     0.306 A 
ATOM      3  C   UNL d   1     -41.633-123.674 -51.710  0.00  0.00     0.013 A 
ATOM      4  O   UNL d   1     -41.531-122.023 -51.779  0.00  0.00    -0.273 OA
ATOM      5  C   UNL d   1     -41.480-123.295 -52.427  0.00  0.00     0.023 A 
ATOM      6  C   UNL d   1     -41.429-122.472 -52.461  0.00  0.00     0.103 A 
ATOM      7  O   UNL d   1     -41.788-121.949 -50.371  0.00  0.00    -0.259 OA
ATOM      8  C   UNL d   1     -41.378-123.743 -53.110  0.00  0.00     0.002 A 
ATOM      9  C   UNL d   1     -41.276-122.098 -53.179  0.00  0.00     0.025 A 
ATOM     10  C   UNL d   1     -41.225-123.369 -53.827  0.00  0.00     0.000 A 
ATOM     11  C   UNL d   1     -41.174-122.547 -53.861  0.00  0.00     0.002 A 
ATOM     12  C   UNL d   1     -41.123-123.817 -54.510  0.00  0.00     0.000 C 
ENDROOT
BRANCH   1  13
ATOM     13  C   UNL d   1     -41.891-123.594 -50.298  0.00  0.00     0.216 C 
ATOM     14  O   UNL d   1     -42.669-123.745 -50.071  0.00  0.00    -0.644 OA
ATOM     15  O   UNL d   1     -41.268-123.814 -49.807  0.00  0.00    -0.644 OA
ENDBRANCH   1  13
TORSDOF 1
ENDMDL
