MODEL 1
REMARK VINA RESULT:      34.7      0.000      0.000
REMARK  5 active torsions:
REMARK  status: ('A' for Active; 'I' for Inactive)
REMARK    1  A    between atoms: C_9  and  C_1 
REMARK    2  A    between atoms: N_4  and  C_2 
REMARK    3  A    between atoms: C_8  and  C_3 
REMARK       I    between atoms: C_7  and  N_4 
REMARK    4  A    between atoms: C_10  and  C_7 
REMARK    5  A    between atoms: O_18  and  C_9 
ROOT
ATOM      1  C   UNL d   1      14.154  13.249  -2.014  0.00  0.00     0.088 A 
ATOM      2  C   UNL d   1      13.652  13.292  -2.659  0.00  0.00     0.119 A 
ATOM      3  C   UNL d   1      14.154  12.448  -1.775  0.00  0.00     0.020 A 
ATOM      4  S   UNL d   1      13.339  12.600  -2.848  0.00  0.00    -0.067 SA
ATOM      5  C   UNL d   1      13.646  12.033  -2.291  0.00  0.00     0.038 A 
ENDROOT
BRANCH   2   6
ATOM      6  N   UNL d   1      13.461  14.012  -3.115  0.00  0.00    -0.201 NA
ATOM      7  C   UNL d   1      13.280  13.940  -3.944  0.00  0.00     0.281 C 
ATOM      8  O   UNL d   1      13.100  14.639  -4.362  0.00  0.00    -0.265 OA
BRANCH   7   9
ATOM      9  C   UNL d   1      13.277  13.237  -4.325  0.00  0.00     0.077 A 
ATOM     10  C   UNL d   1      13.776  13.125  -4.952  0.00  0.00     0.104 A 
ATOM     11  N   UNL d   1      13.797  12.414  -5.364  0.00  0.00    -0.242 NA
ATOM     12  C   UNL d   1      13.293  11.787  -5.135  0.00  0.00     0.099 A 
ATOM     13  C   UNL d   1      12.779  11.905  -4.487  0.00  0.00     0.021 A 
ATOM     14  C   UNL d   1      12.771  12.618  -4.089  0.00  0.00     0.008 A 
ENDBRANCH   7   9
ENDBRANCH   2   6
BRANCH   1  15
ATOM     15  C   UNL d   1      14.585  13.871  -1.657  0.00  0.00     0.298 C 
ATOM     16  O   UNL d   1      15.173  14.281  -2.099  0.00  0.00    -0.259 OA
BRANCH  15  17
ATOM     17  O   UNL d   1      14.424  14.072  -0.873  0.00  0.00    -0.296 OA
ATOM     18  C   UNL d   1      14.406  14.881  -0.644  0.00  0.00     0.185 C 
ENDBRANCH  15  17
ENDBRANCH   1  15
BRANCH   3  19
ATOM     19  C   UNL d   1      14.607  12.197  -1.129  0.00  0.00     0.030 A 
ATOM     20  S   UNL d   1      14.659  12.038  -0.337  0.00  0.00    -0.086 SA
ATOM     21  C   UNL d   1      15.422  11.787  -0.204  0.00  0.00     0.035 A 
ATOM     22  C   UNL d   1      15.838  11.787  -0.894  0.00  0.00     0.007 A 
ATOM     23  C   UNL d   1      15.322  12.047  -1.482  0.00  0.00     0.007 A 
ENDBRANCH   3  19
TORSDOF 5
ENDMDL
MODEL 2
REMARK VINA RESULT:      35.8      1.657      4.171
REMARK  5 active torsions:
REMARK  status: ('A' for Active; 'I' for Inactive)
REMARK    1  A    between atoms: C_9  and  C_1 
REMARK    2  A    between atoms: N_4  and  C_2 
REMARK    3  A    between atoms: C_8  and  C_3 
REMARK       I    between atoms: C_7  and  N_4 
REMARK    4  A    between atoms: C_10  and  C_7 
REMARK    5  A    between atoms: O_18  and  C_9 
ROOT
ATOM      1  C   UNL d   1      13.795  12.974  -2.920  0.00  0.00     0.088 A 
ATOM      2  C   UNL d   1      14.121  12.994  -2.171  0.00  0.00     0.119 A 
ATOM      3  C   UNL d   1      13.829  13.758  -3.210  0.00  0.00     0.020 A 
ATOM      4  S   UNL d   1      14.356  13.711  -1.961  0.00  0.00    -0.067 SA
ATOM      5  C   UNL d   1      14.179  14.227  -2.615  0.00  0.00     0.038 A 
ENDROOT
BRANCH   2   6
ATOM      6  N   UNL d   1      14.216  12.314  -1.632  0.00  0.00    -0.201 NA
ATOM      7  C   UNL d   1      14.532  12.446  -0.852  0.00  0.00     0.281 C 
ATOM      8  O   UNL d   1      14.615  11.783  -0.352  0.00  0.00    -0.265 OA
BRANCH   7   9
ATOM      9  C   UNL d   1      14.749  13.170  -0.591  0.00  0.00     0.077 A 
ATOM     10  C   UNL d   1      14.178  13.689  -0.349  0.00  0.00     0.104 A 
ATOM     11  N   UNL d   1      14.367  14.441  -0.075  0.00  0.00    -0.242 NA
ATOM     12  C   UNL d   1      15.168  14.681  -0.045  0.00  0.00     0.099 A 
ATOM     13  C   UNL d   1      15.756  14.142  -0.296  0.00  0.00     0.021 A 
ATOM     14  C   UNL d   1      15.549  13.400  -0.565  0.00  0.00     0.008 A 
ENDBRANCH   7   9
ENDBRANCH   2   6
BRANCH   1  15
ATOM     15  C   UNL d   1      13.486  12.311  -3.327  0.00  0.00     0.298 C 
ATOM     16  O   UNL d   1      12.951  11.791  -2.937  0.00  0.00    -0.259 OA
BRANCH  15  17
ATOM     17  O   UNL d   1      13.713  12.179  -4.110  0.00  0.00    -0.296 OA
ATOM     18  C   UNL d   1      13.161  11.858  -4.657  0.00  0.00     0.185 C 
ENDBRANCH  15  17
ENDBRANCH   1  15
BRANCH   3  19
ATOM     19  C   UNL d   1      13.544  13.947  -3.963  0.00  0.00     0.030 A 
ATOM     20  S   UNL d   1      13.506  13.780  -4.754  0.00  0.00    -0.086 SA
ATOM     21  C   UNL d   1      13.030  14.350  -5.087  0.00  0.00     0.035 A 
ATOM     22  C   UNL d   1      12.775  14.862  -4.520  0.00  0.00     0.007 A 
ATOM     23  C   UNL d   1      13.100  14.608  -3.806  0.00  0.00     0.007 A 
ENDBRANCH   3  19
TORSDOF 5
ENDMDL
MODEL 3
REMARK VINA RESULT:      36.9      1.414      2.273
REMARK  5 active torsions:
REMARK  status: ('A' for Active; 'I' for Inactive)
REMARK    1  A    between atoms: C_9  and  C_1 
REMARK    2  A    between atoms: N_4  and  C_2 
REMARK    3  A    between atoms: C_8  and  C_3 
REMARK       I    between atoms: C_7  and  N_4 
REMARK    4  A    between atoms: C_10  and  C_7 
REMARK    5  A    between atoms: O_18  and  C_9 
ROOT
ATOM      1  C   UNL d   1      14.480  13.410  -1.711  0.00  0.00     0.088 A 
ATOM      2  C   UNL d   1      14.052  13.305  -2.401  0.00  0.00     0.119 A 
ATOM      3  C   UNL d   1      14.583  14.235  -1.626  0.00  0.00     0.020 A 
ATOM      4  S   UNL d   1      13.878  13.980  -2.757  0.00  0.00    -0.067 SA
ATOM      5  C   UNL d   1      14.210  14.601  -2.277  0.00  0.00     0.038 A 
ENDROOT
BRANCH   2   6
ATOM      6  N   UNL d   1      13.799  12.541  -2.738  0.00  0.00    -0.201 NA
ATOM      7  C   UNL d   1      13.491  12.521  -3.532  0.00  0.00     0.281 C 
ATOM      8  O   UNL d   1      13.254  11.781  -3.836  0.00  0.00    -0.265 OA
BRANCH   7   9
ATOM      9  C   UNL d   1      13.424  13.177  -3.984  0.00  0.00     0.077 A 
ATOM     10  C   UNL d   1      12.865  13.731  -3.797  0.00  0.00     0.104 A 
ATOM     11  N   UNL d   1      12.771  14.416  -4.242  0.00  0.00    -0.242 NA
ATOM     12  C   UNL d   1      13.261  14.549  -4.907  0.00  0.00     0.099 A 
ATOM     13  C   UNL d   1      13.838  13.974  -5.098  0.00  0.00     0.021 A 
ATOM     14  C   UNL d   1      13.917  13.300  -4.645  0.00  0.00     0.008 A 
ENDBRANCH   7   9
ENDBRANCH   2   6
BRANCH   1  15
ATOM     15  C   UNL d   1      14.761  12.821  -1.188  0.00  0.00     0.298 C 
ATOM     16  O   UNL d   1      15.567  12.578  -1.225  0.00  0.00    -0.259 OA
BRANCH  15  17
ATOM     17  O   UNL d   1      14.241  12.487  -0.641  0.00  0.00    -0.296 OA
ATOM     18  C   UNL d   1      14.457  11.783  -0.235  0.00  0.00     0.185 C 
ENDBRANCH  15  17
ENDBRANCH   1  15
BRANCH   3  19
ATOM     19  C   UNL d   1      14.996  14.548  -0.982  0.00  0.00     0.030 A 
ATOM     20  S   UNL d   1      15.418  14.427  -0.301  0.00  0.00    -0.086 SA
ATOM     21  C   UNL d   1      15.617  15.165  -0.020  0.00  0.00     0.035 A 
ATOM     22  C   UNL d   1      15.328  15.734  -0.510  0.00  0.00     0.007 A 
ATOM     23  C   UNL d   1      14.934  15.345  -1.121  0.00  0.00     0.007 A 
ENDBRANCH   3  19
TORSDOF 5
ENDMDL
