MODEL 1
REMARK VINA RESULT:      -3.3      0.000      0.000
REMARK  4 active torsions:
REMARK  status: ('A' for Active; 'I' for Inactive)
REMARK    1  A    between atoms: C_3  and  C_1 
REMARK    2  A    between atoms: C_11  and  N_2 
REMARK    3  A    between atoms: C_12  and  C_11 
REMARK       I    between atoms: N_13  and  C_12 
REMARK    4  A    between atoms: C_16  and  N_13 
ROOT
ATOM      1  C   UNL d   1      59.264  -1.564  29.148  0.00  0.00     0.171 A 
ATOM      2  N   UNL d   1      59.076  -0.948  29.670  0.00  0.00    -0.284 N 
ATOM      3  N   UNL d   1      60.023  -1.418  28.849  0.00  0.00    -0.225 NA
ATOM      4  C   UNL d   1      59.715  -0.430  29.690  0.00  0.00     0.083 A 
ATOM      5  C   UNL d   1      60.299  -0.720  29.184  0.00  0.00     0.099 A 
ATOM      6  C   UNL d   1      59.847   0.291  30.116  0.00  0.00     0.019 A 
ATOM      7  C   UNL d   1      61.024  -0.294  29.096  0.00  0.00     0.021 A 
ATOM      8  C   UNL d   1      60.549   0.680  30.015  0.00  0.00     0.002 A 
ATOM      9  C   UNL d   1      61.132   0.390  29.509  0.00  0.00     0.002 A 
ENDROOT
BRANCH   2  10
ATOM     10  C   UNL d   1      58.371  -0.877  30.089  0.00  0.00     0.145 C 
BRANCH  10  11
ATOM     11  C   UNL d   1      57.886  -0.236  29.945  0.00  0.00     0.297 C 
ATOM     12  N   UNL d   1      57.342   0.009  30.519  0.00  0.00    -0.207 NA
ATOM     13  O   UNL d   1      57.928   0.181  29.227  0.00  0.00    -0.264 OA
BRANCH  12  14
ATOM     14  C   UNL d   1      57.111  -0.217  31.274  0.00  0.00     0.085 A 
ATOM     15  C   UNL d   1      57.188   0.229  31.967  0.00  0.00     0.019 A 
ATOM     16  C   UNL d   1      56.885  -0.212  32.589  0.00  0.00     0.002 A 
ATOM     17  C   UNL d   1      56.616  -0.934  32.301  0.00  0.00     0.002 A 
ATOM     18  C   UNL d   1      56.756  -0.931  31.497  0.00  0.00     0.019 A 
ENDBRANCH  12  14
ENDBRANCH  10  11
ENDBRANCH   2  10
BRANCH   1  19
ATOM     19  C   UNL d   1      58.777  -2.212  28.958  0.00  0.00     0.184 A 
ATOM     20  C   UNL d   1      58.924  -3.001  29.153  0.00  0.00     0.235 A 
ATOM     21  N   UNL d   1      58.298  -3.457  28.856  0.00  0.00    -0.081 NA
ATOM     22  N   UNL d   1      59.575  -3.289  29.568  0.00  0.00    -0.123 N 
ATOM     23  O   UNL d   1      57.769  -2.949  28.480  0.00  0.00    -0.104 OA
ATOM     24  N   UNL d   1      58.064  -2.176  28.542  0.00  0.00    -0.097 NA
ENDBRANCH   1  19
TORSDOF 4
ENDMDL
MODEL 2
REMARK VINA RESULT:      -2.6      1.250      3.685
REMARK  4 active torsions:
REMARK  status: ('A' for Active; 'I' for Inactive)
REMARK    1  A    between atoms: C_3  and  C_1 
REMARK    2  A    between atoms: C_11  and  N_2 
REMARK    3  A    between atoms: C_12  and  C_11 
REMARK       I    between atoms: N_13  and  C_12 
REMARK    4  A    between atoms: C_16  and  N_13 
ROOT
ATOM      1  C   UNL d   1      59.201   0.129  29.948  0.00  0.00     0.171 A 
ATOM      2  N   UNL d   1      58.775  -0.582  29.928  0.00  0.00    -0.284 N 
ATOM      3  N   UNL d   1      58.845   0.621  30.512  0.00  0.00    -0.225 NA
ATOM      4  C   UNL d   1      58.163  -0.525  30.475  0.00  0.00     0.083 A 
ATOM      5  C   UNL d   1      58.206   0.217  30.834  0.00  0.00     0.099 A 
ATOM      6  C   UNL d   1      57.551  -1.068  30.700  0.00  0.00     0.019 A 
ATOM      7  C   UNL d   1      57.639   0.427  31.425  0.00  0.00     0.021 A 
ATOM      8  C   UNL d   1      57.021  -0.843  31.268  0.00  0.00     0.002 A 
ATOM      9  C   UNL d   1      57.064  -0.101  31.627  0.00  0.00     0.002 A 
ENDROOT
BRANCH   2  10
ATOM     10  C   UNL d   1      58.944  -1.226  29.442  0.00  0.00     0.145 C 
BRANCH  10  11
ATOM     11  C   UNL d   1      58.437  -1.403  28.828  0.00  0.00     0.297 C 
ATOM     12  N   UNL d   1      58.453  -2.154  28.480  0.00  0.00    -0.207 NA
ATOM     13  O   UNL d   1      57.898  -0.838  28.540  0.00  0.00    -0.264 OA
BRANCH  12  14
ATOM     14  C   UNL d   1      58.867  -2.857  28.571  0.00  0.00     0.085 A 
ATOM     15  C   UNL d   1      58.543  -3.603  28.724  0.00  0.00     0.019 A 
ATOM     16  C   UNL d   1      59.159  -4.143  28.771  0.00  0.00     0.002 A 
ATOM     17  C   UNL d   1      59.871  -3.750  28.651  0.00  0.00     0.002 A 
ATOM     18  C   UNL d   1      59.687  -2.966  28.529  0.00  0.00     0.019 A 
ENDBRANCH  12  14
ENDBRANCH  10  11
ENDBRANCH   2  10
BRANCH   1  19
ATOM     19  C   UNL d   1      59.868   0.314  29.485  0.00  0.00     0.184 A 
ATOM     20  C   UNL d   1      60.653   0.291  29.738  0.00  0.00     0.235 A 
ATOM     21  N   UNL d   1      61.133   0.517  29.099  0.00  0.00    -0.081 NA
ATOM     22  N   UNL d   1      60.920   0.082  30.489  0.00  0.00    -0.123 N 
ATOM     23  O   UNL d   1      60.641   0.678  28.457  0.00  0.00    -0.104 OA
ATOM     24  N   UNL d   1      59.856   0.553  28.694  0.00  0.00    -0.097 NA
ENDBRANCH   1  19
TORSDOF 4
ENDMDL
