MODEL 1
REMARK VINA RESULT:       9.9      0.000      0.000
REMARK  2 active torsions:
REMARK  status: ('A' for Active; 'I' for Inactive)
REMARK    1  A    between atoms: C_6  and  C_3 
REMARK    2  A    between atoms: C_9  and  C_6 
ROOT
ATOM      1  N   UNL d   1      58.046  49.707  51.067  0.00  0.00    -0.225 NA
ATOM      2  N   UNL d   1      58.465  49.702  49.795  0.00  0.00    -0.225 NA
ATOM      3  C   UNL d   1      58.709  49.705  50.580  0.00  0.00     0.163 A 
ATOM      4  C   UNL d   1      57.397  49.705  50.592  0.00  0.00     0.101 A 
ATOM      5  C   UNL d   1      57.660  49.701  49.793  0.00  0.00     0.101 A 
ATOM      6  C   UNL d   1      56.600  49.705  50.754  0.00  0.00     0.021 A 
ATOM      7  C   UNL d   1      57.115  49.699  49.191  0.00  0.00     0.021 A 
ATOM      8  C   UNL d   1      56.034  49.702  50.143  0.00  0.00     0.002 A 
ATOM      9  C   UNL d   1      56.297  49.699  49.344  0.00  0.00     0.002 A 
ENDROOT
BRANCH   3  10
ATOM     10  C   UNL d   1      59.493  49.707  50.838  0.00  0.00     0.039 C 
BRANCH  10  11
ATOM     11  C   UNL d   1      60.111  49.672  50.301  0.00  0.00     0.003 C 
ATOM     12  C   UNL d   1      60.895  49.692  50.558  0.00  0.00     0.000 C 
ENDBRANCH  10  11
ENDBRANCH   3  10
TORSDOF 2
ENDMDL
MODEL 2
REMARK VINA RESULT:      11.0      0.579      3.266
REMARK  2 active torsions:
REMARK  status: ('A' for Active; 'I' for Inactive)
REMARK    1  A    between atoms: C_6  and  C_3 
REMARK    2  A    between atoms: C_9  and  C_6 
ROOT
ATOM      1  N   UNL d   1      58.700  49.707  50.175  0.00  0.00    -0.225 NA
ATOM      2  N   UNL d   1      58.585  49.708  51.509  0.00  0.00    -0.225 NA
ATOM      3  C   UNL d   1      58.166  49.707  50.802  0.00  0.00     0.163 A 
ATOM      4  C   UNL d   1      59.441  49.707  50.488  0.00  0.00     0.101 A 
ATOM      5  C   UNL d   1      59.369  49.708  51.326  0.00  0.00     0.101 A 
ATOM      6  C   UNL d   1      60.178  49.707  50.147  0.00  0.00     0.021 A 
ATOM      7  C   UNL d   1      60.038  49.708  51.787  0.00  0.00     0.021 A 
ATOM      8  C   UNL d   1      60.870  49.707  50.610  0.00  0.00     0.002 A 
ATOM      9  C   UNL d   1      60.798  49.708  51.448  0.00  0.00     0.002 A 
ENDROOT
BRANCH   3  10
ATOM     10  C   UNL d   1      57.344  49.707  50.731  0.00  0.00     0.039 C 
BRANCH  10  11
ATOM     11  C   UNL d   1      56.987  49.689  49.993  0.00  0.00     0.003 C 
ATOM     12  C   UNL d   1      56.166  49.637  49.923  0.00  0.00     0.000 C 
ENDBRANCH  10  11
ENDBRANCH   3  10
TORSDOF 2
ENDMDL
