MODEL 1
REMARK VINA RESULT:       3.8      0.000      0.000
REMARK  5 active torsions:
REMARK  status: ('A' for Active; 'I' for Inactive)
REMARK    1  A    between atoms: N_10  and  C_3 
REMARK    2  A    between atoms: C_11  and  C_5 
REMARK    3  A    between atoms: C_16  and  C_7 
REMARK    4  A    between atoms: C_15  and  N_10 
REMARK       I    between atoms: C_12  and  N_13 
REMARK    5  A    between atoms: N_13  and  C_17 
ROOT
ATOM      1  N   UNL d   1      57.832  -0.235  31.229  0.00  0.00    -0.184 N 
ATOM      2  C   UNL d   1      58.486  -0.249  30.727  0.00  0.00     0.168 A 
ATOM      3  C   UNL d   1      57.903   0.070  31.966  0.00  0.00     0.217 A 
ATOM      4  N   UNL d   1      57.063  -0.828  30.245  0.00  0.00    -0.162 NA
ATOM      5  C   UNL d   1      58.417  -0.549  30.000  0.00  0.00     0.055 A 
ATOM      6  N   UNL d   1      59.184   0.043  30.981  0.00  0.00    -0.227 NA
ATOM      7  C   UNL d   1      58.606   0.363  32.220  0.00  0.00     0.066 A 
ATOM      8  C   UNL d   1      57.707  -0.842  29.750  0.00  0.00     0.104 A 
ATOM      9  C   UNL d   1      59.260   0.349  31.717  0.00  0.00     0.087 A 
ATOM     10  C   UNL d   1      57.645  -1.145  29.012  0.00  0.00     0.023 C 
ATOM     11  C   UNL d   1      59.997   0.655  31.980  0.00  0.00     0.021 C 
ENDROOT
BRANCH   3  12
ATOM     12  N   UNL d   1      57.241   0.080  32.465  0.00  0.00    -0.383 NA
BRANCH  12  13
ATOM     13  C   UNL d   1      56.551   0.014  32.917  0.00  0.00     0.134 A 
ATOM     14  C   UNL d   1      56.058   0.670  33.015  0.00  0.00     0.034 A 
ATOM     15  C   UNL d   1      55.368   0.595  33.469  0.00  0.00     0.022 A 
ATOM     16  C   UNL d   1      55.174  -0.126  33.820  0.00  0.00     0.085 A 
ATOM     17  C   UNL d   1      55.665  -0.786  33.724  0.00  0.00     0.022 A 
ATOM     18  C   UNL d   1      56.361  -0.719  33.269  0.00  0.00     0.034 A 
BRANCH  16  19
ATOM     19  N   UNL d   1      54.478  -0.184  34.273  0.00  0.00    -0.208 NA
ATOM     20  C   UNL d   1      54.434   0.224  34.997  0.00  0.00     0.279 C 
ATOM     21  O   UNL d   1      53.755   0.175  35.450  0.00  0.00    -0.265 OA
ATOM     22  C   UNL d   1      55.068   0.680  35.265  0.00  0.00     0.068 C 
ENDBRANCH  16  19
ENDBRANCH  12  13
ENDBRANCH   3  12
BRANCH   7  23
ATOM     23  C   UNL d   1      58.696   0.682  32.981  0.00  0.00     0.006 C 
ATOM     24  C   UNL d   1      59.403   0.570  33.415  0.00  0.00     0.000 C 
ENDBRANCH   7  23
BRANCH   5  25
ATOM     25  C   UNL d   1      59.051  -0.562  29.512  0.00  0.00     0.004 A 
ATOM     26  C   UNL d   1      59.233   0.072  29.065  0.00  0.00     0.000 A 
ATOM     27  C   UNL d   1      59.876   0.059  28.570  0.00  0.00     0.000 A 
ATOM     28  C   UNL d   1      60.329  -0.589  28.530  0.00  0.00     0.000 A 
ATOM     29  C   UNL d   1      60.149  -1.235  28.980  0.00  0.00     0.000 A 
ATOM     30  C   UNL d   1      59.515  -1.222  29.468  0.00  0.00     0.000 A 
ENDBRANCH   5  25
TORSDOF 5
ENDMDL
