MODEL 1
REMARK VINA RESULT:      10.3      0.000      0.000
REMARK  4 active torsions:
REMARK  status: ('A' for Active; 'I' for Inactive)
REMARK    1  A    between atoms: C_6  and  C_1 
REMARK    2  A    between atoms: O_15  and  C_6 
REMARK    3  A    between atoms: C_7  and  C_8 
REMARK    4  A    between atoms: C_16  and  O_15 
ROOT
ATOM      1  C   UNL d   1      45.806 -16.364  44.370  0.00  0.00     0.145 A 
ATOM      2  N   UNL d   1      45.119 -16.058  44.693  0.00  0.00    -0.240 NA
ATOM      3  C   UNL d   1      46.305 -15.739  44.172  0.00  0.00     0.026 A 
ATOM      4  C   UNL d   1      45.923 -15.037  44.374  0.00  0.00     0.019 A 
ATOM      5  C   UNL d   1      45.182 -15.231  44.700  0.00  0.00     0.082 A 
ATOM      6  C   UNL d   1      45.634 -13.644  44.564  0.00  0.00     0.065 A 
ATOM      7  C   UNL d   1      46.150 -14.240  44.306  0.00  0.00     0.008 A 
ATOM      8  C   UNL d   1      44.673 -14.639  44.954  0.00  0.00     0.019 A 
ATOM      9  C   UNL d   1      44.898 -13.839  44.887  0.00  0.00     0.008 A 
ENDROOT
BRANCH   1  10
ATOM     10  C   UNL d   1      45.977 -17.163  44.259  0.00  0.00     0.318 C 
ATOM     11  O   UNL d   1      46.072 -17.663  44.905  0.00  0.00    -0.257 OA
BRANCH  10  12
ATOM     12  O   UNL d   1      46.055 -17.466  43.490  0.00  0.00    -0.270 OA
BRANCH  12  13
ATOM     13  C   UNL d   1      46.391 -18.206  43.375  0.00  0.00     0.126 C 
ATOM     14  C   UNL d   1      46.243 -18.631  42.685  0.00  0.00     0.029 C 
ENDBRANCH  12  13
ENDBRANCH  10  12
ENDBRANCH   1  10
BRANCH   6  15
ATOM     15  C   UNL d   1      45.857 -12.855  44.497  0.00  0.00     0.211 C 
ATOM     16  O   UNL d   1      45.460 -12.358  43.972  0.00  0.00    -0.644 OA
ATOM     17  O   UNL d   1      46.478 -12.558  44.955  0.00  0.00    -0.644 OA
ENDBRANCH   6  15
TORSDOF 4
ENDMDL
MODEL 2
REMARK VINA RESULT:      12.0      1.439      4.449
REMARK  4 active torsions:
REMARK  status: ('A' for Active; 'I' for Inactive)
REMARK    1  A    between atoms: C_6  and  C_1 
REMARK    2  A    between atoms: O_15  and  C_6 
REMARK    3  A    between atoms: C_7  and  C_8 
REMARK    4  A    between atoms: C_16  and  O_15 
ROOT
ATOM      1  C   UNL d   1      45.771 -16.465  44.319  0.00  0.00     0.145 A 
ATOM      2  N   UNL d   1      46.064 -17.052  44.809  0.00  0.00    -0.240 NA
ATOM      3  C   UNL d   1      45.738 -16.758  43.549  0.00  0.00     0.026 A 
ATOM      4  C   UNL d   1      46.012 -17.535  43.562  0.00  0.00     0.019 A 
ATOM      5  C   UNL d   1      46.217 -17.723  44.347  0.00  0.00     0.082 A 
ATOM      6  C   UNL d   1      46.401 -18.854  43.151  0.00  0.00     0.065 A 
ATOM      7  C   UNL d   1      46.105 -18.103  42.962  0.00  0.00     0.008 A 
ATOM      8  C   UNL d   1      46.510 -18.467  44.532  0.00  0.00     0.019 A 
ATOM      9  C   UNL d   1      46.604 -19.039  43.931  0.00  0.00     0.008 A 
ENDROOT
BRANCH   1  10
ATOM     10  C   UNL d   1      45.546 -15.706  44.550  0.00  0.00     0.318 C 
ATOM     11  O   UNL d   1      44.841 -15.585  44.954  0.00  0.00    -0.257 OA
BRANCH  10  12
ATOM     12  O   UNL d   1      46.035 -15.059  44.373  0.00  0.00    -0.270 OA
BRANCH  12  13
ATOM     13  C   UNL d   1      45.897 -14.333  44.732  0.00  0.00     0.126 C 
ATOM     14  C   UNL d   1      46.050 -13.630  44.330  0.00  0.00     0.029 C 
ENDBRANCH  12  13
ENDBRANCH  10  12
ENDBRANCH   1  10
BRANCH   6  15
ATOM     15  C   UNL d   1      46.493 -19.417  42.559  0.00  0.00     0.211 C 
ATOM     16  O   UNL d   1      46.588 -19.178  41.775  0.00  0.00    -0.644 OA
ATOM     17  O   UNL d   1      46.492 -20.221  42.746  0.00  0.00    -0.644 OA
ENDBRANCH   6  15
TORSDOF 4
ENDMDL
