MODEL 1
REMARK VINA RESULT:      -5.9      0.000      0.000
REMARK  1 active torsions:
REMARK  status: ('A' for Active; 'I' for Inactive)
REMARK    1  A    between atoms: C_7  and  C_6 
ROOT
ATOM      1  C   UNL d   1     -41.680-122.500 -53.687  0.00  0.00     0.045 A 
ATOM      2  C   UNL d   1     -41.873-121.929 -53.123  0.00  0.00     0.196 A 
ATOM      3  C   UNL d   1     -41.367-123.163 -53.308  0.00  0.00     0.003 A 
ATOM      4  C   UNL d   1     -41.676-122.246 -52.384  0.00  0.00     0.039 A 
ATOM      5  C   UNL d   1     -41.367-122.999 -52.497  0.00  0.00     0.003 A 
ATOM      6  C   UNL d   1     -41.751-122.499 -54.519  0.00  0.00     0.068 A 
ATOM      7  O   UNL d   1     -42.198-121.190 -53.265  0.00  0.00    -0.287 OA
ATOM      8  C   UNL d   1     -41.129-123.815 -53.744  0.00  0.00     0.000 A 
ATOM      9  C   UNL d   1     -41.741-121.939 -51.618  0.00  0.00     0.003 A 
ATOM     10  C   UNL d   1     -41.123-123.445 -51.844  0.00  0.00     0.000 A 
ATOM     11  C   UNL d   1     -41.511-123.155 -54.955  0.00  0.00     0.006 A 
ATOM     12  C   UNL d   1     -41.198-123.816 -54.558  0.00  0.00     0.000 A 
ATOM     13  C   UNL d   1     -41.497-122.384 -50.974  0.00  0.00     0.000 A 
ATOM     14  C   UNL d   1     -41.188-123.137 -51.087  0.00  0.00     0.000 A 
ENDROOT
BRANCH   6  15
ATOM     15  C   UNL d   1     -42.064-121.837 -54.898  0.00  0.00     0.211 C 
ATOM     16  O   UNL d   1     -42.882-121.775 -54.998  0.00  0.00    -0.644 OA
ATOM     17  O   UNL d   1     -41.568-121.244 -55.173  0.00  0.00    -0.644 OA
ENDBRANCH   6  15
TORSDOF 1
ENDMDL
MODEL 2
REMARK VINA RESULT:      -5.0      0.910      2.783
REMARK  1 active torsions:
REMARK  status: ('A' for Active; 'I' for Inactive)
REMARK    1  A    between atoms: C_7  and  C_6 
ROOT
ATOM      1  C   UNL d   1     -41.577-122.440 -52.610  0.00  0.00     0.045 A 
ATOM      2  C   UNL d   1     -41.786-121.842 -53.140  0.00  0.00     0.196 A 
ATOM      3  C   UNL d   1     -41.400-123.127 -53.032  0.00  0.00     0.003 A 
ATOM      4  C   UNL d   1     -41.737-122.165 -53.900  0.00  0.00     0.039 A 
ATOM      5  C   UNL d   1     -41.501-122.950 -53.835  0.00  0.00     0.003 A 
ATOM      6  C   UNL d   1     -41.525-122.446 -51.778  0.00  0.00     0.068 A 
ATOM      7  O   UNL d   1     -42.001-121.074 -52.950  0.00  0.00    -0.287 OA
ATOM      8  C   UNL d   1     -41.175-123.809 -52.638  0.00  0.00     0.000 A 
ATOM      9  C   UNL d   1     -41.878-121.839 -54.647  0.00  0.00     0.003 A 
ATOM     10  C   UNL d   1     -41.407-123.409 -54.516  0.00  0.00     0.000 A 
ATOM     11  C   UNL d   1     -41.298-123.133 -51.382  0.00  0.00     0.006 A 
ATOM     12  C   UNL d   1     -41.123-123.817 -51.822  0.00  0.00     0.000 A 
ATOM     13  C   UNL d   1     -41.784-122.298 -55.321  0.00  0.00     0.000 A 
ATOM     14  C   UNL d   1     -41.548-123.082 -55.256  0.00  0.00     0.000 A 
ENDROOT
BRANCH   6  15
ATOM     15  C   UNL d   1     -41.702-121.760 -51.355  0.00  0.00     0.211 C 
ATOM     16  O   UNL d   1     -42.461-121.660 -51.043  0.00  0.00    -0.644 OA
ATOM     17  O   UNL d   1     -41.130-121.182 -51.246  0.00  0.00    -0.644 OA
ENDBRANCH   6  15
TORSDOF 1
ENDMDL
MODEL 3
REMARK VINA RESULT:      -3.7      1.753      3.338
REMARK  1 active torsions:
REMARK  status: ('A' for Active; 'I' for Inactive)
REMARK    1  A    between atoms: C_7  and  C_6 
ROOT
ATOM      1  C   UNL d   1     -41.598-122.427 -51.795  0.00  0.00     0.045 A 
ATOM      2  C   UNL d   1     -41.770-123.183 -52.077  0.00  0.00     0.196 A 
ATOM      3  C   UNL d   1     -41.332-121.957 -52.420  0.00  0.00     0.003 A 
ATOM      4  C   UNL d   1     -41.608-123.180 -52.889  0.00  0.00     0.039 A 
ATOM      5  C   UNL d   1     -41.341-122.431 -53.098  0.00  0.00     0.003 A 
ATOM      6  C   UNL d   1     -41.651-122.098 -51.030  0.00  0.00     0.068 A 
ATOM      7  O   UNL d   1     -42.048-123.817 -51.639  0.00  0.00    -0.287 OA
ATOM      8  C   UNL d   1     -41.123-121.176 -52.291  0.00  0.00     0.000 A 
ATOM      9  C   UNL d   1     -41.672-123.770 -53.466  0.00  0.00     0.003 A 
ATOM     10  C   UNL d   1     -41.137-122.273 -53.884  0.00  0.00     0.000 A 
ATOM     11  C   UNL d   1     -41.439-121.312 -50.902  0.00  0.00     0.006 A 
ATOM     12  C   UNL d   1     -41.173-120.851 -51.542  0.00  0.00     0.000 A 
ATOM     13  C   UNL d   1     -41.469-123.609 -54.244  0.00  0.00     0.000 A 
ATOM     14  C   UNL d   1     -41.202-122.860 -54.453  0.00  0.00     0.000 A 
ENDROOT
BRANCH   6  15
ATOM     15  C   UNL d   1     -41.916-122.567 -50.405  0.00  0.00     0.211 C 
ATOM     16  O   UNL d   1     -42.724-122.597 -50.236  0.00  0.00    -0.644 OA
ATOM     17  O   UNL d   1     -41.382-122.998 -49.956  0.00  0.00    -0.644 OA
ENDBRANCH   6  15
TORSDOF 1
ENDMDL
