MODEL 1
REMARK VINA RESULT:      -4.8      0.000      0.000
REMARK  5 active torsions:
REMARK  status: ('A' for Active; 'I' for Inactive)
REMARK    1  A    between atoms: C_12  and  N_4 
REMARK    2  A    between atoms: C_10  and  N_6 
REMARK    3  A    between atoms: C_11  and  C_10 
REMARK       I    between atoms: N_14  and  C_11 
REMARK    4  A    between atoms: C_16  and  N_14 
REMARK    5  A    between atoms: C_17  and  C_16 
ROOT
ATOM      1  C   UNL d   1     -42.145-122.642 -49.491  0.00  0.00     0.172 A 
ATOM      2  C   UNL d   1     -42.737-122.451 -50.032  0.00  0.00     0.113 A 
ATOM      3  N   UNL d   1     -41.355-122.555 -49.695  0.00  0.00    -0.206 NA
ATOM      4  N   UNL d   1     -42.518-122.902 -48.797  0.00  0.00    -0.212 N 
ATOM      5  C   UNL d   1     -42.539-122.174 -50.778  0.00  0.00     0.271 A 
ATOM      6  N   UNL d   1     -41.744-122.085 -50.989  0.00  0.00    -0.251 N 
ATOM      7  N   UNL d   1     -43.326-122.869 -48.920  0.00  0.00    -0.162 NA
ATOM      8  C   UNL d   1     -41.151-122.275 -50.447  0.00  0.00     0.187 A 
ATOM      9  C   UNL d   1     -43.465-122.598 -49.664  0.00  0.00     0.129 A 
ATOM     10  O   UNL d   1     -43.131-121.984 -51.320  0.00  0.00    -0.266 OA
ENDROOT
BRANCH   6  11
ATOM     11  C   UNL d   1     -41.534-121.803 -51.747  0.00  0.00     0.147 C 
BRANCH  11  12
ATOM     12  C   UNL d   1     -41.431-122.337 -52.375  0.00  0.00     0.297 C 
ATOM     13  N   UNL d   1     -41.592-122.085 -53.144  0.00  0.00    -0.205 NA
ATOM     14  O   UNL d   1     -41.175-123.098 -52.224  0.00  0.00    -0.264 OA
BRANCH  13  15
ATOM     15  C   UNL d   1     -41.489-122.618 -53.773  0.00  0.00     0.102 C 
BRANCH  15  16
ATOM     16  C   UNL d   1     -41.724-122.392 -54.523  0.00  0.00     0.019 A 
ATOM     17  C   UNL d   1     -41.173-122.233 -55.105  0.00  0.00     0.002 A 
ATOM     18  C   UNL d   1     -41.419-122.004 -55.866  0.00  0.00     0.000 A 
ATOM     19  C   UNL d   1     -42.227-121.940 -56.022  0.00  0.00     0.000 A 
ATOM     20  C   UNL d   1     -42.784-122.098 -55.445  0.00  0.00     0.000 A 
ATOM     21  C   UNL d   1     -42.537-122.327 -54.685  0.00  0.00     0.002 A 
ENDBRANCH  15  16
ENDBRANCH  13  15
ENDBRANCH  11  12
ENDBRANCH   6  11
BRANCH   4  22
ATOM     22  C   UNL d   1     -42.180-123.153 -48.100  0.00  0.00     0.085 A 
ATOM     23  C   UNL d   1     -42.557-122.997 -47.373  0.00  0.00     0.019 A 
ATOM     24  C   UNL d   1     -42.212-123.252 -46.676  0.00  0.00     0.002 A 
ATOM     25  C   UNL d   1     -41.482-123.670 -46.691  0.00  0.00     0.000 A 
ATOM     26  C   UNL d   1     -41.125-123.817 -47.406  0.00  0.00     0.002 A 
ATOM     27  C   UNL d   1     -41.463-123.564 -48.112  0.00  0.00     0.019 A 
ENDBRANCH   4  22
TORSDOF 5
ENDMDL
