MODEL 1
REMARK VINA RESULT:     113.6      0.000      0.000
REMARK  5 active torsions:
REMARK  status: ('A' for Active; 'I' for Inactive)
REMARK    1  A    between atoms: C_12  and  N_3 
REMARK    2  A    between atoms: C_11  and  C_5 
REMARK       I    between atoms: N_16  and  C_11 
REMARK    3  A    between atoms: C_15  and  C_12 
REMARK    4  A    between atoms: C_26  and  N_16 
REMARK    5  A    between atoms: C_27  and  C_26 
ROOT
ATOM      1  C   UNL d   1      59.708  49.482  51.707  0.00  0.00     0.155 A 
ATOM      2  C   UNL d   1      60.513  49.302  51.745  0.00  0.00     0.091 A 
ATOM      3  N   UNL d   1      59.322  49.528  50.988  0.00  0.00    -0.272 N 
ATOM      4  N   UNL d   1      59.289  49.618  52.410  0.00  0.00    -0.210 NA
ATOM      5  C   UNL d   1      60.546  49.212  50.315  0.00  0.00     0.094 A 
ATOM      6  C   UNL d   1      59.741  49.392  50.285  0.00  0.00     0.175 A 
ATOM      7  C   UNL d   1      60.898  49.257  52.471  0.00  0.00     0.269 A 
ATOM      8  N   UNL d   1      60.479  49.392  53.167  0.00  0.00    -0.258 N 
ATOM      9  C   UNL d   1      59.675  49.572  53.137  0.00  0.00     0.152 A 
ATOM     10  C   UNL d   1      60.931  49.167  51.049  0.00  0.00     0.016 A 
ATOM     11  N   UNL d   1      59.348  49.439  49.554  0.00  0.00    -0.128 N 
ATOM     12  C   UNL d   1      60.865  49.347  53.892  0.00  0.00     0.084 A 
ATOM     13  O   UNL d   1      61.702  49.077  52.501  0.00  0.00    -0.266 OA
ATOM     14  C   UNL d   1      59.256  49.708  53.832  0.00  0.00     0.038 A 
ATOM     15  C   UNL d   1      60.446  49.482  54.593  0.00  0.00     0.019 A 
ATOM     16  C   UNL d   1      59.642  49.663  54.562  0.00  0.00     0.005 A 
ENDROOT
BRANCH   5  17
ATOM     17  C   UNL d   1      60.964  49.076  49.615  0.00  0.00     0.282 C 
ATOM     18  N   UNL d   1      61.250  48.323  49.444  0.00  0.00    -0.206 NA
ATOM     19  O   UNL d   1      61.100  49.692  49.082  0.00  0.00    -0.265 OA
BRANCH  18  20
ATOM     20  C   UNL d   1      61.120  47.702  49.971  0.00  0.00     0.102 C 
BRANCH  20  21
ATOM     21  C   UNL d   1      61.400  46.942  49.804  0.00  0.00     0.019 A 
ATOM     22  C   UNL d   1      61.026  46.292  50.155  0.00  0.00     0.002 A 
ATOM     23  C   UNL d   1      61.300  45.525  49.994  0.00  0.00     0.000 A 
ATOM     24  C   UNL d   1      61.948  45.415  49.483  0.00  0.00     0.000 A 
ATOM     25  C   UNL d   1      62.316  46.074  49.136  0.00  0.00     0.000 A 
ATOM     26  C   UNL d   1      62.042  46.834  49.297  0.00  0.00     0.002 A 
ENDBRANCH  20  21
ENDBRANCH  18  20
ENDBRANCH   5  17
BRANCH   3  27
ATOM     27  C   UNL d   1      58.517  49.708  50.958  0.00  0.00     0.107 C 
BRANCH  27  28
ATOM     28  C   UNL d   1      57.996  49.200  50.576  0.00  0.00     0.118 A 
ATOM     29  O   UNL d   1      57.415  48.794  51.009  0.00  0.00    -0.304 OA
ATOM     30  C   UNL d   1      56.976  48.327  50.478  0.00  0.00     0.123 A 
ATOM     31  C   UNL d   1      57.285  48.449  49.732  0.00  0.00     0.029 A 
ATOM     32  C   UNL d   1      57.912  48.983  49.781  0.00  0.00     0.028 A 
ENDBRANCH  27  28
ENDBRANCH   3  27
TORSDOF 5
ENDMDL
