MODEL 1
REMARK VINA RESULT:      14.2      0.000      0.000
REMARK  5 active torsions:
REMARK  status: ('A' for Active; 'I' for Inactive)
REMARK    1  A    between atoms: C_6  and  N_1 
REMARK    2  A    between atoms: C_10  and  C_6 
REMARK    3  A    between atoms: O_18  and  C_12 
REMARK    4  A    between atoms: C_20  and  O_18 
REMARK    5  A    between atoms: C_21  and  C_20 
ROOT
ATOM      1  N   UNL d   1      46.060 -17.559  44.120  0.00  0.00    -0.251 N 
ATOM      2  C   UNL d   1      46.108 -17.222  43.357  0.00  0.00     0.378 A 
ATOM      3  C   UNL d   1      46.244 -18.363  44.054  0.00  0.00     0.092 A 
ATOM      4  O   UNL d   1      46.322 -17.820  42.825  0.00  0.00    -0.258 OA
ATOM      5  C   UNL d   1      46.406 -18.524  43.255  0.00  0.00     0.121 A 
ATOM      6  O   UNL d   1      45.967 -16.433  43.173  0.00  0.00    -0.237 OA
ATOM      7  C   UNL d   1      46.283 -18.959  44.617  0.00  0.00     0.020 A 
ATOM      8  C   UNL d   1      46.607 -19.295  43.031  0.00  0.00     0.026 A 
ATOM      9  C   UNL d   1      46.485 -19.724  44.384  0.00  0.00     0.002 A 
ATOM     10  C   UNL d   1      46.647 -19.891  43.594  0.00  0.00     0.002 A 
ATOM     11  C   UNL d   1      46.524 -20.322  44.955  0.00  0.00     0.000 C 
ENDROOT
BRANCH   1  12
ATOM     12  C   UNL d   1      45.868 -17.194  44.834  0.00  0.00     0.085 C 
BRANCH  12  13
ATOM     13  C   UNL d   1      45.736 -16.379  44.856  0.00  0.00     0.018 A 
ATOM     14  C   UNL d   1      44.977 -16.081  44.820  0.00  0.00     0.004 A 
ATOM     15  C   UNL d   1      44.849 -15.274  44.841  0.00  0.00     0.025 A 
ATOM     16  C   UNL d   1      45.489 -14.757  44.900  0.00  0.00     0.100 A 
ATOM     17  C   UNL d   1      46.254 -15.057  44.937  0.00  0.00     0.025 A 
ATOM     18  C   UNL d   1      46.382 -15.874  44.915  0.00  0.00     0.004 A 
BRANCH  16  19
ATOM     19  O   UNL d   1      45.359 -13.946  44.922  0.00  0.00    -0.305 OA
BRANCH  19  20
ATOM     20  C   UNL d   1      45.260 -13.531  44.224  0.00  0.00     0.123 C 
BRANCH  20  21
ATOM     21  C   UNL d   1      45.496 -12.749  44.174  0.00  0.00     0.027 C 
ATOM     22  C   UNL d   1      45.351 -12.315  43.486  0.00  0.00     0.002 C 
ENDBRANCH  20  21
ENDBRANCH  19  20
ENDBRANCH  16  19
ENDBRANCH  12  13
ENDBRANCH   1  12
TORSDOF 5
ENDMDL
MODEL 2
REMARK VINA RESULT:      16.6      1.127      5.008
REMARK  5 active torsions:
REMARK  status: ('A' for Active; 'I' for Inactive)
REMARK    1  A    between atoms: C_6  and  N_1 
REMARK    2  A    between atoms: C_10  and  C_6 
REMARK    3  A    between atoms: O_18  and  C_12 
REMARK    4  A    between atoms: C_20  and  O_18 
REMARK    5  A    between atoms: C_21  and  C_20 
ROOT
ATOM      1  N   UNL d   1      45.444 -14.315  44.234  0.00  0.00    -0.251 N 
ATOM      2  C   UNL d   1      46.212 -14.207  44.544  0.00  0.00     0.378 A 
ATOM      3  C   UNL d   1      45.216 -13.608  43.869  0.00  0.00     0.092 A 
ATOM      4  O   UNL d   1      46.453 -13.435  44.369  0.00  0.00    -0.258 OA
ATOM      5  C   UNL d   1      45.839 -13.065  43.952  0.00  0.00     0.121 A 
ATOM      6  O   UNL d   1      46.646 -14.774  44.952  0.00  0.00    -0.237 OA
ATOM      7  C   UNL d   1      44.527 -13.397  43.477  0.00  0.00     0.020 A 
ATOM      8  C   UNL d   1      45.758 -12.305  43.635  0.00  0.00     0.026 A 
ATOM      9  C   UNL d   1      44.455 -12.637  43.164  0.00  0.00     0.002 A 
ATOM     10  C   UNL d   1      45.068 -12.093  43.242  0.00  0.00     0.002 A 
ATOM     11  C   UNL d   1      43.758 -12.428  42.769  0.00  0.00     0.000 C 
ENDROOT
BRANCH   1  12
ATOM     12  C   UNL d   1      44.965 -14.985  44.263  0.00  0.00     0.085 C 
BRANCH  12  13
ATOM     13  C   UNL d   1      45.309 -15.736  44.254  0.00  0.00     0.018 A 
ATOM     14  C   UNL d   1      45.445 -16.138  44.951  0.00  0.00     0.004 A 
ATOM     15  C   UNL d   1      45.786 -16.881  44.940  0.00  0.00     0.025 A 
ATOM     16  C   UNL d   1      45.994 -17.228  44.221  0.00  0.00     0.100 A 
ATOM     17  C   UNL d   1      45.857 -16.822  43.518  0.00  0.00     0.025 A 
ATOM     18  C   UNL d   1      45.512 -16.071  43.531  0.00  0.00     0.004 A 
BRANCH  16  19
ATOM     19  O   UNL d   1      46.336 -17.974  44.211  0.00  0.00    -0.305 OA
BRANCH  19  20
ATOM     20  C   UNL d   1      46.213 -18.470  43.571  0.00  0.00     0.123 C 
BRANCH  20  21
ATOM     21  C   UNL d   1      46.466 -19.247  43.598  0.00  0.00     0.027 C 
ATOM     22  C   UNL d   1      46.309 -19.712  44.262  0.00  0.00     0.002 C 
ENDBRANCH  20  21
ENDBRANCH  19  20
ENDBRANCH  16  19
ENDBRANCH  12  13
ENDBRANCH   1  12
TORSDOF 5
ENDMDL
