MODEL 1
REMARK VINA RESULT:      11.9      0.000      0.000
REMARK  5 active torsions:
REMARK  status: ('A' for Active; 'I' for Inactive)
REMARK    1  A    between atoms: C_7  and  N_1 
REMARK    2  A    between atoms: C_10  and  C_2 
REMARK    3  A    between atoms: C_11  and  C_5 
REMARK    4  A    between atoms: C_9  and  C_7 
REMARK    5  A    between atoms: O_16  and  C_9 
ROOT
ATOM      1  N   UNL d   1     -41.520-121.735 -53.088  0.00  0.00    -0.286 N 
ATOM      2  C   UNL d   1     -41.615-122.461 -53.468  0.00  0.00     0.148 A 
ATOM      3  N   UNL d   1     -41.598-123.154 -53.027  0.00  0.00    -0.228 NA
ATOM      4  C   UNL d   1     -41.393-122.401 -51.845  0.00  0.00     0.035 A 
ATOM      5  C   UNL d   1     -41.409-121.715 -52.274  0.00  0.00     0.067 A 
ATOM      6  C   UNL d   1     -41.489-123.127 -52.225  0.00  0.00     0.084 A 
ATOM      7  C   UNL d   1     -41.284-122.377 -51.039  0.00  0.00     0.014 A 
ATOM      8  C   UNL d   1     -41.473-123.816 -51.792  0.00  0.00     0.020 A 
ATOM      9  C   UNL d   1     -41.267-123.070 -50.598  0.00  0.00     0.058 A 
ATOM     10  C   UNL d   1     -41.362-123.796 -50.977  0.00  0.00     0.013 A 
ATOM     11 CL   UNL d   1     -41.154-123.046 -49.770  0.00  0.00    -0.082 Cl
ENDROOT
BRANCH   2  12
ATOM     12  C   UNL d   1     -41.741-122.914 -54.198  0.00  0.00     0.035 A 
ATOM     13  C   UNL d   1     -42.478-123.365 -54.316  0.00  0.00     0.003 A 
ATOM     14  C   UNL d   1     -42.598-123.817 -55.049  0.00  0.00     0.000 A 
ATOM     15  C   UNL d   1     -41.975-123.816 -55.669  0.00  0.00     0.000 A 
ATOM     16  C   UNL d   1     -41.240-123.361 -55.542  0.00  0.00     0.000 A 
ATOM     17  C   UNL d   1     -41.123-122.914 -54.813  0.00  0.00     0.003 A 
ENDBRANCH   2  12
BRANCH   1  18
ATOM     18  C   UNL d   1     -41.537-121.042 -53.530  0.00  0.00     0.150 C 
BRANCH  18  19
ATOM     19  C   UNL d   1     -42.180-120.861 -54.002  0.00  0.00     0.314 C 
ATOM     20  O   UNL d   1     -42.944-120.962 -53.707  0.00  0.00    -0.257 OA
BRANCH  19  21
ATOM     21  O   UNL d   1     -42.072-120.584 -54.759  0.00  0.00    -0.295 OA
ATOM     22  C   UNL d   1     -42.699-120.590 -55.291  0.00  0.00     0.185 C 
ENDBRANCH  19  21
ENDBRANCH  18  19
ENDBRANCH   1  18
BRANCH   5  23
ATOM     23  C   UNL d   1     -41.314-120.988 -51.895  0.00  0.00     0.016 A 
ATOM     24  C   UNL d   1     -41.260-120.307 -52.329  0.00  0.00     0.001 A 
ATOM     25  C   UNL d   1     -41.165-119.581 -51.950  0.00  0.00     0.000 A 
ATOM     26  C   UNL d   1     -41.125-119.548 -51.142  0.00  0.00     0.000 A 
ATOM     27  C   UNL d   1     -41.179-120.242 -50.681  0.00  0.00     0.000 A 
ATOM     28  C   UNL d   1     -41.274-120.962 -51.073  0.00  0.00     0.001 A 
ENDBRANCH   5  23
TORSDOF 5
ENDMDL
MODEL 2
REMARK VINA RESULT:      14.3      1.632      3.407
REMARK  5 active torsions:
REMARK  status: ('A' for Active; 'I' for Inactive)
REMARK    1  A    between atoms: C_7  and  N_1 
REMARK    2  A    between atoms: C_10  and  C_2 
REMARK    3  A    between atoms: C_11  and  C_5 
REMARK    4  A    between atoms: C_9  and  C_7 
REMARK    5  A    between atoms: O_16  and  C_9 
ROOT
ATOM      1  N   UNL d   1     -41.881-121.737 -52.466  0.00  0.00    -0.286 N 
ATOM      2  C   UNL d   1     -41.843-122.459 -52.070  0.00  0.00     0.148 A 
ATOM      3  N   UNL d   1     -41.728-123.151 -52.499  0.00  0.00    -0.228 NA
ATOM      4  C   UNL d   1     -41.690-122.404 -53.701  0.00  0.00     0.035 A 
ATOM      5  C   UNL d   1     -41.804-121.719 -53.284  0.00  0.00     0.067 A 
ATOM      6  C   UNL d   1     -41.652-123.126 -53.304  0.00  0.00     0.084 A 
ATOM      7  C   UNL d   1     -41.614-122.382 -54.511  0.00  0.00     0.014 A 
ATOM      8  C   UNL d   1     -41.538-123.813 -53.725  0.00  0.00     0.020 A 
ATOM      9  C   UNL d   1     -41.499-123.073 -54.939  0.00  0.00     0.058 A 
ATOM     10  C   UNL d   1     -41.461-123.796 -54.543  0.00  0.00     0.013 A 
ATOM     11 CL   UNL d   1     -41.420-123.051 -55.771  0.00  0.00    -0.082 Cl
ENDROOT
BRANCH   2  12
ATOM     12  C   UNL d   1     -41.867-122.908 -51.327  0.00  0.00     0.035 A 
ATOM     13  C   UNL d   1     -41.133-123.230 -50.982  0.00  0.00     0.003 A 
ATOM     14  C   UNL d   1     -41.164-123.679 -50.238  0.00  0.00     0.000 A 
ATOM     15  C   UNL d   1     -41.936-123.806 -49.838  0.00  0.00     0.000 A 
ATOM     16  C   UNL d   1     -42.665-123.481 -50.191  0.00  0.00     0.000 A 
ATOM     17  C   UNL d   1     -42.632-123.036 -50.930  0.00  0.00     0.003 A 
ENDBRANCH   2  12
BRANCH   1  18
ATOM     18  C   UNL d   1     -41.996-121.045 -52.038  0.00  0.00     0.150 C 
BRANCH  18  19
ATOM     19  C   UNL d   1     -41.461-120.813 -51.464  0.00  0.00     0.314 C 
ATOM     20  O   UNL d   1     -41.262-121.335 -50.856  0.00  0.00    -0.257 OA
BRANCH  19  21
ATOM     21  O   UNL d   1     -41.123-120.073 -51.489  0.00  0.00    -0.295 OA
ATOM     22  C   UNL d   1     -41.196-119.568 -50.845  0.00  0.00     0.185 C 
ENDBRANCH  19  21
ENDBRANCH  18  19
ENDBRANCH   1  18
BRANCH   5  23
ATOM     23  C   UNL d   1     -41.842-120.996 -53.681  0.00  0.00     0.016 A 
ATOM     24  C   UNL d   1     -41.222-120.476 -53.638  0.00  0.00     0.001 A 
ATOM     25  C   UNL d   1     -41.261-119.754 -54.034  0.00  0.00     0.000 A 
ATOM     26  C   UNL d   1     -41.918-119.563 -54.467  0.00  0.00     0.000 A 
ATOM     27  C   UNL d   1     -42.564-120.089 -54.520  0.00  0.00     0.000 A 
ATOM     28  C   UNL d   1     -42.513-120.808 -54.118  0.00  0.00     0.001 A 
ENDBRANCH   5  23
TORSDOF 5
ENDMDL
