MODEL 1
REMARK VINA RESULT:      -4.8      0.000      0.000
REMARK  6 active torsions:
REMARK  status: ('A' for Active; 'I' for Inactive)
REMARK    1  A    between atoms: C_12  and  N_1 
REMARK    2  A    between atoms: N_8  and  C_2 
REMARK    3  A    between atoms: C_6  and  C_5 
REMARK    4  A    between atoms: C_7  and  C_6 
REMARK       I    between atoms: N_9  and  C_7 
REMARK    5  A    between atoms: C_19  and  N_8 
REMARK    6  A    between atoms: C_13  and  N_9 
ROOT
ATOM      1  N   UNL d   1      59.925  -0.630  29.563  0.00  0.00    -0.252 N 
ATOM      2  C   UNL d   1      59.383  -1.222  29.351  0.00  0.00     0.182 A 
ATOM      3  C   UNL d   1      59.505  -0.030  29.954  0.00  0.00     0.272 A 
ATOM      4  S   UNL d   1      58.631  -0.992  29.610  0.00  0.00    -0.045 SA
ATOM      5  C   UNL d   1      58.709  -0.254  29.982  0.00  0.00     0.093 A 
ATOM      6  O   UNL d   1      59.831   0.674  30.264  0.00  0.00    -0.266 OA
ENDROOT
BRANCH   5   7
ATOM      7  C   UNL d   1      57.965  -0.027  30.238  0.00  0.00     0.074 C 
BRANCH   7   8
ATOM      8  C   UNL d   1      57.604   0.063  30.973  0.00  0.00     0.280 C 
ATOM      9  N   UNL d   1      56.893  -0.318  31.130  0.00  0.00    -0.208 NA
ATOM     10  O   UNL d   1      57.956   0.536  31.550  0.00  0.00    -0.265 OA
BRANCH   9  11
ATOM     11  C   UNL d   1      56.537  -0.221  31.874  0.00  0.00     0.085 A 
ATOM     12  C   UNL d   1      56.431  -0.879  32.356  0.00  0.00     0.019 A 
ATOM     13  C   UNL d   1      56.082  -0.800  33.093  0.00  0.00     0.002 A 
ATOM     14  C   UNL d   1      55.838  -0.060  33.348  0.00  0.00     0.000 A 
ATOM     15  C   UNL d   1      55.946   0.601  32.862  0.00  0.00     0.002 A 
ATOM     16  C   UNL d   1      55.486   0.031  34.089  0.00  0.00     0.000 C 
ATOM     17  C   UNL d   1      56.296   0.512  32.126  0.00  0.00     0.019 A 
ENDBRANCH   9  11
ENDBRANCH   7   8
ENDBRANCH   5   7
BRANCH   1  18
ATOM     18  C   UNL d   1      60.739  -0.666  29.395  0.00  0.00     0.085 C 
ATOM     19  C   UNL d   1      61.127  -0.031  29.039  0.00  0.00     0.021 C 
ENDBRANCH   1  18
BRANCH   2  20
ATOM     20  N   UNL d   1      59.483  -1.946  28.953  0.00  0.00    -0.221 NA
BRANCH  20  21
ATOM     21  C   UNL d   1      59.035  -2.634  28.881  0.00  0.00     0.101 C 
ATOM     22  C   UNL d   1      59.332  -3.276  28.455  0.00  0.00     0.022 C 
ENDBRANCH  20  21
ENDBRANCH   2  20
TORSDOF 6
ENDMDL
MODEL 2
REMARK VINA RESULT:      -2.1      1.837      5.088
REMARK  6 active torsions:
REMARK  status: ('A' for Active; 'I' for Inactive)
REMARK    1  A    between atoms: C_12  and  N_1 
REMARK    2  A    between atoms: N_8  and  C_2 
REMARK    3  A    between atoms: C_6  and  C_5 
REMARK    4  A    between atoms: C_7  and  C_6 
REMARK       I    between atoms: N_9  and  C_7 
REMARK    5  A    between atoms: C_19  and  N_8 
REMARK    6  A    between atoms: C_13  and  N_9 
ROOT
ATOM      1  N   UNL d   1      56.683   0.678  34.085  0.00  0.00    -0.252 N 
ATOM      2  C   UNL d   1      55.930   0.675  33.735  0.00  0.00     0.182 A 
ATOM      3  C   UNL d   1      57.246   0.677  33.474  0.00  0.00     0.272 A 
ATOM      4  S   UNL d   1      56.025   0.672  32.913  0.00  0.00    -0.045 SA
ATOM      5  C   UNL d   1      56.840   0.674  32.754  0.00  0.00     0.093 A 
ATOM      6  O   UNL d   1      58.075   0.680  33.573  0.00  0.00    -0.266 OA
ENDROOT
BRANCH   5   7
ATOM      7  C   UNL d   1      56.932   0.671  31.941  0.00  0.00     0.074 C 
BRANCH   7   8
ATOM      8  C   UNL d   1      57.308   0.177  31.399  0.00  0.00     0.280 C 
ATOM      9  N   UNL d   1      57.888   0.479  30.901  0.00  0.00    -0.208 NA
ATOM     10  O   UNL d   1      57.101  -0.621  31.356  0.00  0.00    -0.265 OA
BRANCH   9  11
ATOM     11  C   UNL d   1      58.260  -0.028  30.359  0.00  0.00     0.085 A 
ATOM     12  C   UNL d   1      58.965   0.211  30.007  0.00  0.00     0.019 A 
ATOM     13  C   UNL d   1      59.345  -0.278  29.470  0.00  0.00     0.002 A 
ATOM     14  C   UNL d   1      59.018  -1.007  29.284  0.00  0.00     0.000 A 
ATOM     15  C   UNL d   1      58.310  -1.245  29.639  0.00  0.00     0.002 A 
ATOM     16  C   UNL d   1      59.393  -1.507  28.745  0.00  0.00     0.000 C 
ATOM     17  C   UNL d   1      57.937  -0.749  30.175  0.00  0.00     0.019 A 
ENDBRANCH   9  11
ENDBRANCH   7   8
ENDBRANCH   5   7
BRANCH   1  18
ATOM     18  C   UNL d   1      56.812   0.681  34.907  0.00  0.00     0.085 C 
ATOM     19  C   UNL d   1      57.575   0.647  35.217  0.00  0.00     0.021 C 
ENDBRANCH   1  18
BRANCH   2  20
ATOM     20  N   UNL d   1      55.167   0.674  34.066  0.00  0.00    -0.221 NA
BRANCH  20  21
ATOM     21  C   UNL d   1      54.418   0.455  33.798  0.00  0.00     0.101 C 
ATOM     22  C   UNL d   1      53.759   0.565  34.283  0.00  0.00     0.022 C 
ENDBRANCH  20  21
ENDBRANCH   2  20
TORSDOF 6
ENDMDL
