MODEL 1
REMARK VINA RESULT:      40.3      0.000      0.000
REMARK  5 active torsions:
REMARK  status: ('A' for Active; 'I' for Inactive)
REMARK    1  A    between atoms: C_11  and  C_1 
REMARK    2  A    between atoms: C_12  and  N_3 
REMARK    3  A    between atoms: C_7  and  S_13 
REMARK    4  A    between atoms: C_14  and  C_11 
REMARK    5  A    between atoms: S_13  and  C_14 
ROOT
ATOM      1  C   UNL d   1     -54.766-101.549 -41.918  0.00  0.00     0.057 A 
ATOM      2  C   UNL d   1     -54.767-100.829 -42.319  0.00  0.00     0.067 A 
ATOM      3  N   UNL d   1     -54.831-100.986 -43.117  0.00  0.00    -0.306 N 
ATOM      4  C   UNL d   1     -54.870-101.794 -43.218  0.00  0.00     0.064 A 
ATOM      5  C   UNL d   1     -54.830-102.153 -42.480  0.00  0.00     0.022 A 
ATOM      6  C   UNL d   1     -54.713-100.080 -41.981  0.00  0.00     0.019 C 
ATOM      7  C   UNL d   1     -54.929-102.498 -43.644  0.00  0.00     0.019 C 
ENDROOT
BRANCH   1   8
ATOM      8  C   UNL d   1     -54.737-102.052 -41.253  0.00  0.00     0.204 C 
ATOM      9  O   UNL d   1     -54.712-102.879 -41.352  0.00  0.00    -0.286 OA
BRANCH   8  10
ATOM     10  C   UNL d   1     -54.718-102.148 -40.433  0.00  0.00     0.080 C 
BRANCH  10  11
ATOM     11  S   UNL d   1     -55.310-102.584 -40.057  0.00  0.00    -0.043 SA
BRANCH  11  12
ATOM     12  C   UNL d   1     -55.400-102.544 -39.235  0.00  0.00     0.233 A 
ATOM     13  N   UNL d   1     -54.868-102.835 -38.685  0.00  0.00    -0.029 NA
ATOM     14  C   UNL d   1     -55.174-102.678 -37.941  0.00  0.00     0.788 A 
ATOM     15  N   UNL d   1     -54.824-102.873 -37.220  0.00  0.00     0.064 N 
ATOM     16  N   UNL d   1     -55.892-102.291 -38.041  0.00  0.00     0.050 NA
ATOM     17  N   UNL d   1     -56.039-102.204 -38.849  0.00  0.00    -0.105 NA
ENDBRANCH  11  12
ENDBRANCH  10  11
ENDBRANCH   8  10
ENDBRANCH   1   8
BRANCH   3  18
ATOM     18  C   UNL d   1     -54.854-100.416 -43.727  0.00  0.00     0.064 A 
ATOM     19  C   UNL d   1     -54.837 -99.650 -43.534  0.00  0.00     0.020 A 
ATOM     20  C   UNL d   1     -54.859 -99.083 -44.145  0.00  0.00     0.031 A 
ATOM     21  C   UNL d   1     -54.898 -99.320 -44.935  0.00  0.00     0.140 A 
ATOM     22  C   UNL d   1     -54.914-100.117 -45.113  0.00  0.00     0.031 A 
ATOM     23  F   UNL d   1     -54.920 -98.759 -45.541  0.00  0.00    -0.204 F 
ATOM     24  C   UNL d   1     -54.892-100.673 -44.512  0.00  0.00     0.020 A 
ENDBRANCH   3  18
TORSDOF 5
ENDMDL
