MODEL 1
REMARK VINA RESULT:      74.6      0.000      0.000
REMARK  9 active torsions:
REMARK  status: ('A' for Active; 'I' for Inactive)
REMARK    1  A    between atoms: C_7  and  C_1 
REMARK    2  A    between atoms: C_9  and  N_2 
REMARK    3  A    between atoms: C_14  and  C_7 
REMARK    4  A    between atoms: C_8  and  C_9 
REMARK       I    between atoms: N_11  and  C_8 
REMARK    5  A    between atoms: C_10  and  N_11 
REMARK    6  A    between atoms: O_30  and  C_19 
REMARK    7  A    between atoms: O_31  and  C_20 
REMARK    8  A    between atoms: C_32  and  C_25 
REMARK    9  A    between atoms: C_33  and  C_29 
ROOT
ATOM      1  C   UNL d   1      14.951  16.706  -4.219  0.00  0.00     0.095 A 
ATOM      2  N   UNL d   1      13.949  15.918  -3.578  0.00  0.00    -0.300 N 
ATOM      3  C   UNL d   1      15.362  16.757  -3.477  0.00  0.00     0.202 A 
ATOM      4  C   UNL d   1      14.245  16.286  -4.269  0.00  0.00     0.087 A 
ATOM      5  C   UNL d   1      15.044  16.378  -2.800  0.00  0.00     0.055 A 
ATOM      6  C   UNL d   1      14.339  15.956  -2.838  0.00  0.00     0.067 A 
ATOM      7  C   UNL d   1      14.043  15.590  -2.159  0.00  0.00     0.018 A 
ATOM      8  C   UNL d   1      15.445  16.423  -2.059  0.00  0.00     0.005 A 
ATOM      9  O   UNL d   1      16.058  17.170  -3.427  0.00  0.00    -0.286 OA
ATOM     10  C   UNL d   1      15.137  16.053  -1.389  0.00  0.00     0.000 A 
ATOM     11  C   UNL d   1      14.442  15.640  -1.439  0.00  0.00     0.002 A 
ENDROOT
BRANCH   2  12
ATOM     12  C   UNL d   1      13.243  15.498  -3.628  0.00  0.00     0.144 C 
BRANCH  12  13
ATOM     13  C   UNL d   1      13.252  14.677  -3.623  0.00  0.00     0.297 C 
ATOM     14  N   UNL d   1      13.301  14.261  -4.331  0.00  0.00    -0.207 NA
ATOM     15  O   UNL d   1      13.211  14.271  -2.910  0.00  0.00    -0.264 OA
BRANCH  14  16
ATOM     16  C   UNL d   1      13.309  13.432  -4.323  0.00  0.00     0.089 A 
ATOM     17  C   UNL d   1      13.430  13.036  -3.622  0.00  0.00     0.043 A 
ATOM     18  C   UNL d   1      13.440  12.221  -3.607  0.00  0.00     0.098 A 
ATOM     19  C   UNL d   1      13.325  11.789  -4.312  0.00  0.00     0.049 A 
ATOM     20  C   UNL d   1      13.203  12.193  -5.018  0.00  0.00     0.098 A 
ATOM     21  C   UNL d   1      13.194  13.021  -5.026  0.00  0.00     0.043 A 
BRANCH  18  22
ATOM     22  O   UNL d   1      13.561  11.821  -2.903  0.00  0.00    -0.328 OA
ATOM     23  C   UNL d   1      14.319  11.780  -2.583  0.00  0.00     0.181 C 
ENDBRANCH  18  22
BRANCH  20  24
ATOM     24  O   UNL d   1      13.091  11.781  -5.707  0.00  0.00    -0.328 OA
ATOM     25  C   UNL d   1      13.580  11.918  -6.352  0.00  0.00     0.181 C 
ENDBRANCH  20  24
ENDBRANCH  14  16
ENDBRANCH  12  13
ENDBRANCH   2  12
BRANCH   1  26
ATOM     26  C   UNL d   1      15.259  17.077  -4.892  0.00  0.00     0.200 C 
ATOM     27  O   UNL d   1      15.893  16.738  -5.293  0.00  0.00    -0.286 OA
BRANCH  26  28
ATOM     28  C   UNL d   1      14.932  17.785  -5.163  0.00  0.00     0.039 A 
ATOM     29  C   UNL d   1      14.432  17.791  -5.828  0.00  0.00     0.003 A 
ATOM     30  C   UNL d   1      14.099  18.503  -6.104  0.00  0.00     0.000 A 
ATOM     31  C   UNL d   1      14.267  19.208  -5.714  0.00  0.00     0.000 A 
ATOM     32  C   UNL d   1      14.772  19.185  -5.047  0.00  0.00     0.000 A 
ATOM     33  C   UNL d   1      15.105  18.473  -4.771  0.00  0.00     0.003 A 
BRANCH  31  34
ATOM     34  C   UNL d   1      13.933  19.909  -5.996  0.00  0.00     0.000 C 
ATOM     35  C   UNL d   1      14.424  20.442  -6.387  0.00  0.00     0.000 C 
ENDBRANCH  31  34
ENDBRANCH  26  28
ENDBRANCH   1  26
BRANCH  10  36
ATOM     36  C   UNL d   1      15.539  16.105  -0.672  0.00  0.00     0.000 C 
ATOM     37  C   UNL d   1      15.712  16.849  -0.346  0.00  0.00     0.000 C 
ENDBRANCH  10  36
TORSDOF 9
ENDMDL
