MODEL 1
REMARK VINA RESULT:      -7.1      0.000      0.000
REMARK  3 active torsions:
REMARK  status: ('A' for Active; 'I' for Inactive)
REMARK    1  A    between atoms: N_5  and  C_2 
REMARK    2  A    between atoms: C_9  and  C_3 
REMARK       I    between atoms: C_7  and  N_5 
REMARK    3  A    between atoms: C_8  and  C_7 
ROOT
ATOM      1  N   UNL d   1     -48.442  13.986  23.306  0.00  0.00    -0.200 NA
ATOM      2  C   UNL d   1     -47.661  13.926  23.069  0.00  0.00     0.216 A 
ATOM      3  C   UNL d   1     -48.758  14.667  22.942  0.00  0.00     0.172 A 
ATOM      4  N   UNL d   1     -48.163  15.011  22.488  0.00  0.00    -0.187 NA
ATOM      5  S   UNL d   1     -47.486  14.553  22.567  0.00  0.00     0.054 SA
ENDROOT
BRANCH   2   6
ATOM      6  N   UNL d   1     -47.141  13.332  23.299  0.00  0.00    -0.181 NA
ATOM      7  C   UNL d   1     -46.963  12.716  22.775  0.00  0.00     0.281 C 
ATOM      8  O   UNL d   1     -47.303  12.697  22.028  0.00  0.00    -0.265 OA
BRANCH   7   9
ATOM      9  C   UNL d   1     -46.445  12.124  23.005  0.00  0.00     0.058 A 
ATOM     10  C   UNL d   1     -45.650  12.175  22.808  0.00  0.00     0.005 A 
ATOM     11  C   UNL d   1     -45.126  11.576  23.040  0.00  0.00     0.000 A 
ATOM     12  C   UNL d   1     -45.403  10.931  23.467  0.00  0.00     0.000 A 
ATOM     13  C   UNL d   1     -46.204  10.877  23.668  0.00  0.00     0.000 A 
ATOM     14  C   UNL d   1     -44.883  10.337  23.698  0.00  0.00     0.000 C 
ATOM     15  C   UNL d   1     -46.728  11.475  23.436  0.00  0.00     0.005 A 
ENDBRANCH   7   9
ENDBRANCH   2   6
BRANCH   3  16
ATOM     16  C   UNL d   1     -49.524  14.943  23.022  0.00  0.00     0.036 A 
ATOM     17  C   UNL d   1     -50.138  14.564  22.616  0.00  0.00     0.003 A 
ATOM     18  C   UNL d   1     -50.908  14.850  22.703  0.00  0.00     0.000 A 
ATOM     19  C   UNL d   1     -51.064  15.507  23.189  0.00  0.00     0.000 A 
ATOM     20  C   UNL d   1     -50.449  15.874  23.586  0.00  0.00     0.000 A 
ATOM     21  C   UNL d   1     -49.676  15.594  23.504  0.00  0.00     0.003 A 
ENDBRANCH   3  16
TORSDOF 3
ENDMDL
MODEL 2
REMARK VINA RESULT:      -6.5      1.875      4.703
REMARK  3 active torsions:
REMARK  status: ('A' for Active; 'I' for Inactive)
REMARK    1  A    between atoms: N_5  and  C_2 
REMARK    2  A    between atoms: C_9  and  C_3 
REMARK       I    between atoms: C_7  and  N_5 
REMARK    3  A    between atoms: C_8  and  C_7 
ROOT
ATOM      1  N   UNL d   1     -46.135  12.658  22.712  0.00  0.00    -0.200 NA
ATOM      2  C   UNL d   1     -46.735  13.166  22.937  0.00  0.00     0.216 A 
ATOM      3  C   UNL d   1     -45.484  13.129  22.489  0.00  0.00     0.172 A 
ATOM      4  N   UNL d   1     -45.698  13.918  22.581  0.00  0.00    -0.187 NA
ATOM      5  S   UNL d   1     -46.471  13.941  22.858  0.00  0.00     0.054 SA
ENDROOT
BRANCH   2   6
ATOM      6  N   UNL d   1     -47.479  12.933  23.199  0.00  0.00    -0.181 NA
ATOM      7  C   UNL d   1     -48.076  12.769  22.649  0.00  0.00     0.281 C 
ATOM      8  O   UNL d   1     -47.927  12.839  21.844  0.00  0.00    -0.265 OA
BRANCH   7   9
ATOM      9  C   UNL d   1     -48.817  12.537  22.909  0.00  0.00     0.058 A 
ATOM     10  C   UNL d   1     -48.894  11.882  23.398  0.00  0.00     0.005 A 
ATOM     11  C   UNL d   1     -49.643  11.647  23.662  0.00  0.00     0.000 A 
ATOM     12  C   UNL d   1     -50.310  12.070  23.434  0.00  0.00     0.000 A 
ATOM     13  C   UNL d   1     -50.236  12.731  22.941  0.00  0.00     0.000 A 
ATOM     14  C   UNL d   1     -51.054  11.837  23.696  0.00  0.00     0.000 C 
ATOM     15  C   UNL d   1     -49.487  12.966  22.678  0.00  0.00     0.005 A 
ENDBRANCH   7   9
ENDBRANCH   2   6
BRANCH   3  16
ATOM     16  C   UNL d   1     -44.760  12.854  22.224  0.00  0.00     0.036 A 
ATOM     17  C   UNL d   1     -44.376  13.248  21.604  0.00  0.00     0.003 A 
ATOM     18  C   UNL d   1     -43.646  12.962  21.345  0.00  0.00     0.000 A 
ATOM     19  C   UNL d   1     -43.302  12.293  21.697  0.00  0.00     0.000 A 
ATOM     20  C   UNL d   1     -43.690  11.911  22.309  0.00  0.00     0.000 A 
ATOM     21  C   UNL d   1     -44.421  12.190  22.576  0.00  0.00     0.003 A 
ENDBRANCH   3  16
TORSDOF 3
ENDMDL
MODEL 3
REMARK VINA RESULT:      -6.4      1.203      1.691
REMARK  3 active torsions:
REMARK  status: ('A' for Active; 'I' for Inactive)
REMARK    1  A    between atoms: N_5  and  C_2 
REMARK    2  A    between atoms: C_9  and  C_3 
REMARK       I    between atoms: C_7  and  N_5 
REMARK    3  A    between atoms: C_8  and  C_7 
ROOT
ATOM      1  N   UNL d   1     -48.514  13.748  22.620  0.00  0.00    -0.200 NA
ATOM      2  C   UNL d   1     -48.094  13.055  22.730  0.00  0.00     0.216 A 
ATOM      3  C   UNL d   1     -49.249  13.654  23.005  0.00  0.00     0.172 A 
ATOM      4  N   UNL d   1     -49.264  12.904  23.344  0.00  0.00    -0.187 NA
ATOM      5  S   UNL d   1     -48.550  12.534  23.174  0.00  0.00     0.054 SA
ENDROOT
BRANCH   2   6
ATOM      6  N   UNL d   1     -47.338  12.909  22.441  0.00  0.00    -0.181 NA
ATOM      7  C   UNL d   1     -46.678  13.083  22.910  0.00  0.00     0.281 C 
ATOM      8  O   UNL d   1     -46.777  13.400  23.661  0.00  0.00    -0.265 OA
BRANCH   7   9
ATOM      9  C   UNL d   1     -45.925  12.939  22.622  0.00  0.00     0.058 A 
ATOM     10  C   UNL d   1     -45.573  13.471  22.105  0.00  0.00     0.005 A 
ATOM     11  C   UNL d   1     -44.812  13.325  21.814  0.00  0.00     0.000 A 
ATOM     12  C   UNL d   1     -44.408  12.647  22.042  0.00  0.00     0.000 A 
ATOM     13  C   UNL d   1     -44.760  12.108  22.563  0.00  0.00     0.000 A 
ATOM     14  C   UNL d   1     -43.651  12.501  21.752  0.00  0.00     0.000 C 
ATOM     15  C   UNL d   1     -45.521  12.254  22.854  0.00  0.00     0.005 A 
ENDBRANCH   7   9
ENDBRANCH   2   6
BRANCH   3  16
ATOM     16  C   UNL d   1     -49.848  14.210  23.039  0.00  0.00     0.036 A 
ATOM     17  C   UNL d   1     -49.873  14.743  23.673  0.00  0.00     0.003 A 
ATOM     18  C   UNL d   1     -50.482  15.301  23.698  0.00  0.00     0.000 A 
ATOM     19  C   UNL d   1     -51.059  15.328  23.100  0.00  0.00     0.000 A 
ATOM     20  C   UNL d   1     -51.025  14.795  22.478  0.00  0.00     0.000 A 
ATOM     21  C   UNL d   1     -50.418  14.234  22.445  0.00  0.00     0.003 A 
ENDBRANCH   3  16
TORSDOF 3
ENDMDL
MODEL 4
REMARK VINA RESULT:      -5.8      8.918     10.251
REMARK  3 active torsions:
REMARK  status: ('A' for Active; 'I' for Inactive)
REMARK    1  A    between atoms: N_5  and  C_2 
REMARK    2  A    between atoms: C_9  and  C_3 
REMARK       I    between atoms: C_7  and  N_5 
REMARK    3  A    between atoms: C_8  and  C_7 
ROOT
ATOM      1  N   UNL d   1     -38.962  14.492  19.923  0.00  0.00    -0.200 NA
ATOM      2  C   UNL d   1     -39.395  14.585  19.235  0.00  0.00     0.216 A 
ATOM      3  C   UNL d   1     -39.501  14.526  20.559  0.00  0.00     0.172 A 
ATOM      4  N   UNL d   1     -40.254  14.639  20.248  0.00  0.00    -0.187 NA
ATOM      5  S   UNL d   1     -40.189  14.675  19.430  0.00  0.00     0.054 SA
ENDROOT
BRANCH   2   6
ATOM      6  N   UNL d   1     -39.081  14.586  18.475  0.00  0.00    -0.181 NA
ATOM      7  C   UNL d   1     -39.197  13.931  17.981  0.00  0.00     0.281 C 
ATOM      8  O   UNL d   1     -39.623  13.282  18.249  0.00  0.00    -0.265 OA
BRANCH   7   9
ATOM      9  C   UNL d   1     -38.884  13.932  17.224  0.00  0.00     0.058 A 
ATOM     10  C   UNL d   1     -39.148  14.479  16.671  0.00  0.00     0.005 A 
ATOM     11  C   UNL d   1     -38.832  14.480  15.906  0.00  0.00     0.000 A 
ATOM     12  C   UNL d   1     -38.254  13.935  15.699  0.00  0.00     0.000 A 
ATOM     13  C   UNL d   1     -37.985  13.382  16.254  0.00  0.00     0.000 A 
ATOM     14  C   UNL d   1     -37.940  13.936  14.939  0.00  0.00     0.000 C 
ATOM     15  C   UNL d   1     -38.301  13.380  17.019  0.00  0.00     0.005 A 
ENDBRANCH   7   9
ENDBRANCH   2   6
BRANCH   3  16
ATOM     16  C   UNL d   1     -39.312  14.459  21.352  0.00  0.00     0.036 A 
ATOM     17  C   UNL d   1     -39.186  15.144  21.801  0.00  0.00     0.003 A 
ATOM     18  C   UNL d   1     -38.996  15.066  22.601  0.00  0.00     0.000 A 
ATOM     19  C   UNL d   1     -38.932  14.314  22.950  0.00  0.00     0.000 A 
ATOM     20  C   UNL d   1     -39.058  13.643  22.498  0.00  0.00     0.000 A 
ATOM     21  C   UNL d   1     -39.249  13.713  21.696  0.00  0.00     0.003 A 
ENDBRANCH   3  16
TORSDOF 3
ENDMDL
MODEL 5
REMARK VINA RESULT:      -5.8      8.900      9.920
REMARK  3 active torsions:
REMARK  status: ('A' for Active; 'I' for Inactive)
REMARK    1  A    between atoms: N_5  and  C_2 
REMARK    2  A    between atoms: C_9  and  C_3 
REMARK       I    between atoms: C_7  and  N_5 
REMARK    3  A    between atoms: C_8  and  C_7 
ROOT
ATOM      1  N   UNL d   1     -39.189  14.629  20.642  0.00  0.00    -0.200 NA
ATOM      2  C   UNL d   1     -38.985  14.525  19.857  0.00  0.00     0.216 A 
ATOM      3  C   UNL d   1     -38.666  14.164  21.097  0.00  0.00     0.172 A 
ATOM      4  N   UNL d   1     -38.150  13.784  20.579  0.00  0.00    -0.187 NA
ATOM      5  S   UNL d   1     -38.348  14.008  19.814  0.00  0.00     0.054 SA
ENDROOT
BRANCH   2   6
ATOM      6  N   UNL d   1     -39.360  14.884  19.219  0.00  0.00    -0.181 NA
ATOM      7  C   UNL d   1     -39.968  14.486  18.823  0.00  0.00     0.281 C 
ATOM      8  O   UNL d   1     -40.196  13.735  19.065  0.00  0.00    -0.265 OA
BRANCH   7   9
ATOM      9  C   UNL d   1     -40.342  14.843  18.188  0.00  0.00     0.058 A 
ATOM     10  C   UNL d   1     -40.140  14.632  17.420  0.00  0.00     0.005 A 
ATOM     11  C   UNL d   1     -40.518  14.993  16.778  0.00  0.00     0.000 A 
ATOM     12  C   UNL d   1     -41.095  15.563  16.908  0.00  0.00     0.000 A 
ATOM     13  C   UNL d   1     -41.301  15.778  17.681  0.00  0.00     0.000 A 
ATOM     14  C   UNL d   1     -41.471  15.922  16.270  0.00  0.00     0.000 C 
ATOM     15  C   UNL d   1     -40.923  15.417  18.323  0.00  0.00     0.005 A 
ENDBRANCH   7   9
ENDBRANCH   2   6
BRANCH   3  16
ATOM     16  C   UNL d   1     -38.666  14.098  21.912  0.00  0.00     0.036 A 
ATOM     17  C   UNL d   1     -38.586  14.780  22.376  0.00  0.00     0.003 A 
ATOM     18  C   UNL d   1     -38.587  14.703  23.198  0.00  0.00     0.000 A 
ATOM     19  C   UNL d   1     -38.667  13.956  23.555  0.00  0.00     0.000 A 
ATOM     20  C   UNL d   1     -38.746  13.289  23.087  0.00  0.00     0.000 A 
ATOM     21  C   UNL d   1     -38.745  13.357  22.262  0.00  0.00     0.003 A 
ENDBRANCH   3  16
TORSDOF 3
ENDMDL
MODEL 6
REMARK VINA RESULT:      -5.7      8.986     10.467
REMARK  3 active torsions:
REMARK  status: ('A' for Active; 'I' for Inactive)
REMARK    1  A    between atoms: N_5  and  C_2 
REMARK    2  A    between atoms: C_9  and  C_3 
REMARK       I    between atoms: C_7  and  N_5 
REMARK    3  A    between atoms: C_8  and  C_7 
ROOT
ATOM      1  N   UNL d   1     -38.809  14.007  18.164  0.00  0.00    -0.200 NA
ATOM      2  C   UNL d   1     -39.395  14.047  18.732  0.00  0.00     0.216 A 
ATOM      3  C   UNL d   1     -39.124  14.331  17.462  0.00  0.00     0.172 A 
ATOM      4  N   UNL d   1     -39.899  14.563  17.616  0.00  0.00    -0.187 NA
ATOM      5  S   UNL d   1     -40.066  14.388  18.400  0.00  0.00     0.054 SA
ENDROOT
BRANCH   2   6
ATOM      6  N   UNL d   1     -39.320  13.787  19.509  0.00  0.00    -0.181 NA
ATOM      7  C   UNL d   1     -39.010  14.296  20.085  0.00  0.00     0.281 C 
ATOM      8  O   UNL d   1     -38.779  15.057  19.882  0.00  0.00    -0.265 OA
BRANCH   7   9
ATOM      9  C   UNL d   1     -38.935  14.036  20.858  0.00  0.00     0.058 A 
ATOM     10  C   UNL d   1     -39.528  14.194  21.404  0.00  0.00     0.005 A 
ATOM     11  C   UNL d   1     -39.451  13.932  22.186  0.00  0.00     0.000 A 
ATOM     12  C   UNL d   1     -38.783  13.514  22.416  0.00  0.00     0.000 A 
ATOM     13  C   UNL d   1     -38.182  13.354  21.868  0.00  0.00     0.000 A 
ATOM     14  C   UNL d   1     -38.707  13.254  23.193  0.00  0.00     0.000 C 
ATOM     15  C   UNL d   1     -38.259  13.616  21.087  0.00  0.00     0.005 A 
ENDBRANCH   7   9
ENDBRANCH   2   6
BRANCH   3  16
ATOM     16  C   UNL d   1     -38.732  14.404  16.748  0.00  0.00     0.036 A 
ATOM     17  C   UNL d   1     -38.567  15.159  16.449  0.00  0.00     0.003 A 
ATOM     18  C   UNL d   1     -38.170  15.222  15.727  0.00  0.00     0.000 A 
ATOM     19  C   UNL d   1     -37.940  14.542  15.308  0.00  0.00     0.000 A 
ATOM     20  C   UNL d   1     -38.107  13.800  15.613  0.00  0.00     0.000 A 
ATOM     21  C   UNL d   1     -38.504  13.728  16.335  0.00  0.00     0.003 A 
ENDBRANCH   3  16
TORSDOF 3
ENDMDL
