MODEL 1
REMARK VINA RESULT:      -5.2      0.000      0.000
REMARK  4 active torsions:
REMARK  status: ('A' for Active; 'I' for Inactive)
REMARK    1  A    between atoms: S_10  and  C_5 
REMARK       I    between atoms: N_7  and  C_8 
REMARK    2  A    between atoms: C_8  and  C_11 
REMARK    3  A    between atoms: C_11  and  S_10 
REMARK    4  A    between atoms: C_19  and  C_12 
ROOT
ATOM      1  S   UNL d   1     -41.414-122.488 -51.311  0.00  0.00    -0.054 SA
ENDROOT
BRANCH   1   2
ATOM      2  C   UNL d   1     -41.484-122.575 -52.141  0.00  0.00     0.163 A 
ATOM      3  S   UNL d   1     -41.706-121.976 -52.686  0.00  0.00    -0.021 SA
ATOM      4  C   UNL d   1     -41.705-122.304 -53.450  0.00  0.00     0.200 A 
ATOM      5  N   UNL d   1     -41.882-121.867 -53.986  0.00  0.00    -0.182 NA
ATOM      6  N   UNL d   1     -41.481-123.114 -53.394  0.00  0.00    -0.204 N 
ATOM      7  C   UNL d   1     -41.914-122.079 -54.771  0.00  0.00     0.281 A 
ATOM      8  O   UNL d   1     -42.146-121.313 -55.011  0.00  0.00    -0.265 OA
ATOM      9  C   UNL d   1     -41.744-122.856 -55.115  0.00  0.00     0.064 A 
ATOM     10  C   UNL d   1     -41.504-123.574 -54.696  0.00  0.00     0.026 A 
ATOM     11  C   UNL d   1     -41.392-123.646 -53.872  0.00  0.00     0.103 A 
ATOM     12  N   UNL d   1     -41.344-123.283 -52.582  0.00  0.00    -0.150 NA
ENDBRANCH   1   2
BRANCH   1  13
ATOM     13  C   UNL d   1     -41.922-122.890 -50.809  0.00  0.00     0.099 C 
BRANCH  13  14
ATOM     14  C   UNL d   1     -41.807-122.856 -49.993  0.00  0.00     0.271 C 
ATOM     15  N   UNL d   1     -42.360-123.162 -49.482  0.00  0.00    -0.273 N 
ATOM     16  C   UNL d   1     -42.243-123.127 -48.678  0.00  0.00     0.067 A 
ATOM     17  C   UNL d   1     -43.043-123.510 -49.775  0.00  0.00     0.083 A 
ATOM     18  C   UNL d   1     -42.814-123.442 -48.165  0.00  0.00     0.018 A 
ATOM     19  C   UNL d   1     -43.487-123.785 -48.470  0.00  0.00     0.003 A 
ATOM     20  C   UNL d   1     -43.599-123.818 -49.277  0.00  0.00     0.019 A 
ATOM     21  O   UNL d   1     -41.123-122.507 -49.695  0.00  0.00    -0.266 OA
BRANCH  16  22
ATOM     22  C   UNL d   1     -41.564-122.780 -48.380  0.00  0.00     0.018 C 
ATOM     23  C   UNL d   1     -41.417-122.811 -47.562  0.00  0.00     0.002 C 
ENDBRANCH  16  22
ENDBRANCH  13  14
ENDBRANCH   1  13
TORSDOF 4
ENDMDL
MODEL 2
REMARK VINA RESULT:      -4.2      1.041      5.088
REMARK  4 active torsions:
REMARK  status: ('A' for Active; 'I' for Inactive)
REMARK    1  A    between atoms: S_10  and  C_5 
REMARK       I    between atoms: N_7  and  C_8 
REMARK    2  A    between atoms: C_8  and  C_11 
REMARK    3  A    between atoms: C_11  and  S_10 
REMARK    4  A    between atoms: C_19  and  C_12 
ROOT
ATOM      1  S   UNL d   1     -41.896-121.987 -51.662  0.00  0.00    -0.054 SA
ENDROOT
BRANCH   1   2
ATOM      2  C   UNL d   1     -41.911-122.335 -50.900  0.00  0.00     0.163 A 
ATOM      3  S   UNL d   1     -42.526-122.262 -50.332  0.00  0.00    -0.021 SA
ATOM      4  C   UNL d   1     -42.311-122.696 -49.657  0.00  0.00     0.200 A 
ATOM      5  N   UNL d   1     -42.775-122.694 -49.115  0.00  0.00    -0.182 NA
ATOM      6  N   UNL d   1     -41.558-123.049 -49.793  0.00  0.00    -0.204 N 
ATOM      7  C   UNL d   1     -42.669-123.083 -48.408  0.00  0.00     0.281 A 
ATOM      8  O   UNL d   1     -43.403-122.819 -48.106  0.00  0.00    -0.265 OA
ATOM      9  C   UNL d   1     -41.993-123.569 -48.169  0.00  0.00     0.064 A 
ATOM     10  C   UNL d   1     -41.284-123.744 -48.632  0.00  0.00     0.026 A 
ATOM     11  C   UNL d   1     -41.123-123.472 -49.405  0.00  0.00     0.103 A 
ATOM     12  N   UNL d   1     -41.310-122.825 -50.565  0.00  0.00    -0.150 NA
ENDBRANCH   1   2
BRANCH   1  13
ATOM     13  C   UNL d   1     -41.658-122.424 -52.312  0.00  0.00     0.099 C 
BRANCH  13  14
ATOM     14  C   UNL d   1     -41.845-122.168 -53.073  0.00  0.00     0.271 C 
ATOM     15  N   UNL d   1     -41.670-122.626 -53.721  0.00  0.00    -0.273 N 
ATOM     16  C   UNL d   1     -41.857-122.370 -54.470  0.00  0.00     0.067 A 
ATOM     17  C   UNL d   1     -41.301-123.353 -53.624  0.00  0.00     0.083 A 
ATOM     18  C   UNL d   1     -41.673-122.845 -55.126  0.00  0.00     0.018 A 
ATOM     19  C   UNL d   1     -41.308-123.564 -55.014  0.00  0.00     0.003 A 
ATOM     20  C   UNL d   1     -41.123-123.816 -54.261  0.00  0.00     0.019 A 
ATOM     21  O   UNL d   1     -42.215-121.439 -53.175  0.00  0.00    -0.266 OA
BRANCH  16  22
ATOM     22  C   UNL d   1     -42.224-121.645 -54.573  0.00  0.00     0.018 C 
ATOM     23  C   UNL d   1     -42.357-121.363 -55.344  0.00  0.00     0.002 C 
ENDBRANCH  16  22
ENDBRANCH  13  14
ENDBRANCH   1  13
TORSDOF 4
ENDMDL
MODEL 3
REMARK VINA RESULT:      -2.3      1.269      5.060
REMARK  4 active torsions:
REMARK  status: ('A' for Active; 'I' for Inactive)
REMARK    1  A    between atoms: S_10  and  C_5 
REMARK       I    between atoms: N_7  and  C_8 
REMARK    2  A    between atoms: C_8  and  C_11 
REMARK    3  A    between atoms: C_11  and  S_10 
REMARK    4  A    between atoms: C_19  and  C_12 
ROOT
ATOM      1  S   UNL d   1     -41.492-123.631 -51.483  0.00  0.00    -0.054 SA
ENDROOT
BRANCH   1   2
ATOM      2  C   UNL d   1     -41.619-123.521 -50.662  0.00  0.00     0.163 A 
ATOM      3  S   UNL d   1     -42.260-123.109 -50.310  0.00  0.00    -0.021 SA
ATOM      4  C   UNL d   1     -42.167-123.135 -49.485  0.00  0.00     0.200 A 
ATOM      5  N   UNL d   1     -42.667-122.809 -49.095  0.00  0.00    -0.182 NA
ATOM      6  N   UNL d   1     -41.464-123.565 -49.308  0.00  0.00    -0.204 N 
ATOM      7  C   UNL d   1     -42.677-122.771 -48.282  0.00  0.00     0.281 A 
ATOM      8  O   UNL d   1     -43.387-122.330 -48.270  0.00  0.00    -0.265 OA
ATOM      9  C   UNL d   1     -42.099-123.109 -47.731  0.00  0.00     0.064 A 
ATOM     10  C   UNL d   1     -41.388-123.559 -47.929  0.00  0.00     0.026 A 
ATOM     11  C   UNL d   1     -41.127-123.751 -48.699  0.00  0.00     0.103 A 
ATOM     12  N   UNL d   1     -41.124-123.805 -50.039  0.00  0.00    -0.150 NA
ENDBRANCH   1   2
BRANCH   1  13
ATOM     13  C   UNL d   1     -41.419-122.985 -51.981  0.00  0.00     0.099 C 
BRANCH  13  14
ATOM     14  C   UNL d   1     -41.403-123.094 -52.798  0.00  0.00     0.271 C 
ATOM     15  N   UNL d   1     -41.637-122.500 -53.301  0.00  0.00    -0.273 N 
ATOM     16  C   UNL d   1     -41.620-122.610 -54.106  0.00  0.00     0.067 A 
ATOM     17  C   UNL d   1     -41.893-121.781 -52.998  0.00  0.00     0.083 A 
ATOM     18  C   UNL d   1     -41.861-121.997 -54.612  0.00  0.00     0.018 A 
ATOM     19  C   UNL d   1     -42.112-121.290 -54.297  0.00  0.00     0.003 A 
ATOM     20  C   UNL d   1     -42.127-121.184 -53.489  0.00  0.00     0.019 A 
ATOM     21  O   UNL d   1     -41.147-123.814 -53.105  0.00  0.00    -0.266 OA
BRANCH  16  22
ATOM     22  C   UNL d   1     -41.365-123.326 -54.413  0.00  0.00     0.018 C 
ATOM     23  C   UNL d   1     -41.264-123.401 -55.236  0.00  0.00     0.002 C 
ENDBRANCH  16  22
ENDBRANCH  13  14
ENDBRANCH   1  13
TORSDOF 4
ENDMDL
