MODEL 1
REMARK VINA RESULT:      -6.2      0.000      0.000
REMARK  2 active torsions:
REMARK  status: ('A' for Active; 'I' for Inactive)
REMARK    1  A    between atoms: C_6  and  C_4 
REMARK    2  A    between atoms: C_7  and  C_5 
ROOT
ATOM      1  O   UNL d   1     -41.829-122.661 -52.278  0.00  0.00    -0.268 OA
ATOM      2  N   UNL d   1     -41.123-121.556 -52.552  0.00  0.00    -0.121 NA
ATOM      3  N   UNL d   1     -41.144-121.644 -51.727  0.00  0.00    -0.121 NA
ATOM      4  C   UNL d   1     -41.580-122.327 -51.562  0.00  0.00     0.204 A 
ATOM      5  C   UNL d   1     -41.540-122.175 -52.884  0.00  0.00     0.204 A 
ENDROOT
BRANCH   4   6
ATOM      6  C   UNL d   1     -41.744-122.631 -50.807  0.00  0.00     0.046 A 
ATOM      7  C   UNL d   1     -41.235-123.174 -50.458  0.00  0.00     0.024 A 
ATOM      8  C   UNL d   1     -41.400-123.471 -49.717  0.00  0.00     0.099 A 
ATOM      9  N   UNL d   1     -42.078-123.227 -49.315  0.00  0.00    -0.242 NA
ATOM     10  C   UNL d   1     -42.592-122.686 -49.654  0.00  0.00     0.099 A 
ATOM     11  C   UNL d   1     -42.422-122.387 -50.405  0.00  0.00     0.024 A 
ENDBRANCH   4   6
BRANCH   5  12
ATOM     12  C   UNL d   1     -41.660-122.304 -53.697  0.00  0.00     0.043 A 
ATOM     13  C   UNL d   1     -41.261-122.912 -54.082  0.00  0.00     0.004 A 
ATOM     14  C   UNL d   1     -41.380-123.039 -54.882  0.00  0.00     0.000 A 
ATOM     15  C   UNL d   1     -41.901-122.554 -55.301  0.00  0.00     0.000 A 
ATOM     16  C   UNL d   1     -42.301-121.945 -54.917  0.00  0.00     0.000 A 
ATOM     17  C   UNL d   1     -42.180-121.819 -54.110  0.00  0.00     0.004 A 
ENDBRANCH   5  12
TORSDOF 2
ENDMDL
MODEL 2
REMARK VINA RESULT:      -6.0      0.766      3.965
REMARK  2 active torsions:
REMARK  status: ('A' for Active; 'I' for Inactive)
REMARK    1  A    between atoms: C_6  and  C_4 
REMARK    2  A    between atoms: C_7  and  C_5 
ROOT
ATOM      1  O   UNL d   1     -41.780-122.676 -52.267  0.00  0.00    -0.268 OA
ATOM      2  N   UNL d   1     -41.140-121.624 -51.739  0.00  0.00    -0.121 NA
ATOM      3  N   UNL d   1     -41.123-121.542 -52.565  0.00  0.00    -0.121 NA
ATOM      4  C   UNL d   1     -41.518-122.192 -52.886  0.00  0.00     0.204 A 
ATOM      5  C   UNL d   1     -41.540-122.314 -51.561  0.00  0.00     0.204 A 
ENDROOT
BRANCH   4   6
ATOM      6  C   UNL d   1     -41.637-122.341 -53.695  0.00  0.00     0.046 A 
ATOM      7  C   UNL d   1     -41.211-122.933 -54.075  0.00  0.00     0.024 A 
ATOM      8  C   UNL d   1     -41.331-123.076 -54.869  0.00  0.00     0.099 A 
ATOM      9  N   UNL d   1     -41.879-122.628 -55.292  0.00  0.00    -0.242 NA
ATOM     10  C   UNL d   1     -42.308-122.036 -54.923  0.00  0.00     0.099 A 
ATOM     11  C   UNL d   1     -42.185-121.893 -54.119  0.00  0.00     0.024 A 
ENDBRANCH   4   6
BRANCH   5  12
ATOM     12  C   UNL d   1     -41.687-122.612 -50.798  0.00  0.00     0.043 A 
ATOM     13  C   UNL d   1     -42.364-122.385 -50.389  0.00  0.00     0.004 A 
ATOM     14  C   UNL d   1     -42.507-122.680 -49.638  0.00  0.00     0.000 A 
ATOM     15  C   UNL d   1     -41.970-123.204 -49.294  0.00  0.00     0.000 A 
ATOM     16  C   UNL d   1     -41.292-123.431 -49.702  0.00  0.00     0.000 A 
ATOM     17  C   UNL d   1     -41.149-123.134 -50.459  0.00  0.00     0.004 A 
ENDBRANCH   5  12
TORSDOF 2
ENDMDL
MODEL 3
REMARK VINA RESULT:      -5.2      1.004      4.076
REMARK  2 active torsions:
REMARK  status: ('A' for Active; 'I' for Inactive)
REMARK    1  A    between atoms: C_6  and  C_4 
REMARK    2  A    between atoms: C_7  and  C_5 
ROOT
ATOM      1  O   UNL d   1     -41.815-123.135 -51.354  0.00  0.00    -0.268 OA
ATOM      2  N   UNL d   1     -41.399-121.994 -50.786  0.00  0.00    -0.121 NA
ATOM      3  N   UNL d   1     -41.227-121.950 -51.597  0.00  0.00    -0.121 NA
ATOM      4  C   UNL d   1     -41.485-122.654 -51.944  0.00  0.00     0.204 A 
ATOM      5  C   UNL d   1     -41.756-122.715 -50.642  0.00  0.00     0.204 A 
ENDROOT
BRANCH   4   6
ATOM      6  C   UNL d   1     -41.426-122.854 -52.748  0.00  0.00     0.046 A 
ATOM      7  C   UNL d   1     -41.607-122.301 -53.328  0.00  0.00     0.024 A 
ATOM      8  C   UNL d   1     -41.548-122.501 -54.116  0.00  0.00     0.099 A 
ATOM      9  N   UNL d   1     -41.306-123.259 -54.334  0.00  0.00    -0.242 NA
ATOM     10  C   UNL d   1     -41.123-123.817 -53.764  0.00  0.00     0.099 A 
ATOM     11  C   UNL d   1     -41.183-123.612 -52.966  0.00  0.00     0.024 A 
ENDBRANCH   4   6
BRANCH   5  12
ATOM     12  C   UNL d   1     -42.021-122.991 -49.903  0.00  0.00     0.043 A 
ATOM     13  C   UNL d   1     -41.529-123.456 -49.435  0.00  0.00     0.004 A 
ATOM     14  C   UNL d   1     -41.791-123.727 -48.708  0.00  0.00     0.000 A 
ATOM     15  C   UNL d   1     -42.549-123.532 -48.446  0.00  0.00     0.000 A 
ATOM     16  C   UNL d   1     -43.042-123.066 -48.913  0.00  0.00     0.000 A 
ATOM     17  C   UNL d   1     -42.776-122.794 -49.646  0.00  0.00     0.004 A 
ENDBRANCH   5  12
TORSDOF 2
ENDMDL
MODEL 4
REMARK VINA RESULT:      -4.2      0.822      1.418
REMARK  2 active torsions:
REMARK  status: ('A' for Active; 'I' for Inactive)
REMARK    1  A    between atoms: C_6  and  C_4 
REMARK    2  A    between atoms: C_7  and  C_5 
ROOT
ATOM      1  O   UNL d   1     -42.028-122.792 -51.226  0.00  0.00    -0.268 OA
ATOM      2  N   UNL d   1     -41.123-121.807 -51.310  0.00  0.00    -0.121 NA
ATOM      3  N   UNL d   1     -41.322-121.899 -50.510  0.00  0.00    -0.121 NA
ATOM      4  C   UNL d   1     -41.880-122.507 -50.462  0.00  0.00     0.204 A 
ATOM      5  C   UNL d   1     -41.553-122.351 -51.743  0.00  0.00     0.204 A 
ENDROOT
BRANCH   4   6
ATOM      6  C   UNL d   1     -42.236-122.790 -49.766  0.00  0.00     0.046 A 
ATOM      7  C   UNL d   1     -41.857-122.707 -49.042  0.00  0.00     0.024 A 
ATOM      8  C   UNL d   1     -42.210-122.986 -48.362  0.00  0.00     0.099 A 
ATOM      9  N   UNL d   1     -42.949-123.352 -48.400  0.00  0.00    -0.242 NA
ATOM     10  C   UNL d   1     -43.335-123.439 -49.116  0.00  0.00     0.099 A 
ATOM     11  C   UNL d   1     -42.975-123.155 -49.804  0.00  0.00     0.024 A 
ENDBRANCH   4   6
BRANCH   5  12
ATOM     12  C   UNL d   1     -41.526-122.452 -52.568  0.00  0.00     0.043 A 
ATOM     13  C   UNL d   1     -41.872-121.894 -53.064  0.00  0.00     0.004 A 
ATOM     14  C   UNL d   1     -41.844-121.995 -53.877  0.00  0.00     0.000 A 
ATOM     15  C   UNL d   1     -41.469-122.658 -54.195  0.00  0.00     0.000 A 
ATOM     16  C   UNL d   1     -41.123-123.217 -53.700  0.00  0.00     0.000 A 
ATOM     17  C   UNL d   1     -41.151-123.114 -52.881  0.00  0.00     0.004 A 
ENDBRANCH   5  12
TORSDOF 2
ENDMDL
