MODEL 1
REMARK VINA RESULT:      -8.8      0.000      0.000
REMARK  4 active torsions:
REMARK  status: ('A' for Active; 'I' for Inactive)
REMARK    1  A    between atoms: C_2  and  C_1 
REMARK       I    between atoms: N_5  and  C_2 
REMARK    2  A    between atoms: C_10  and  N_5 
REMARK    3  A    between atoms: O_9  and  C_11 
REMARK    4  A    between atoms: C_12  and  O_9 
ROOT
ATOM      1  C   UNL d   1      50.982  34.129  53.035  0.00  0.00     0.085 A 
ATOM      2  C   UNL d   1      52.449  33.399  53.116  0.00  0.00     0.100 A 
ATOM      3  C   UNL d   1      51.031  33.325  53.233  0.00  0.00     0.021 A 
ATOM      4  C   UNL d   1      51.667  34.562  52.879  0.00  0.00     0.021 A 
ATOM      5  C   UNL d   1      51.762  32.963  53.273  0.00  0.00     0.026 A 
ATOM      6  C   UNL d   1      52.401  34.186  52.922  0.00  0.00     0.026 A 
ENDROOT
BRANCH   1   7
ATOM      7  N   UNL d   1      50.246  34.497  52.993  0.00  0.00    -0.206 NA
ATOM      8  C   UNL d   1      49.855  34.555  52.265  0.00  0.00     0.303 C 
ATOM      9  O   UNL d   1      50.204  34.245  51.589  0.00  0.00    -0.263 OA
BRANCH   8  10
ATOM     10  C   UNL d   1      49.119  34.923  52.223  0.00  0.00     0.176 A 
ATOM     11  C   UNL d   1      48.623  34.939  51.562  0.00  0.00     0.110 A 
ATOM     12  N   UNL d   1      47.946  35.363  51.759  0.00  0.00    -0.233 NA
ATOM     13  C   UNL d   1      48.781  34.591  50.838  0.00  0.00     0.023 C 
ATOM     14  C   UNL d   1      48.025  35.613  52.551  0.00  0.00     0.259 A 
ATOM     15  O   UNL d   1      48.752  35.336  52.829  0.00  0.00    -0.296 OA
ENDBRANCH   8  10
ENDBRANCH   1   7
BRANCH   2  16
ATOM     16  O   UNL d   1      53.185  33.025  53.159  0.00  0.00    -0.307 OA
BRANCH  16  17
ATOM     17  C   UNL d   1      53.624  33.060  53.841  0.00  0.00     0.100 A 
ATOM     18  C   UNL d   1      53.531  32.471  54.414  0.00  0.00     0.025 A 
ATOM     19  C   UNL d   1      53.977  32.510  55.105  0.00  0.00     0.002 A 
ATOM     20  C   UNL d   1      54.518  33.131  55.233  0.00  0.00     0.000 A 
ATOM     21  C   UNL d   1      54.602  33.723  54.641  0.00  0.00     0.002 A 
ATOM     22  C   UNL d   1      54.147  33.667  53.958  0.00  0.00     0.025 A 
ENDBRANCH  16  17
ENDBRANCH   2  16
TORSDOF 4
ENDMDL
MODEL 2
REMARK VINA RESULT:      -7.0      3.071      4.127
REMARK  4 active torsions:
REMARK  status: ('A' for Active; 'I' for Inactive)
REMARK    1  A    between atoms: C_2  and  C_1 
REMARK       I    between atoms: N_5  and  C_2 
REMARK    2  A    between atoms: C_10  and  N_5 
REMARK    3  A    between atoms: O_9  and  C_11 
REMARK    4  A    between atoms: C_12  and  O_9 
ROOT
ATOM      1  C   UNL d   1      53.171  32.610  53.239  0.00  0.00     0.085 A 
ATOM      2  C   UNL d   1      53.164  30.981  53.043  0.00  0.00     0.100 A 
ATOM      3  C   UNL d   1      52.466  32.223  53.039  0.00  0.00     0.021 A 
ATOM      4  C   UNL d   1      53.868  32.180  53.341  0.00  0.00     0.021 A 
ATOM      5  C   UNL d   1      52.464  31.412  52.941  0.00  0.00     0.026 A 
ATOM      6  C   UNL d   1      53.855  31.360  53.240  0.00  0.00     0.026 A 
ENDROOT
BRANCH   1   7
ATOM      7  N   UNL d   1      53.176  33.428  53.338  0.00  0.00    -0.206 NA
ATOM      8  C   UNL d   1      53.062  33.752  54.092  0.00  0.00     0.303 C 
ATOM      9  O   UNL d   1      52.946  33.256  54.736  0.00  0.00    -0.263 OA
BRANCH   8  10
ATOM     10  C   UNL d   1      53.067  34.570  54.192  0.00  0.00     0.176 A 
ATOM     11  C   UNL d   1      53.404  34.978  54.826  0.00  0.00     0.110 A 
ATOM     12  N   UNL d   1      53.284  35.784  54.706  0.00  0.00    -0.233 NA
ATOM     13  C   UNL d   1      53.791  34.638  55.462  0.00  0.00     0.023 C 
ATOM     14  C   UNL d   1      52.868  35.875  53.990  0.00  0.00     0.259 A 
ATOM     15  O   UNL d   1      52.738  35.120  53.679  0.00  0.00    -0.296 OA
ENDBRANCH   8  10
ENDBRANCH   1   7
BRANCH   2  16
ATOM     16  O   UNL d   1      53.154  30.160  52.943  0.00  0.00    -0.307 OA
BRANCH  16  17
ATOM     17  C   UNL d   1      53.189  29.668  53.588  0.00  0.00     0.100 A 
ATOM     18  C   UNL d   1      53.912  29.328  53.800  0.00  0.00     0.025 A 
ATOM     19  C   UNL d   1      53.944  28.829  54.455  0.00  0.00     0.002 A 
ATOM     20  C   UNL d   1      53.260  28.665  54.903  0.00  0.00     0.000 A 
ATOM     21  C   UNL d   1      52.532  29.018  54.675  0.00  0.00     0.002 A 
ATOM     22  C   UNL d   1      52.521  29.513  54.018  0.00  0.00     0.025 A 
ENDBRANCH  16  17
ENDBRANCH   2  16
TORSDOF 4
ENDMDL
MODEL 3
REMARK VINA RESULT:      -7.0      1.458      5.107
REMARK  4 active torsions:
REMARK  status: ('A' for Active; 'I' for Inactive)
REMARK    1  A    between atoms: C_2  and  C_1 
REMARK       I    between atoms: N_5  and  C_2 
REMARK    2  A    between atoms: C_10  and  N_5 
REMARK    3  A    between atoms: O_9  and  C_11 
REMARK    4  A    between atoms: C_12  and  O_9 
ROOT
ATOM      1  C   UNL d   1      51.937  34.083  53.342  0.00  0.00     0.085 A 
ATOM      2  C   UNL d   1      50.535  34.024  52.491  0.00  0.00     0.100 A 
ATOM      3  C   UNL d   1      51.903  34.413  52.582  0.00  0.00     0.021 A 
ATOM      4  C   UNL d   1      51.270  33.726  53.671  0.00  0.00     0.021 A 
ATOM      5  C   UNL d   1      51.204  34.383  52.159  0.00  0.00     0.026 A 
ATOM      6  C   UNL d   1      50.569  33.701  53.235  0.00  0.00     0.026 A 
ENDROOT
BRANCH   1   7
ATOM      7  N   UNL d   1      52.640  34.112  53.770  0.00  0.00    -0.206 NA
ATOM      8  C   UNL d   1      53.091  33.424  53.867  0.00  0.00     0.303 C 
ATOM      9  O   UNL d   1      52.834  32.718  53.536  0.00  0.00    -0.263 OA
BRANCH   8  10
ATOM     10  C   UNL d   1      53.794  33.452  54.295  0.00  0.00     0.176 A 
ATOM     11  C   UNL d   1      54.499  33.070  54.094  0.00  0.00     0.110 A 
ATOM     12  N   UNL d   1      55.060  33.245  54.671  0.00  0.00    -0.233 NA
ATOM     13  C   UNL d   1      54.616  32.599  53.436  0.00  0.00     0.023 C 
ATOM     14  C   UNL d   1      54.698  33.742  55.234  0.00  0.00     0.259 A 
ATOM     15  O   UNL d   1      53.917  33.864  54.995  0.00  0.00    -0.296 OA
ENDBRANCH   8  10
ENDBRANCH   1   7
BRANCH   2  16
ATOM     16  O   UNL d   1      49.831  33.998  52.057  0.00  0.00    -0.307 OA
BRANCH  16  17
ATOM     17  C   UNL d   1      49.282  34.591  52.131  0.00  0.00     0.100 A 
ATOM     18  C   UNL d   1      48.867  34.845  51.462  0.00  0.00     0.025 A 
ATOM     19  C   UNL d   1      48.311  35.447  51.540  0.00  0.00     0.002 A 
ATOM     20  C   UNL d   1      48.161  35.800  52.280  0.00  0.00     0.000 A 
ATOM     21  C   UNL d   1      48.591  35.531  52.952  0.00  0.00     0.002 A 
ATOM     22  C   UNL d   1      49.142  34.929  52.853  0.00  0.00     0.025 A 
ENDBRANCH  16  17
ENDBRANCH   2  16
TORSDOF 4
ENDMDL
