MODEL 1
REMARK VINA RESULT:      -2.9      0.000      0.000
REMARK  1 active torsions:
REMARK  status: ('A' for Active; 'I' for Inactive)
REMARK    1  A    between atoms: C_5  and  C_1 
ROOT
ATOM      1  C   UNL d   1      23.798  12.850  -0.609  0.00  0.00     0.169 A 
ATOM      2  N   UNL d   1      24.145  12.187  -0.260  0.00  0.00    -0.142 NA
ATOM      3  C   UNL d   1      23.991  12.848  -1.414  0.00  0.00     0.048 A 
ATOM      4  N   UNL d   1      24.547  11.783  -0.854  0.00  0.00    -0.148 NA
ATOM      5  C   UNL d   1      24.446  12.199  -1.561  0.00  0.00     0.105 A 
ATOM      6  C   UNL d   1      24.758  11.987  -2.296  0.00  0.00     0.023 C 
ENDROOT
BRANCH   1   7
ATOM      7  C   UNL d   1      23.341  13.412  -0.219  0.00  0.00     0.231 C 
ATOM      8  O   UNL d   1      22.559  13.246  -0.020  0.00  0.00    -0.643 OA
ATOM      9  O   UNL d   1      23.668  14.144  -0.027  0.00  0.00    -0.643 OA
ENDBRANCH   1   7
TORSDOF 1
ENDMDL
MODEL 2
REMARK VINA RESULT:      -1.6      1.698      2.255
REMARK  1 active torsions:
REMARK  status: ('A' for Active; 'I' for Inactive)
REMARK    1  A    between atoms: C_5  and  C_1 
ROOT
ATOM      1  C   UNL d   1      24.046  12.788  -1.196  0.00  0.00     0.169 A 
ATOM      2  N   UNL d   1      23.430  12.861  -0.651  0.00  0.00    -0.142 NA
ATOM      3  C   UNL d   1      24.618  13.359  -1.016  0.00  0.00     0.048 A 
ATOM      4  N   UNL d   1      23.629  13.475  -0.141  0.00  0.00    -0.148 NA
ATOM      5  C   UNL d   1      24.363  13.776  -0.375  0.00  0.00     0.105 A 
ATOM      6  C   UNL d   1      24.768  14.398  -0.014  0.00  0.00     0.023 C 
ENDROOT
BRANCH   1   7
ATOM      7  C   UNL d   1      24.080  12.242  -1.810  0.00  0.00     0.231 C 
ATOM      8  O   UNL d   1      24.756  11.785  -1.923  0.00  0.00    -0.643 OA
ATOM      9  O   UNL d   1      23.434  12.151  -2.314  0.00  0.00    -0.643 OA
ENDBRANCH   1   7
TORSDOF 1
ENDMDL
