MODEL 1
REMARK VINA RESULT:      49.1      0.000      0.000
REMARK  3 active torsions:
REMARK  status: ('A' for Active; 'I' for Inactive)
REMARK    1  A    between atoms: C_3  and  C_1 
REMARK       I    between atoms: N_4  and  C_1 
REMARK    2  A    between atoms: N_2  and  C_7 
REMARK    3  A    between atoms: C_16  and  N_4 
ROOT
ATOM      1  C   UNL d   1      14.045  14.902  -3.343  0.00  0.00     0.064 A 
ATOM      2  C   UNL d   1      13.232  14.742  -3.358  0.00  0.00     0.019 A 
ATOM      3  C   UNL d   1      14.549  14.462  -3.839  0.00  0.00     0.019 A 
ATOM      4  C   UNL d   1      13.429  13.727  -4.343  0.00  0.00     0.085 A 
ATOM      5  C   UNL d   1      12.925  14.158  -3.855  0.00  0.00     0.021 A 
ATOM      6  C   UNL d   1      14.242  13.878  -4.336  0.00  0.00     0.021 A 
ENDROOT
BRANCH   4   7
ATOM      7  N   UNL d   1      13.124  13.144  -4.840  0.00  0.00    -0.208 NA
ATOM      8  C   UNL d   1      13.091  12.366  -4.591  0.00  0.00     0.285 C 
ATOM      9  O   UNL d   1      12.785  11.782  -5.088  0.00  0.00    -0.265 OA
BRANCH   8  10
ATOM     10  C   UNL d   1      13.366  12.167  -3.841  0.00  0.00     0.087 A 
ATOM     11  S   UNL d   1      14.117  12.019  -3.547  0.00  0.00    -0.082 SA
ATOM     12  C   UNL d   1      14.058  11.845  -2.752  0.00  0.00     0.036 A 
ATOM     13  C   UNL d   1      13.258  11.882  -2.538  0.00  0.00     0.008 A 
ATOM     14  C   UNL d   1      12.834  12.081  -3.216  0.00  0.00     0.012 A 
ENDBRANCH   8  10
ENDBRANCH   4   7
BRANCH   1  15
ATOM     15  N   UNL d   1      14.351  15.486  -2.846  0.00  0.00    -0.301 N 
ATOM     16  C   UNL d   1      14.372  15.370  -2.038  0.00  0.00     0.100 A 
ATOM     17  C   UNL d   1      14.678  15.954  -1.541  0.00  0.00     0.100 A 
ATOM     18  N   UNL d   1      14.963  16.653  -1.853  0.00  0.00    -0.299 N 
ATOM     19  C   UNL d   1      14.944  16.773  -2.668  0.00  0.00     0.100 A 
ATOM     20  C   UNL d   1      15.268  17.236  -1.357  0.00  0.00     0.100 C 
ATOM     21  C   UNL d   1      14.638  16.189  -3.164  0.00  0.00     0.100 A 
ENDBRANCH   1  15
TORSDOF 3
ENDMDL
