MODEL 1
REMARK VINA RESULT:      96.6      0.000      0.000
REMARK  4 active torsions:
REMARK  status: ('A' for Active; 'I' for Inactive)
REMARK    1  A    between atoms: C_4  and  C_1 
REMARK    2  A    between atoms: N_5  and  C_2 
REMARK       I    between atoms: N_9  and  C_4 
REMARK       I    between atoms: C_7  and  N_5 
REMARK    3  A    between atoms: C_13  and  C_7 
REMARK    4  A    between atoms: C_11  and  N_9 
ROOT
ATOM      1  C   UNL d   1     -49.056  27.288  35.156  0.00  0.00     0.175 A 
ATOM      2  C   UNL d   1     -49.171  27.911  35.598  0.00  0.00     0.114 A 
ATOM      3  O   UNL d   1     -49.481  26.713  35.442  0.00  0.00    -0.301 OA
ATOM      4  C   UNL d   1     -49.667  27.724  36.157  0.00  0.00     0.043 A 
ATOM      5  C   UNL d   1     -49.861  26.979  36.062  0.00  0.00     0.102 A 
ATOM      6  C   UNL d   1     -49.967  28.125  36.737  0.00  0.00     0.004 A 
ATOM      7  C   UNL d   1     -50.350  26.644  36.544  0.00  0.00     0.025 A 
ATOM      8  C   UNL d   1     -50.463  27.785  37.224  0.00  0.00     0.000 A 
ATOM      9  C   UNL d   1     -50.652  27.047  37.126  0.00  0.00     0.002 A 
ENDROOT
BRANCH   1  10
ATOM     10  C   UNL d   1     -48.601  27.246  34.543  0.00  0.00     0.303 C 
ATOM     11  N   UNL d   1     -49.250  26.717  33.306  0.00  0.00    -0.206 NA
ATOM     12  O   UNL d   1     -47.861  27.443  34.496  0.00  0.00    -0.263 OA
BRANCH  11  13
ATOM     13  C   UNL d   1     -50.048  26.496  33.322  0.00  0.00     0.085 A 
ATOM     14  C   UNL d   1     -50.254  25.693  33.312  0.00  0.00     0.019 A 
ATOM     15  C   UNL d   1     -51.053  25.470  33.327  0.00  0.00     0.002 A 
ATOM     16  C   UNL d   1     -51.263  24.667  33.317  0.00  0.00     0.000 C 
ATOM     17  C   UNL d   1     -51.655  26.048  33.354  0.00  0.00     0.000 A 
ATOM     18  C   UNL d   1     -51.444  26.860  33.364  0.00  0.00     0.002 A 
ATOM     19  C   UNL d   1     -52.450  25.827  33.369  0.00  0.00     0.000 C 
ATOM     20  C   UNL d   1     -50.632  27.077  33.348  0.00  0.00     0.019 A 
ENDBRANCH  11  13
ENDBRANCH   1  10
BRANCH   2  21
ATOM     21  N   UNL d   1     -48.843  28.602  35.493  0.00  0.00    -0.204 NA
ATOM     22  C   UNL d   1     -48.151  28.802  35.904  0.00  0.00     0.302 C 
ATOM     23  O   UNL d   1     -47.806  28.255  36.434  0.00  0.00    -0.263 OA
BRANCH  22  24
ATOM     24  C   UNL d   1     -47.799  29.549  35.789  0.00  0.00     0.158 A 
ATOM     25  O   UNL d   1     -47.937  30.075  35.156  0.00  0.00    -0.300 OA
ATOM     26  C   UNL d   1     -47.469  30.747  35.270  0.00  0.00     0.123 A 
ATOM     27  C   UNL d   1     -47.034  30.649  35.975  0.00  0.00     0.029 A 
ATOM     28  C   UNL d   1     -47.232  29.920  36.296  0.00  0.00     0.032 A 
ENDBRANCH  22  24
ENDBRANCH   2  21
TORSDOF 4
ENDMDL
