MODEL 1
REMARK VINA RESULT:       7.0      0.000      0.000
REMARK  6 active torsions:
REMARK  status: ('A' for Active; 'I' for Inactive)
REMARK    1  A    between atoms: C_3  and  C_1 
REMARK    2  A    between atoms: C_5  and  C_1 
REMARK    3  A    between atoms: C_2  and  C_5 
REMARK    4  A    between atoms: C_4  and  C_2 
REMARK    5  A    between atoms: C_8  and  C_3 
REMARK    6  A    between atoms: C_7  and  C_4 
ROOT
ATOM      1  C   UNL d   1      45.689 -16.914  44.513  0.00  0.00     0.196 C 
ATOM      2  O   UNL d   1      44.980 -17.261  44.777  0.00  0.00    -0.287 OA
ENDROOT
BRANCH   1   3
ATOM      3  C   UNL d   1      45.836 -16.120  44.657  0.00  0.00     0.042 C 
BRANCH   3   4
ATOM      4  C   UNL d   1      45.267 -15.543  44.498  0.00  0.00     0.003 C 
BRANCH   4   5
ATOM      5  C   UNL d   1      45.443 -14.707  44.546  0.00  0.00     0.000 A 
ATOM      6  C   UNL d   1      46.137 -14.440  44.902  0.00  0.00     0.002 A 
ATOM      7  C   UNL d   1      46.297 -13.641  44.943  0.00  0.00     0.030 A 
ATOM      8  C   UNL d   1      45.764 -13.103  44.628  0.00  0.00     0.140 A 
ATOM      9  C   UNL d   1      45.070 -13.370  44.271  0.00  0.00     0.030 A 
ATOM     10  F   UNL d   1      45.918 -12.283  44.665  0.00  0.00    -0.204 F 
ATOM     11  C   UNL d   1      44.888 -14.183  44.219  0.00  0.00     0.002 A 
ENDBRANCH   4   5
ENDBRANCH   3   4
ENDBRANCH   1   3
BRANCH   1  12
ATOM     12  C   UNL d   1      46.241 -17.361  44.110  0.00  0.00     0.042 C 
BRANCH  12  13
ATOM     13  C   UNL d   1      46.342 -18.160  44.293  0.00  0.00     0.003 C 
BRANCH  13  14
ATOM     14  C   UNL d   1      46.420 -18.721  43.670  0.00  0.00     0.000 A 
ATOM     15  C   UNL d   1      46.447 -18.437  42.890  0.00  0.00     0.002 A 
ATOM     16  C   UNL d   1      46.523 -18.975  42.274  0.00  0.00     0.030 A 
ATOM     17  C   UNL d   1      46.571 -19.794  42.437  0.00  0.00     0.140 A 
ATOM     18  C   UNL d   1      46.542 -20.059  43.223  0.00  0.00     0.030 A 
ATOM     19  F   UNL d   1      46.647 -20.323  41.806  0.00  0.00    -0.204 F 
ATOM     20  C   UNL d   1      46.466 -19.520  43.839  0.00  0.00     0.002 A 
ENDBRANCH  13  14
ENDBRANCH  12  13
ENDBRANCH   1  12
TORSDOF 6
ENDMDL
