MODEL 1
REMARK VINA RESULT:      -7.7      0.000      0.000
REMARK  7 active torsions:
REMARK  status: ('A' for Active; 'I' for Inactive)
REMARK    1  A    between atoms: C_2  and  N_1 
REMARK    2  A    between atoms: C_4  and  O_6 
REMARK    3  A    between atoms: C_11  and  C_4 
REMARK    4  A    between atoms: O_6  and  C_12 
REMARK    5  A    between atoms: O_10  and  C_11 
REMARK    6  A    between atoms: C_13  and  O_10 
REMARK    7  A    between atoms: C_21  and  C_16 
ROOT
ATOM      1  C   UNL d   1      52.346  32.647  52.813  0.00  0.00     0.325 C 
ATOM      2  O   UNL d   1      52.289  32.836  52.005  0.00  0.00    -0.256 OA
ENDROOT
BRANCH   1   3
ATOM      3  O   UNL d   1      51.925  33.084  53.374  0.00  0.00    -0.272 OA
BRANCH   3   4
ATOM      4  C   UNL d   1      52.228  33.800  53.649  0.00  0.00     0.103 A 
ATOM      5  C   UNL d   1      52.061  34.499  53.250  0.00  0.00     0.026 A 
ATOM      6  C   UNL d   1      52.378  35.222  53.545  0.00  0.00     0.026 A 
ATOM      7  C   UNL d   1      52.848  35.240  54.218  0.00  0.00     0.127 A 
ATOM      8  C   UNL d   1      53.019  34.516  54.627  0.00  0.00     0.026 A 
ATOM      9  C   UNL d   1      52.697  33.805  54.323  0.00  0.00     0.026 A 
BRANCH   7  10
ATOM     10  N   UNL d   1      53.151  35.956  54.492  0.00  0.00    -0.114 N 
ATOM     11  O   UNL d   1      52.734  36.480  54.981  0.00  0.00    -0.532 OA
ATOM     12  O   UNL d   1      53.896  36.242  54.321  0.00  0.00    -0.532 OA
ENDBRANCH   7  10
ENDBRANCH   3   4
ENDBRANCH   1   3
BRANCH   1  13
ATOM     13  C   UNL d   1      52.825  32.020  53.054  0.00  0.00     0.191 C 
BRANCH  13  14
ATOM     14  O   UNL d   1      52.719  31.269  52.724  0.00  0.00    -0.300 OA
BRANCH  14  15
ATOM     15  C   UNL d   1      52.923  30.574  53.173  0.00  0.00     0.100 A 
ATOM     16  C   UNL d   1      52.369  29.977  53.286  0.00  0.00     0.025 A 
ATOM     17  C   UNL d   1      52.566  29.304  53.721  0.00  0.00     0.002 A 
ATOM     18  C   UNL d   1      53.318  29.228  54.043  0.00  0.00     0.000 A 
ATOM     19  C   UNL d   1      53.878  29.826  53.931  0.00  0.00     0.002 A 
ATOM     20  C   UNL d   1      53.680  30.498  53.496  0.00  0.00     0.025 A 
BRANCH  18  21
ATOM     21  C   UNL d   1      53.521  28.537  54.489  0.00  0.00     0.000 C 
ATOM     22  C   UNL d   1      53.440  28.538  55.312  0.00  0.00     0.000 C 
ENDBRANCH  18  21
ENDBRANCH  14  15
ENDBRANCH  13  14
ENDBRANCH   1  13
TORSDOF 7
ENDMDL
MODEL 2
REMARK VINA RESULT:      -7.7      2.396      5.274
REMARK  7 active torsions:
REMARK  status: ('A' for Active; 'I' for Inactive)
REMARK    1  A    between atoms: C_2  and  N_1 
REMARK    2  A    between atoms: C_4  and  O_6 
REMARK    3  A    between atoms: C_11  and  C_4 
REMARK    4  A    between atoms: O_6  and  C_12 
REMARK    5  A    between atoms: O_10  and  C_11 
REMARK    6  A    between atoms: C_13  and  O_10 
REMARK    7  A    between atoms: C_21  and  C_16 
ROOT
ATOM      1  C   UNL d   1      52.900  32.855  53.170  0.00  0.00     0.325 C 
ATOM      2  O   UNL d   1      53.348  33.258  53.743  0.00  0.00    -0.256 OA
ENDROOT
BRANCH   1   3
ATOM      3  O   UNL d   1      53.222  32.208  52.769  0.00  0.00    -0.272 OA
BRANCH   3   4
ATOM      4  C   UNL d   1      53.220  31.463  53.122  0.00  0.00     0.103 A 
ATOM      5  C   UNL d   1      53.696  31.314  53.776  0.00  0.00     0.026 A 
ATOM      6  C   UNL d   1      53.682  30.548  54.124  0.00  0.00     0.026 A 
ATOM      7  C   UNL d   1      53.205  29.950  53.824  0.00  0.00     0.127 A 
ATOM      8  C   UNL d   1      52.715  30.106  53.148  0.00  0.00     0.026 A 
ATOM      9  C   UNL d   1      52.739  30.874  52.813  0.00  0.00     0.026 A 
BRANCH   7  10
ATOM     10  N   UNL d   1      53.204  29.205  54.177  0.00  0.00    -0.114 N 
ATOM     11  O   UNL d   1      53.316  29.075  54.989  0.00  0.00    -0.532 OA
ATOM     12  O   UNL d   1      53.092  28.502  53.778  0.00  0.00    -0.532 OA
ENDBRANCH   7  10
ENDBRANCH   3   4
ENDBRANCH   1   3
BRANCH   1  13
ATOM     13  C   UNL d   1      52.132  33.103  53.003  0.00  0.00     0.191 C 
BRANCH  13  14
ATOM     14  O   UNL d   1      51.990  33.884  52.775  0.00  0.00    -0.300 OA
BRANCH  14  15
ATOM     15  C   UNL d   1      51.209  34.122  52.528  0.00  0.00     0.100 A 
ATOM     16  C   UNL d   1      50.648  34.343  53.088  0.00  0.00     0.025 A 
ATOM     17  C   UNL d   1      49.893  34.572  52.850  0.00  0.00     0.002 A 
ATOM     18  C   UNL d   1      49.697  34.581  52.052  0.00  0.00     0.000 A 
ATOM     19  C   UNL d   1      50.258  34.359  51.487  0.00  0.00     0.002 A 
ATOM     20  C   UNL d   1      51.014  34.130  51.725  0.00  0.00     0.025 A 
BRANCH  18  21
ATOM     21  C   UNL d   1      48.920  34.817  51.807  0.00  0.00     0.000 C 
ATOM     22  C   UNL d   1      48.667  34.666  51.034  0.00  0.00     0.000 C 
ENDBRANCH  18  21
ENDBRANCH  14  15
ENDBRANCH  13  14
ENDBRANCH   1  13
TORSDOF 7
ENDMDL
MODEL 3
REMARK VINA RESULT:      -7.5      2.913      5.272
REMARK  7 active torsions:
REMARK  status: ('A' for Active; 'I' for Inactive)
REMARK    1  A    between atoms: C_2  and  N_1 
REMARK    2  A    between atoms: C_4  and  O_6 
REMARK    3  A    between atoms: C_11  and  C_4 
REMARK    4  A    between atoms: O_6  and  C_12 
REMARK    5  A    between atoms: O_10  and  C_11 
REMARK    6  A    between atoms: C_13  and  O_10 
REMARK    7  A    between atoms: C_21  and  C_16 
ROOT
ATOM      1  C   UNL d   1      51.223  33.931  52.993  0.00  0.00     0.325 C 
ATOM      2  O   UNL d   1      51.087  33.149  53.241  0.00  0.00    -0.256 OA
ENDROOT
BRANCH   1   3
ATOM      3  O   UNL d   1      51.992  34.196  52.851  0.00  0.00    -0.272 OA
BRANCH   3   4
ATOM      4  C   UNL d   1      52.587  34.049  53.403  0.00  0.00     0.103 A 
ATOM      5  C   UNL d   1      52.689  34.555  54.044  0.00  0.00     0.026 A 
ATOM      6  C   UNL d   1      53.301  34.391  54.599  0.00  0.00     0.026 A 
ATOM      7  C   UNL d   1      53.794  33.740  54.512  0.00  0.00     0.127 A 
ATOM      8  C   UNL d   1      53.686  33.219  53.849  0.00  0.00     0.026 A 
ATOM      9  C   UNL d   1      53.073  33.395  53.306  0.00  0.00     0.026 A 
BRANCH   7  10
ATOM     10  N   UNL d   1      54.388  33.594  55.064  0.00  0.00    -0.114 N 
ATOM     11  O   UNL d   1      55.024  34.106  55.210  0.00  0.00    -0.532 OA
ATOM     12  O   UNL d   1      54.430  32.930  55.538  0.00  0.00    -0.532 OA
ENDBRANCH   7  10
ENDBRANCH   3   4
ENDBRANCH   1   3
BRANCH   1  13
ATOM     13  C   UNL d   1      50.585  34.444  52.890  0.00  0.00     0.191 C 
BRANCH  13  14
ATOM     14  O   UNL d   1      49.942  34.214  52.424  0.00  0.00    -0.300 OA
BRANCH  14  15
ATOM     15  C   UNL d   1      49.274  34.737  52.332  0.00  0.00     0.100 A 
ATOM     16  C   UNL d   1      49.044  35.227  52.951  0.00  0.00     0.025 A 
ATOM     17  C   UNL d   1      48.399  35.733  52.861  0.00  0.00     0.002 A 
ATOM     18  C   UNL d   1      47.983  35.749  52.153  0.00  0.00     0.000 A 
ATOM     19  C   UNL d   1      48.212  35.258  51.529  0.00  0.00     0.002 A 
ATOM     20  C   UNL d   1      48.857  34.752  51.618  0.00  0.00     0.025 A 
BRANCH  18  21
ATOM     21  C   UNL d   1      47.320  36.269  52.061  0.00  0.00     0.000 C 
ATOM     22  C   UNL d   1      46.565  35.957  51.933  0.00  0.00     0.000 C 
ENDBRANCH  18  21
ENDBRANCH  14  15
ENDBRANCH  13  14
ENDBRANCH   1  13
TORSDOF 7
ENDMDL
MODEL 4
REMARK VINA RESULT:      -7.4      2.508      3.263
REMARK  7 active torsions:
REMARK  status: ('A' for Active; 'I' for Inactive)
REMARK    1  A    between atoms: C_2  and  N_1 
REMARK    2  A    between atoms: C_4  and  O_6 
REMARK    3  A    between atoms: C_11  and  C_4 
REMARK    4  A    between atoms: O_6  and  C_12 
REMARK    5  A    between atoms: O_10  and  C_11 
REMARK    6  A    between atoms: C_13  and  O_10 
REMARK    7  A    between atoms: C_21  and  C_16 
ROOT
ATOM      1  C   UNL d   1      51.689  34.025  52.823  0.00  0.00     0.325 C 
ATOM      2  O   UNL d   1      52.150  34.614  52.460  0.00  0.00    -0.256 OA
ENDROOT
BRANCH   1   3
ATOM      3  O   UNL d   1      50.971  34.219  53.183  0.00  0.00    -0.272 OA
BRANCH   3   4
ATOM      4  C   UNL d   1      50.314  34.402  52.719  0.00  0.00     0.103 A 
ATOM      5  C   UNL d   1      50.275  34.144  51.939  0.00  0.00     0.026 A 
ATOM      6  C   UNL d   1      49.597  34.339  51.479  0.00  0.00     0.026 A 
ATOM      7  C   UNL d   1      48.978  34.778  51.793  0.00  0.00     0.127 A 
ATOM      8  C   UNL d   1      49.021  35.042  52.600  0.00  0.00     0.026 A 
ATOM      9  C   UNL d   1      49.702  34.841  53.045  0.00  0.00     0.026 A 
BRANCH   7  10
ATOM     10  N   UNL d   1      48.322  34.960  51.329  0.00  0.00    -0.114 N 
ATOM     11  O   UNL d   1      48.080  34.516  50.672  0.00  0.00    -0.532 OA
ATOM     12  O   UNL d   1      47.826  35.596  51.455  0.00  0.00    -0.532 OA
ENDBRANCH   7  10
ENDBRANCH   3   4
ENDBRANCH   1   3
BRANCH   1  13
ATOM     13  C   UNL d   1      51.951  33.243  52.823  0.00  0.00     0.191 C 
BRANCH  13  14
ATOM     14  O   UNL d   1      52.719  33.065  53.072  0.00  0.00    -0.300 OA
BRANCH  14  15
ATOM     15  C   UNL d   1      52.948  32.253  53.199  0.00  0.00     0.100 A 
ATOM     16  C   UNL d   1      52.563  31.647  52.797  0.00  0.00     0.025 A 
ATOM     17  C   UNL d   1      52.785  30.862  52.919  0.00  0.00     0.002 A 
ATOM     18  C   UNL d   1      53.391  30.683  53.444  0.00  0.00     0.000 A 
ATOM     19  C   UNL d   1      53.779  31.289  53.850  0.00  0.00     0.002 A 
ATOM     20  C   UNL d   1      53.558  32.074  53.727  0.00  0.00     0.025 A 
BRANCH  18  21
ATOM     21  C   UNL d   1      53.619  29.876  53.571  0.00  0.00     0.000 C 
ATOM     22  C   UNL d   1      53.309  29.454  54.210  0.00  0.00     0.000 C 
ENDBRANCH  18  21
ENDBRANCH  14  15
ENDBRANCH  13  14
ENDBRANCH   1  13
TORSDOF 7
ENDMDL
MODEL 5
REMARK VINA RESULT:      -7.4      3.042      4.239
REMARK  7 active torsions:
REMARK  status: ('A' for Active; 'I' for Inactive)
REMARK    1  A    between atoms: C_2  and  N_1 
REMARK    2  A    between atoms: C_4  and  O_6 
REMARK    3  A    between atoms: C_11  and  C_4 
REMARK    4  A    between atoms: O_6  and  C_12 
REMARK    5  A    between atoms: O_10  and  C_11 
REMARK    6  A    between atoms: C_13  and  O_10 
REMARK    7  A    between atoms: C_21  and  C_16 
ROOT
ATOM      1  C   UNL d   1      50.919  34.192  52.346  0.00  0.00     0.325 C 
ATOM      2  O   UNL d   1      51.097  34.451  51.576  0.00  0.00    -0.256 OA
ENDROOT
BRANCH   1   3
ATOM      3  O   UNL d   1      50.150  33.966  52.543  0.00  0.00    -0.272 OA
BRANCH   3   4
ATOM      4  C   UNL d   1      49.527  34.499  52.447  0.00  0.00     0.103 A 
ATOM      5  C   UNL d   1      49.359  35.048  53.035  0.00  0.00     0.026 A 
ATOM      6  C   UNL d   1      48.719  35.584  52.921  0.00  0.00     0.026 A 
ATOM      7  C   UNL d   1      48.265  35.569  52.237  0.00  0.00     0.127 A 
ATOM      8  C   UNL d   1      48.441  35.000  51.631  0.00  0.00     0.026 A 
ATOM      9  C   UNL d   1      49.080  34.473  51.759  0.00  0.00     0.026 A 
BRANCH   7  10
ATOM     10  N   UNL d   1      47.643  36.101  52.141  0.00  0.00    -0.114 N 
ATOM     11  O   UNL d   1      47.461  36.705  52.679  0.00  0.00    -0.532 OA
ATOM     12  O   UNL d   1      47.127  36.104  51.508  0.00  0.00    -0.532 OA
ENDBRANCH   7  10
ENDBRANCH   3   4
ENDBRANCH   1   3
BRANCH   1  13
ATOM     13  C   UNL d   1      51.516  34.161  52.915  0.00  0.00     0.191 C 
BRANCH  13  14
ATOM     14  O   UNL d   1      52.208  33.735  52.765  0.00  0.00    -0.300 OA
BRANCH  14  15
ATOM     15  C   UNL d   1      52.783  33.626  53.385  0.00  0.00     0.100 A 
ATOM     16  C   UNL d   1      52.967  34.246  53.893  0.00  0.00     0.025 A 
ATOM     17  C   UNL d   1      53.523  34.140  54.493  0.00  0.00     0.002 A 
ATOM     18  C   UNL d   1      53.897  33.414  54.584  0.00  0.00     0.000 A 
ATOM     19  C   UNL d   1      53.715  32.789  54.076  0.00  0.00     0.002 A 
ATOM     20  C   UNL d   1      53.158  32.895  53.476  0.00  0.00     0.025 A 
BRANCH  18  21
ATOM     21  C   UNL d   1      54.469  33.305  55.200  0.00  0.00     0.000 C 
ATOM     22  C   UNL d   1      55.189  33.710  55.172  0.00  0.00     0.000 C 
ENDBRANCH  18  21
ENDBRANCH  14  15
ENDBRANCH  13  14
ENDBRANCH   1  13
TORSDOF 7
ENDMDL
MODEL 6
REMARK VINA RESULT:      -5.3     10.003     10.634
REMARK  7 active torsions:
REMARK  status: ('A' for Active; 'I' for Inactive)
REMARK    1  A    between atoms: C_2  and  N_1 
REMARK    2  A    between atoms: C_4  and  O_6 
REMARK    3  A    between atoms: C_11  and  C_4 
REMARK    4  A    between atoms: O_6  and  C_12 
REMARK    5  A    between atoms: O_10  and  C_11 
REMARK    6  A    between atoms: C_13  and  O_10 
REMARK    7  A    between atoms: C_21  and  C_16 
ROOT
ATOM      1  C   UNL d   1      44.970  29.387  58.935  0.00  0.00     0.325 C 
ATOM      2  O   UNL d   1      45.706  29.768  58.870  0.00  0.00    -0.256 OA
ENDROOT
BRANCH   1   3
ATOM      3  O   UNL d   1      44.314  29.794  59.230  0.00  0.00    -0.272 OA
BRANCH   3   4
ATOM      4  C   UNL d   1      44.356  30.160  59.969  0.00  0.00     0.103 A 
ATOM      5  C   UNL d   1      44.370  29.706  60.654  0.00  0.00     0.026 A 
ATOM      6  C   UNL d   1      44.413  30.096  61.400  0.00  0.00     0.026 A 
ATOM      7  C   UNL d   1      44.439  30.915  61.454  0.00  0.00     0.127 A 
ATOM      8  C   UNL d   1      44.424  31.381  60.743  0.00  0.00     0.026 A 
ATOM      9  C   UNL d   1      44.382  30.979  60.009  0.00  0.00     0.026 A 
BRANCH   7  10
ATOM     10  N   UNL d   1      44.480  31.281  62.191  0.00  0.00    -0.114 N 
ATOM     11  O   UNL d   1      44.555  32.100  62.300  0.00  0.00    -0.532 OA
ATOM     12  O   UNL d   1      44.453  30.889  62.906  0.00  0.00    -0.532 OA
ENDBRANCH   7  10
ENDBRANCH   3   4
ENDBRANCH   1   3
BRANCH   1  13
ATOM     13  C   UNL d   1      44.895  28.599  58.703  0.00  0.00     0.191 C 
BRANCH  13  14
ATOM     14  O   UNL d   1      45.383  28.295  58.109  0.00  0.00    -0.300 OA
BRANCH  14  15
ATOM     15  C   UNL d   1      45.192  27.550  57.741  0.00  0.00     0.100 A 
ATOM     16  C   UNL d   1      45.027  27.516  56.936  0.00  0.00     0.025 A 
ATOM     17  C   UNL d   1      44.842  26.795  56.580  0.00  0.00     0.002 A 
ATOM     18  C   UNL d   1      44.823  26.107  57.029  0.00  0.00     0.000 A 
ATOM     19  C   UNL d   1      44.989  26.137  57.838  0.00  0.00     0.002 A 
ATOM     20  C   UNL d   1      45.173  26.859  58.194  0.00  0.00     0.025 A 
BRANCH  18  21
ATOM     21  C   UNL d   1      44.634  25.366  56.664  0.00  0.00     0.000 C 
ATOM     22  C   UNL d   1      44.949  25.179  55.923  0.00  0.00     0.000 C 
ENDBRANCH  18  21
ENDBRANCH  14  15
ENDBRANCH  13  14
ENDBRANCH   1  13
TORSDOF 7
ENDMDL
MODEL 7
REMARK VINA RESULT:      -4.9      9.647     10.651
REMARK  7 active torsions:
REMARK  status: ('A' for Active; 'I' for Inactive)
REMARK    1  A    between atoms: C_2  and  N_1 
REMARK    2  A    between atoms: C_4  and  O_6 
REMARK    3  A    between atoms: C_11  and  C_4 
REMARK    4  A    between atoms: O_6  and  C_12 
REMARK    5  A    between atoms: O_10  and  C_11 
REMARK    6  A    between atoms: C_13  and  O_10 
REMARK    7  A    between atoms: C_21  and  C_16 
ROOT
ATOM      1  C   UNL d   1      44.854  25.977  56.677  0.00  0.00     0.325 C 
ATOM      2  O   UNL d   1      44.424  25.796  57.365  0.00  0.00    -0.256 OA
ENDROOT
BRANCH   1   3
ATOM      3  O   UNL d   1      45.449  26.550  56.695  0.00  0.00    -0.272 OA
BRANCH   3   4
ATOM      4  C   UNL d   1      45.320  27.266  57.083  0.00  0.00     0.103 A 
ATOM      5  C   UNL d   1      45.534  27.353  57.872  0.00  0.00     0.026 A 
ATOM      6  C   UNL d   1      45.395  28.091  58.253  0.00  0.00     0.026 A 
ATOM      7  C   UNL d   1      45.052  28.721  57.854  0.00  0.00     0.127 A 
ATOM      8  C   UNL d   1      44.831  28.628  57.038  0.00  0.00     0.026 A 
ATOM      9  C   UNL d   1      44.976  27.888  56.673  0.00  0.00     0.026 A 
BRANCH   7  10
ATOM     10  N   UNL d   1      44.922  29.436  58.241  0.00  0.00    -0.114 N 
ATOM     11  O   UNL d   1      45.113  30.179  57.924  0.00  0.00    -0.532 OA
ATOM     12  O   UNL d   1      44.592  29.510  58.985  0.00  0.00    -0.532 OA
ENDBRANCH   7  10
ENDBRANCH   3   4
ENDBRANCH   1   3
BRANCH   1  13
ATOM     13  C   UNL d   1      44.684  25.582  55.973  0.00  0.00     0.191 C 
BRANCH  13  14
ATOM     14  O   UNL d   1      44.728  24.758  55.941  0.00  0.00    -0.300 OA
BRANCH  14  15
ATOM     15  C   UNL d   1      44.708  24.359  55.187  0.00  0.00     0.100 A 
ATOM     16  C   UNL d   1      45.059  23.620  55.101  0.00  0.00     0.025 A 
ATOM     17  C   UNL d   1      45.039  23.235  54.372  0.00  0.00     0.002 A 
ATOM     18  C   UNL d   1      44.668  23.587  53.729  0.00  0.00     0.000 A 
ATOM     19  C   UNL d   1      44.314  24.329  53.813  0.00  0.00     0.002 A 
ATOM     20  C   UNL d   1      44.334  24.714  54.542  0.00  0.00     0.025 A 
BRANCH  18  21
ATOM     21  C   UNL d   1      44.648  23.190  52.980  0.00  0.00     0.000 C 
ATOM     22  C   UNL d   1      45.340  23.114  52.535  0.00  0.00     0.000 C 
ENDBRANCH  18  21
ENDBRANCH  14  15
ENDBRANCH  13  14
ENDBRANCH   1  13
TORSDOF 7
ENDMDL
