MODEL 1
REMARK VINA RESULT:      25.6      0.000      0.000
REMARK  6 active torsions:
REMARK  status: ('A' for Active; 'I' for Inactive)
REMARK    1  A    between atoms: C_5  and  N_1 
REMARK    2  A    between atoms: C_7  and  C_5 
REMARK    3  A    between atoms: O_14  and  C_10 
REMARK    4  A    between atoms: C_18  and  O_14 
REMARK    5  A    between atoms: C_19  and  C_18 
REMARK    6  A    between atoms: C_20  and  C_19 
ROOT
ATOM      1  C   UNL d   1      45.883 -16.468  43.595  0.00  0.00     0.087 C 
ENDROOT
BRANCH   1   2
ATOM      2  N   UNL d   1      45.424 -15.979  44.077  0.00  0.00    -0.251 N 
ATOM      3  C   UNL d   1      44.801 -16.190  44.579  0.00  0.00     0.378 A 
ATOM      4  O   UNL d   1      44.522 -15.500  44.940  0.00  0.00    -0.258 OA
ATOM      5  O   UNL d   1      44.507 -16.950  44.700  0.00  0.00    -0.237 OA
ATOM      6  C   UNL d   1      44.973 -14.865  44.661  0.00  0.00     0.121 A 
ATOM      7  C   UNL d   1      45.531 -15.162  44.128  0.00  0.00     0.092 A 
ATOM      8  C   UNL d   1      44.956 -14.052  44.818  0.00  0.00     0.026 A 
ATOM      9  C   UNL d   1      46.063 -14.658  43.756  0.00  0.00     0.020 A 
ATOM     10  C   UNL d   1      46.043 -13.853  43.914  0.00  0.00     0.002 A 
ATOM     11  C   UNL d   1      45.488 -13.549  44.447  0.00  0.00     0.002 A 
ATOM     12  C   UNL d   1      46.575 -13.347  43.542  0.00  0.00     0.000 C 
ENDBRANCH   1   2
BRANCH   1  13
ATOM     13  C   UNL d   1      46.137 -17.206  43.869  0.00  0.00     0.041 A 
ATOM     14  C   UNL d   1      46.255 -17.817  43.349  0.00  0.00     0.102 A 
ATOM     15  C   UNL d   1      46.506 -18.546  43.621  0.00  0.00     0.025 A 
ATOM     16  C   UNL d   1      46.639 -18.663  44.425  0.00  0.00     0.002 A 
ATOM     17  C   UNL d   1      46.518 -18.041  44.954  0.00  0.00     0.000 A 
ATOM     18  C   UNL d   1      46.265 -17.308  44.673  0.00  0.00     0.004 A 
BRANCH  14  19
ATOM     19  O   UNL d   1      46.123 -17.706  42.539  0.00  0.00    -0.305 OA
BRANCH  19  20
ATOM     20  C   UNL d   1      46.055 -18.356  42.036  0.00  0.00     0.123 C 
BRANCH  20  21
ATOM     21  C   UNL d   1      46.592 -18.463  41.428  0.00  0.00     0.027 C 
BRANCH  21  22
ATOM     22  C   UNL d   1      46.421 -18.983  40.811  0.00  0.00     0.002 C 
ATOM     23  C   UNL d   1      46.613 -19.785  40.876  0.00  0.00     0.000 C 
ENDBRANCH  21  22
ENDBRANCH  20  21
ENDBRANCH  19  20
ENDBRANCH  14  19
ENDBRANCH   1  13
TORSDOF 6
ENDMDL
