MODEL 1
REMARK VINA RESULT:      -3.7      0.000      0.000
REMARK  3 active torsions:
REMARK  status: ('A' for Active; 'I' for Inactive)
REMARK    1  A    between atoms: C_8  and  C_1 
REMARK    2  A    between atoms: N_5  and  C_2 
REMARK       I    between atoms: C_7  and  N_5 
REMARK    3  A    between atoms: C_10  and  C_7 
ROOT
ATOM      1  C   UNL d   1      32.562  23.229 -18.983  0.00  0.00     0.212 A 
ATOM      2  C   UNL d   1      32.754  22.669 -20.180  0.00  0.00     0.297 A 
ATOM      3  O   UNL d   1      32.906  22.586 -19.374  0.00  0.00    -0.253 OA
ATOM      4  N   UNL d   1      32.203  23.701 -19.549  0.00  0.00    -0.119 NA
ATOM      5  N   UNL d   1      32.321  23.355 -20.288  0.00  0.00    -0.101 NA
ENDROOT
BRANCH   2   6
ATOM      6  N   UNL d   1      33.000  22.146 -20.768  0.00  0.00    -0.165 NA
ATOM      7  C   UNL d   1      32.495  21.564 -21.039  0.00  0.00     0.282 C 
ATOM      8  O   UNL d   1      31.733  21.491 -20.728  0.00  0.00    -0.265 OA
BRANCH   7   9
ATOM      9  C   UNL d   1      32.744  21.039 -21.630  0.00  0.00     0.060 A 
ATOM     10  C   UNL d   1      32.774  20.226 -21.485  0.00  0.00     0.034 A 
ATOM     11  C   UNL d   1      33.021  19.710 -22.076  0.00  0.00     0.140 A 
ATOM     12  F   UNL d   1      33.052  18.885 -21.931  0.00  0.00    -0.204 F 
ATOM     13  C   UNL d   1      33.241  20.000 -22.816  0.00  0.00     0.030 A 
ATOM     14  C   UNL d   1      33.211  20.808 -22.959  0.00  0.00     0.003 A 
ATOM     15  C   UNL d   1      32.965  21.327 -22.374  0.00  0.00     0.005 A 
ENDBRANCH   7   9
ENDBRANCH   2   6
BRANCH   1  16
ATOM     16  C   UNL d   1      32.582  23.364 -18.166  0.00  0.00     0.072 A 
ATOM     17  S   UNL d   1      33.241  23.295 -17.681  0.00  0.00    -0.083 SA
ATOM     18  C   UNL d   1      33.010  23.479 -16.911  0.00  0.00     0.035 A 
ATOM     19  C   UNL d   1      32.202  23.664 -16.922  0.00  0.00     0.008 A 
ATOM     20  C   UNL d   1      31.938  23.591 -17.703  0.00  0.00     0.011 A 
ENDBRANCH   1  16
TORSDOF 3
ENDMDL
MODEL 2
REMARK VINA RESULT:      -3.0      3.044      4.277
REMARK  3 active torsions:
REMARK  status: ('A' for Active; 'I' for Inactive)
REMARK    1  A    between atoms: C_8  and  C_1 
REMARK    2  A    between atoms: N_5  and  C_2 
REMARK       I    between atoms: C_7  and  N_5 
REMARK    3  A    between atoms: C_10  and  C_7 
ROOT
ATOM      1  C   UNL d   1      33.020  20.443 -22.107  0.00  0.00     0.212 A 
ATOM      2  C   UNL d   1      33.021  19.262 -22.732  0.00  0.00     0.297 A 
ATOM      3  O   UNL d   1      32.891  19.631 -22.005  0.00  0.00    -0.253 OA
ATOM      4  N   UNL d   1      33.227  20.565 -22.890  0.00  0.00    -0.119 NA
ATOM      5  N   UNL d   1      33.228  19.837 -23.276  0.00  0.00    -0.101 NA
ENDROOT
BRANCH   2   6
ATOM      6  N   UNL d   1      32.952  18.452 -22.874  0.00  0.00    -0.165 NA
ATOM      7  C   UNL d   1      32.413  18.176 -23.421  0.00  0.00     0.282 C 
ATOM      8  O   UNL d   1      31.931  18.701 -23.840  0.00  0.00    -0.265 OA
BRANCH   7   9
ATOM      9  C   UNL d   1      32.345  17.362 -23.563  0.00  0.00     0.060 A 
ATOM     10  C   UNL d   1      31.674  16.947 -23.320  0.00  0.00     0.034 A 
ATOM     11  C   UNL d   1      31.611  16.140 -23.463  0.00  0.00     0.140 A 
ATOM     12  F   UNL d   1      30.931  15.718 -23.216  0.00  0.00    -0.204 F 
ATOM     13  C   UNL d   1      32.218  15.739 -23.853  0.00  0.00     0.030 A 
ATOM     14  C   UNL d   1      32.886  16.152 -24.095  0.00  0.00     0.003 A 
ATOM     15  C   UNL d   1      32.952  16.957 -23.954  0.00  0.00     0.005 A 
ENDBRANCH   7   9
ENDBRANCH   2   6
BRANCH   1  16
ATOM     16  C   UNL d   1      32.949  21.020 -21.516  0.00  0.00     0.072 A 
ATOM     17  S   UNL d   1      32.641  21.774 -21.612  0.00  0.00    -0.083 SA
ATOM     18  C   UNL d   1      32.678  22.157 -20.883  0.00  0.00     0.035 A 
ATOM     19  C   UNL d   1      33.012  21.635 -20.333  0.00  0.00     0.008 A 
ATOM     20  C   UNL d   1      33.180  20.928 -20.729  0.00  0.00     0.011 A 
ENDBRANCH   1  16
TORSDOF 3
ENDMDL
MODEL 3
REMARK VINA RESULT:      -2.6      2.280      3.388
REMARK  3 active torsions:
REMARK  status: ('A' for Active; 'I' for Inactive)
REMARK    1  A    between atoms: C_8  and  C_1 
REMARK    2  A    between atoms: N_5  and  C_2 
REMARK       I    between atoms: C_7  and  N_5 
REMARK    3  A    between atoms: C_10  and  C_7 
ROOT
ATOM      1  C   UNL d   1      32.842  21.231 -21.428  0.00  0.00     0.212 A 
ATOM      2  C   UNL d   1      33.129  20.169 -22.186  0.00  0.00     0.297 A 
ATOM      3  O   UNL d   1      32.882  20.956 -22.208  0.00  0.00    -0.253 OA
ATOM      4  N   UNL d   1      33.063  20.615 -20.935  0.00  0.00    -0.119 NA
ATOM      5  N   UNL d   1      33.240  19.959 -21.403  0.00  0.00    -0.101 NA
ENDROOT
BRANCH   2   6
ATOM      6  N   UNL d   1      33.241  19.686 -22.845  0.00  0.00    -0.165 NA
ATOM      7  C   UNL d   1      32.720  19.078 -23.003  0.00  0.00     0.282 C 
ATOM      8  O   UNL d   1      32.075  18.937 -22.506  0.00  0.00    -0.265 OA
BRANCH   7   9
ATOM      9  C   UNL d   1      32.834  18.593 -23.665  0.00  0.00     0.060 A 
ATOM     10  C   UNL d   1      32.874  17.772 -23.584  0.00  0.00     0.034 A 
ATOM     11  C   UNL d   1      32.987  17.296 -24.245  0.00  0.00     0.140 A 
ATOM     12  F   UNL d   1      33.029  16.463 -24.164  0.00  0.00    -0.204 F 
ATOM     13  C   UNL d   1      33.061  17.635 -24.994  0.00  0.00     0.030 A 
ATOM     14  C   UNL d   1      33.021  18.452 -25.073  0.00  0.00     0.003 A 
ATOM     15  C   UNL d   1      32.908  18.930 -24.417  0.00  0.00     0.005 A 
ENDBRANCH   7   9
ENDBRANCH   2   6
BRANCH   1  16
ATOM     16  C   UNL d   1      32.617  21.995 -21.198  0.00  0.00     0.072 A 
ATOM     17  S   UNL d   1      32.419  22.231 -20.437  0.00  0.00    -0.083 SA
ATOM     18  C   UNL d   1      32.233  23.034 -20.462  0.00  0.00     0.035 A 
ATOM     19  C   UNL d   1      32.317  23.295 -21.243  0.00  0.00     0.008 A 
ATOM     20  C   UNL d   1      32.557  22.647 -21.699  0.00  0.00     0.011 A 
ENDBRANCH   1  16
TORSDOF 3
ENDMDL
MODEL 4
REMARK VINA RESULT:      -2.2      1.573      1.909
REMARK  3 active torsions:
REMARK  status: ('A' for Active; 'I' for Inactive)
REMARK    1  A    between atoms: C_8  and  C_1 
REMARK    2  A    between atoms: N_5  and  C_2 
REMARK       I    between atoms: C_7  and  N_5 
REMARK    3  A    between atoms: C_10  and  C_7 
ROOT
ATOM      1  C   UNL d   1      32.559  23.211 -18.640  0.00  0.00     0.212 A 
ATOM      2  C   UNL d   1      32.674  23.175 -19.971  0.00  0.00     0.297 A 
ATOM      3  O   UNL d   1      32.997  22.892 -19.267  0.00  0.00    -0.253 OA
ATOM      4  N   UNL d   1      31.973  23.685 -18.963  0.00  0.00    -0.119 NA
ATOM      5  N   UNL d   1      32.044  23.663 -19.783  0.00  0.00    -0.101 NA
ENDROOT
BRANCH   2   6
ATOM      6  N   UNL d   1      32.946  22.992 -20.728  0.00  0.00    -0.165 NA
ATOM      7  C   UNL d   1      32.416  22.841 -21.330  0.00  0.00     0.282 C 
ATOM      8  O   UNL d   1      31.602  22.870 -21.191  0.00  0.00    -0.265 OA
BRANCH   7   9
ATOM      9  C   UNL d   1      32.691  22.658 -22.090  0.00  0.00     0.060 A 
ATOM     10  C   UNL d   1      32.704  23.232 -22.683  0.00  0.00     0.034 A 
ATOM     11  C   UNL d   1      32.978  23.044 -23.435  0.00  0.00     0.140 A 
ATOM     12  F   UNL d   1      32.992  23.626 -24.038  0.00  0.00    -0.204 F 
ATOM     13  C   UNL d   1      33.241  22.280 -23.603  0.00  0.00     0.030 A 
ATOM     14  C   UNL d   1      33.227  21.709 -23.012  0.00  0.00     0.003 A 
ATOM     15  C   UNL d   1      32.955  21.892 -22.261  0.00  0.00     0.005 A 
ENDBRANCH   7   9
ENDBRANCH   2   6
BRANCH   1  16
ATOM     16  C   UNL d   1      32.696  23.070 -17.835  0.00  0.00     0.072 A 
ATOM     17  S   UNL d   1      32.327  23.449 -17.208  0.00  0.00    -0.083 SA
ATOM     18  C   UNL d   1      32.630  23.137 -16.509  0.00  0.00     0.035 A 
ATOM     19  C   UNL d   1      33.192  22.560 -16.705  0.00  0.00     0.008 A 
ATOM     20  C   UNL d   1      33.231  22.520 -17.531  0.00  0.00     0.011 A 
ENDBRANCH   1  16
TORSDOF 3
ENDMDL
MODEL 5
REMARK VINA RESULT:      -2.0      5.805      7.387
REMARK  3 active torsions:
REMARK  status: ('A' for Active; 'I' for Inactive)
REMARK    1  A    between atoms: C_8  and  C_1 
REMARK    2  A    between atoms: N_5  and  C_2 
REMARK       I    between atoms: C_7  and  N_5 
REMARK    3  A    between atoms: C_10  and  C_7 
ROOT
ATOM      1  C   UNL d   1      29.687  15.976 -23.762  0.00  0.00     0.212 A 
ATOM      2  C   UNL d   1      30.859  16.618 -23.763  0.00  0.00     0.297 A 
ATOM      3  O   UNL d   1      30.054  16.701 -23.604  0.00  0.00    -0.253 OA
ATOM      4  N   UNL d   1      30.266  15.455 -24.016  0.00  0.00    -0.119 NA
ATOM      5  N   UNL d   1      30.989  15.850 -24.017  0.00  0.00    -0.101 NA
ENDROOT
BRANCH   2   6
ATOM      6  N   UNL d   1      31.426  17.210 -23.678  0.00  0.00    -0.165 NA
ATOM      7  C   UNL d   1      31.533  17.764 -24.268  0.00  0.00     0.282 C 
ATOM      8  O   UNL d   1      31.076  17.740 -24.957  0.00  0.00    -0.265 OA
BRANCH   7   9
ATOM      9  C   UNL d   1      32.103  18.360 -24.182  0.00  0.00     0.060 A 
ATOM     10  C   UNL d   1      32.372  18.579 -23.433  0.00  0.00     0.034 A 
ATOM     11  C   UNL d   1      32.938  19.171 -23.353  0.00  0.00     0.140 A 
ATOM     12  F   UNL d   1      33.212  19.395 -22.593  0.00  0.00    -0.204 F 
ATOM     13  C   UNL d   1      33.241  19.549 -24.021  0.00  0.00     0.030 A 
ATOM     14  C   UNL d   1      32.972  19.330 -24.766  0.00  0.00     0.003 A 
ATOM     15  C   UNL d   1      32.409  18.741 -24.850  0.00  0.00     0.005 A 
ENDBRANCH   7   9
ENDBRANCH   2   6
BRANCH   1  16
ATOM     16  C   UNL d   1      28.879  15.816 -23.676  0.00  0.00     0.072 A 
ATOM     17  S   UNL d   1      28.366  15.582 -24.272  0.00  0.00    -0.083 SA
ATOM     18  C   UNL d   1      27.618  15.485 -23.940  0.00  0.00     0.035 A 
ATOM     19  C   UNL d   1      27.669  15.659 -23.132  0.00  0.00     0.008 A 
ATOM     20  C   UNL d   1      28.454  15.865 -22.970  0.00  0.00     0.011 A 
ENDBRANCH   1  16
TORSDOF 3
ENDMDL
MODEL 6
REMARK VINA RESULT:      -0.7      4.649      6.230
REMARK  3 active torsions:
REMARK  status: ('A' for Active; 'I' for Inactive)
REMARK    1  A    between atoms: C_8  and  C_1 
REMARK    2  A    between atoms: N_5  and  C_2 
REMARK       I    between atoms: C_7  and  N_5 
REMARK    3  A    between atoms: C_10  and  C_7 
ROOT
ATOM      1  C   UNL d   1      32.611  18.563 -23.181  0.00  0.00     0.212 A 
ATOM      2  C   UNL d   1      31.930  17.531 -23.687  0.00  0.00     0.297 A 
ATOM      3  O   UNL d   1      31.895  18.341 -23.535  0.00  0.00    -0.253 OA
ATOM      4  N   UNL d   1      33.077  17.891 -23.119  0.00  0.00    -0.119 NA
ATOM      5  N   UNL d   1      32.657  17.255 -23.432  0.00  0.00    -0.101 NA
ENDROOT
BRANCH   2   6
ATOM      6  N   UNL d   1      31.330  17.086 -24.037  0.00  0.00    -0.165 NA
ATOM      7  C   UNL d   1      30.694  16.833 -23.594  0.00  0.00     0.282 C 
ATOM      8  O   UNL d   1      30.641  17.018 -22.790  0.00  0.00    -0.265 OA
BRANCH   7   9
ATOM      9  C   UNL d   1      30.092  16.386 -23.947  0.00  0.00     0.060 A 
ATOM     10  C   UNL d   1      29.435  16.143 -23.509  0.00  0.00     0.034 A 
ATOM     11  C   UNL d   1      28.841  15.700 -23.865  0.00  0.00     0.140 A 
ATOM     12  F   UNL d   1      28.174  15.453 -23.421  0.00  0.00    -0.204 F 
ATOM     13  C   UNL d   1      28.896  15.494 -24.662  0.00  0.00     0.030 A 
ATOM     14  C   UNL d   1      29.550  15.735 -25.097  0.00  0.00     0.003 A 
ATOM     15  C   UNL d   1      30.145  16.177 -24.747  0.00  0.00     0.005 A 
ENDBRANCH   7   9
ENDBRANCH   2   6
BRANCH   1  16
ATOM     16  C   UNL d   1      32.810  19.329 -22.936  0.00  0.00     0.072 A 
ATOM     17  S   UNL d   1      33.132  19.537 -22.210  0.00  0.00    -0.083 SA
ATOM     18  C   UNL d   1      33.241  20.354 -22.205  0.00  0.00     0.035 A 
ATOM     19  C   UNL d   1      32.984  20.653 -22.934  0.00  0.00     0.008 A 
ATOM     20  C   UNL d   1      32.717  20.014 -23.387  0.00  0.00     0.011 A 
ENDBRANCH   1  16
TORSDOF 3
ENDMDL
