MODEL 1
REMARK VINA RESULT:       4.8      0.000      0.000
REMARK  1 active torsions:
REMARK  status: ('A' for Active; 'I' for Inactive)
REMARK    1  A    between atoms: C_4  and  N_1 
ROOT
ATOM      1  N   UNL d   1     -51.443  25.364  33.307  0.00  0.00    -0.240 N 
ATOM      2  C   UNL d   1     -51.717  26.146  33.308  0.00  0.00     0.267 A 
ATOM      3  C   UNL d   1     -50.613  25.391  33.307  0.00  0.00     0.267 A 
ATOM      4  C   UNL d   1     -50.384  26.181  33.307  0.00  0.00     0.066 A 
ATOM      5  C   UNL d   1     -51.062  26.651  33.308  0.00  0.00     0.066 A 
ATOM      6  O   UNL d   1     -52.514  26.380  33.308  0.00  0.00    -0.267 OA
ATOM      7  O   UNL d   1     -50.117  24.733  33.306  0.00  0.00    -0.267 OA
ENDROOT
BRANCH   1   8
ATOM      8  C   UNL d   1     -51.909  24.683  33.307  0.00  0.00     0.097 A 
ATOM      9  C   UNL d   1     -51.550  23.942  33.307  0.00  0.00     0.156 A 
ATOM     10  F   UNL d   1     -50.724  23.883  33.307  0.00  0.00    -0.203 F 
ATOM     11  C   UNL d   1     -52.011  23.258  33.306  0.00  0.00     0.031 A 
ATOM     12  C   UNL d   1     -52.835  23.327  33.306  0.00  0.00     0.002 A 
ATOM     13  C   UNL d   1     -53.192  24.072  33.306  0.00  0.00     0.002 A 
ATOM     14  C   UNL d   1     -52.723  24.750  33.306  0.00  0.00     0.020 A 
ENDBRANCH   1   8
TORSDOF 1
ENDMDL
