MODEL 1
REMARK VINA RESULT:      47.6      0.000      0.000
REMARK  4 active torsions:
REMARK  status: ('A' for Active; 'I' for Inactive)
REMARK    1  A    between atoms: S_3  and  N_1 
REMARK    2  A    between atoms: C_7  and  C_4 
REMARK    3  A    between atoms: C_11  and  C_5 
REMARK    4  A    between atoms: O_21  and  C_18 
ROOT
ATOM      1  N   UNL d   1     -50.361  24.789  33.604  0.00  0.00    -0.155 N 
ATOM      2  N   UNL d   1     -49.957  25.502  33.598  0.00  0.00    -0.156 NA
ATOM      3  C   UNL d   1     -51.164  24.943  33.498  0.00  0.00     0.102 A 
ATOM      4  C   UNL d   1     -50.491  26.121  33.489  0.00  0.00     0.104 A 
ATOM      5  C   UNL d   1     -51.252  25.753  33.427  0.00  0.00     0.041 A 
ENDROOT
BRANCH   4   6
ATOM      6  C   UNL d   1     -50.330  26.900  33.449  0.00  0.00     0.020 A 
ATOM      7  C   UNL d   1     -50.972  27.462  33.376  0.00  0.00     0.004 A 
ATOM      8  C   UNL d   1     -50.826  28.255  33.335  0.00  0.00     0.024 A 
ATOM      9  C   UNL d   1     -50.045  28.564  33.361  0.00  0.00     0.094 A 
ATOM     10  C   UNL d   1     -49.422  28.018  33.432  0.00  0.00     0.024 A 
ATOM     11  C   UNL d   1     -49.542  27.203  33.476  0.00  0.00     0.004 A 
BRANCH   9  12
ATOM     12  O   UNL d   1     -49.900  29.394  33.317  0.00  0.00    -0.328 OA
ATOM     13  C   UNL d   1     -49.418  29.742  33.890  0.00  0.00     0.181 C 
ENDBRANCH   9  12
ENDBRANCH   4   6
BRANCH   1  14
ATOM     14  S   UNL d   1     -49.998  24.030  33.704  0.00  0.00     0.266 S 
ATOM     15  O   UNL d   1     -50.673  23.735  34.061  0.00  0.00    -0.203 OA
ATOM     16  O   UNL d   1     -49.632  23.299  33.795  0.00  0.00    -0.203 OA
ATOM     17  C   UNL d   1     -49.295  24.350  33.329  0.00  0.00     0.165 C 
ENDBRANCH   1  14
BRANCH   3  18
ATOM     18  C   UNL d   1     -51.770  24.371  33.469  0.00  0.00     0.048 A 
ATOM     19  S   UNL d   1     -51.694  23.579  33.588  0.00  0.00    -0.085 SA
ATOM     20  C   UNL d   1     -52.427  23.215  33.510  0.00  0.00     0.035 A 
ATOM     21  C   UNL d   1     -52.963  23.786  33.342  0.00  0.00     0.007 A 
ATOM     22  C   UNL d   1     -52.567  24.499  33.315  0.00  0.00     0.009 A 
ENDBRANCH   3  18
TORSDOF 4
ENDMDL
