MODEL 1
REMARK VINA RESULT:      -4.5      0.000      0.000
REMARK  3 active torsions:
REMARK  status: ('A' for Active; 'I' for Inactive)
REMARK    1  A    between atoms: C_7  and  C_1 
REMARK    2  A    between atoms: O_20  and  C_12 
REMARK    3  A    between atoms: O_22  and  C_16 
ROOT
ATOM      1  C   UNL d   1     -41.599-122.457 -51.856  0.00  0.00     0.062 A 
ATOM      2  C   UNL d   1     -41.798-122.912 -52.526  0.00  0.00     0.202 A 
ATOM      3  C   UNL d   1     -41.734-122.590 -53.286  0.00  0.00     0.101 A 
ATOM      4  C   UNL d   1     -41.334-121.670 -51.954  0.00  0.00     0.103 A 
ATOM      5  C   UNL d   1     -41.468-121.802 -53.380  0.00  0.00     0.109 A 
ATOM      6  O   UNL d   1     -41.269-121.344 -52.722  0.00  0.00    -0.307 OA
ATOM      7  C   UNL d   1     -41.931-123.040 -53.945  0.00  0.00     0.204 A 
ATOM      8  C   UNL d   1     -41.404-121.479 -54.139  0.00  0.00     0.067 A 
ATOM      9  C   UNL d   1     -41.866-122.717 -54.699  0.00  0.00     0.084 A 
ATOM     10  O   UNL d   1     -42.061-123.689 -52.430  0.00  0.00    -0.286 OA
ATOM     11  C   UNL d   1     -41.604-121.941 -54.796  0.00  0.00     0.201 A 
ATOM     12  O   UNL d   1     -42.193-123.816 -53.848  0.00  0.00    -0.286 OA
ATOM     13  C   UNL d   1     -41.138-121.223 -51.296  0.00  0.00     0.027 C 
ATOM     14  O   UNL d   1     -41.540-121.618 -55.550  0.00  0.00    -0.286 OA
ENDROOT
BRANCH   1  15
ATOM     15  C   UNL d   1     -41.664-122.781 -51.106  0.00  0.00     0.007 A 
ATOM     16  C   UNL d   1     -42.270-122.532 -50.607  0.00  0.00     0.026 A 
ATOM     17  C   UNL d   1     -42.337-122.856 -49.852  0.00  0.00     0.116 A 
ATOM     18  C   UNL d   1     -41.794-123.433 -49.595  0.00  0.00     0.116 A 
ATOM     19  C   UNL d   1     -41.190-123.675 -50.105  0.00  0.00     0.026 A 
ATOM     20  C   UNL d   1     -41.123-123.352 -50.859  0.00  0.00     0.002 A 
BRANCH  17  21
ATOM     21  O   UNL d   1     -42.945-122.608 -49.348  0.00  0.00    -0.326 OA
ATOM     22  C   UNL d   1     -43.728-122.642 -49.605  0.00  0.00     0.181 C 
ENDBRANCH  17  21
BRANCH  18  23
ATOM     23  O   UNL d   1     -41.862-123.756 -48.841  0.00  0.00    -0.326 OA
ATOM     24  C   UNL d   1     -41.197-123.813 -48.353  0.00  0.00     0.181 C 
ENDBRANCH  18  23
ENDBRANCH   1  15
TORSDOF 3
ENDMDL
