MODEL 1
REMARK VINA RESULT:      52.6      0.000      0.000
REMARK  3 active torsions:
REMARK  status: ('A' for Active; 'I' for Inactive)
REMARK       I    between atoms: N_3  and  C_1 
REMARK    1  A    between atoms: C_6  and  C_1 
REMARK    2  A    between atoms: N_2  and  C_4 
REMARK    3  A    between atoms: C_9  and  N_3 
ROOT
ATOM      1  C   UNL d   1     -50.993  25.324  33.561  0.00  0.00     0.064 A 
ATOM      2  C   UNL d   1     -50.202  25.287  33.310  0.00  0.00     0.019 A 
ATOM      3  C   UNL d   1     -51.299  26.022  33.894  0.00  0.00     0.019 A 
ATOM      4  C   UNL d   1     -50.036  26.655  33.731  0.00  0.00     0.085 A 
ATOM      5  C   UNL d   1     -49.730  25.957  33.398  0.00  0.00     0.021 A 
ATOM      6  C   UNL d   1     -50.817  26.688  33.978  0.00  0.00     0.021 A 
ENDROOT
BRANCH   4   7
ATOM      7  N   UNL d   1     -49.546  27.324  33.813  0.00  0.00    -0.208 NA
ATOM      8  C   UNL d   1     -49.351  27.606  34.565  0.00  0.00     0.279 C 
ATOM      9  O   UNL d   1     -49.643  27.222  35.243  0.00  0.00    -0.265 OA
BRANCH   8  10
ATOM     10  C   UNL d   1     -48.862  28.272  34.645  0.00  0.00     0.058 A 
ATOM     11  C   UNL d   1     -49.068  28.976  34.250  0.00  0.00     0.005 A 
ATOM     12  C   UNL d   1     -48.581  29.634  34.332  0.00  0.00     0.000 A 
ATOM     13  C   UNL d   1     -47.892  29.593  34.805  0.00  0.00     0.000 A 
ATOM     14  C   UNL d   1     -47.704  28.894  35.186  0.00  0.00     0.000 A 
ATOM     15  C   UNL d   1     -48.184  28.231  35.111  0.00  0.00     0.005 A 
ENDBRANCH   8  10
ENDBRANCH   4   7
BRANCH   1  16
ATOM     16  N   UNL d   1     -51.479  24.647  33.475  0.00  0.00    -0.304 N 
ATOM     17  C   UNL d   1     -52.292  24.734  33.430  0.00  0.00     0.080 A 
ATOM     18  C   UNL d   1     -52.778  24.057  33.344  0.00  0.00     0.019 A 
ATOM     19  C   UNL d   1     -52.422  23.315  33.306  0.00  0.00     0.003 A 
ATOM     20  C   UNL d   1     -51.608  23.237  33.351  0.00  0.00     0.019 A 
ATOM     21  C   UNL d   1     -51.132  23.898  33.435  0.00  0.00     0.080 A 
ENDBRANCH   1  16
TORSDOF 3
ENDMDL
