MODEL 1
REMARK VINA RESULT:      -8.0      0.000      0.000
REMARK  10 active torsions:
REMARK  status: ('A' for Active; 'I' for Inactive)
REMARK    1  A    between atoms: C_3  and  C_1 
REMARK    2  A    between atoms: C_4  and  C_1 
REMARK    3  A    between atoms: N_2  and  C_8 
REMARK    4  A    between atoms: O_19  and  C_3 
REMARK    5  A    between atoms: C_14  and  C_4 
REMARK    6  A    between atoms: C_20  and  N_7 
REMARK    7  A    between atoms: C_9  and  C_20 
REMARK    8  A    between atoms: C_13  and  C_9 
REMARK    9  A    between atoms: C_23  and  C_13 
REMARK   10  A    between atoms: C_24  and  O_19 
ROOT
ATOM      1  C   UNL d   1      46.929  35.945  52.641  0.00  0.00     0.132 C 
ATOM      2  C   UNL d   1      46.850  36.025  53.460  0.00  0.00     0.106 C 
ATOM      3  N   UNL d   1      46.768  36.105  54.279  0.00  0.00    -0.191 NA
ENDROOT
BRANCH   1   4
ATOM      4  C   UNL d   1      46.316  35.656  52.187  0.00  0.00     0.310 C 
ATOM      5  O   UNL d   1      46.024  34.911  52.303  0.00  0.00    -0.258 OA
BRANCH   4   6
ATOM      6  O   UNL d   1      45.992  36.131  51.603  0.00  0.00    -0.271 OA
BRANCH   6   7
ATOM      7  C   UNL d   1      45.326  35.872  51.187  0.00  0.00     0.126 C 
ATOM      8  C   UNL d   1      44.941  36.400  50.673  0.00  0.00     0.029 C 
ENDBRANCH   6   7
ENDBRANCH   4   6
ENDBRANCH   1   4
BRANCH   1   9
ATOM      9  C   UNL d   1      47.633  36.157  52.277  0.00  0.00     0.016 C 
BRANCH   9  10
ATOM     10  C   UNL d   1      48.310  35.660  52.373  0.00  0.00     0.001 A 
ATOM     11  C   UNL d   1      48.767  35.675  53.081  0.00  0.00     0.002 A 
ATOM     12  C   UNL d   1      49.415  35.189  53.153  0.00  0.00     0.018 A 
ATOM     13  C   UNL d   1      49.639  34.681  52.555  0.00  0.00     0.064 A 
ATOM     14  C   UNL d   1      49.202  34.661  51.867  0.00  0.00     0.018 A 
ATOM     15  C   UNL d   1      48.538  35.149  51.776  0.00  0.00     0.002 A 
BRANCH  13  16
ATOM     16  N   UNL d   1      50.304  34.192  52.646  0.00  0.00    -0.301 N 
ATOM     17  C   UNL d   1      50.301  33.581  53.190  0.00  0.00     0.100 A 
ATOM     18  C   UNL d   1      50.965  33.092  53.282  0.00  0.00     0.100 A 
ATOM     19  N   UNL d   1      51.633  33.213  52.829  0.00  0.00    -0.300 N 
ATOM     20  C   UNL d   1      51.648  33.843  52.262  0.00  0.00     0.100 A 
ATOM     21  C   UNL d   1      50.979  34.321  52.183  0.00  0.00     0.100 A 
BRANCH  19  22
ATOM     22  C   UNL d   1      52.298  32.724  52.921  0.00  0.00     0.080 C 
BRANCH  22  23
ATOM     23  C   UNL d   1      52.887  32.914  53.483  0.00  0.00     0.019 C 
BRANCH  23  24
ATOM     24  C   UNL d   1      53.541  32.561  53.666  0.00  0.00     0.002 C 
BRANCH  24  25
ATOM     25  C   UNL d   1      54.053  32.914  54.191  0.00  0.00     0.000 A 
ATOM     26  C   UNL d   1      53.892  32.877  54.985  0.00  0.00     0.000 A 
ATOM     27  C   UNL d   1      54.401  33.230  55.529  0.00  0.00     0.000 A 
ATOM     28  C   UNL d   1      55.072  33.620  55.271  0.00  0.00     0.000 A 
ATOM     29  C   UNL d   1      55.231  33.655  54.456  0.00  0.00     0.000 A 
ATOM     30  C   UNL d   1      54.716  33.298  53.918  0.00  0.00     0.000 A 
ENDBRANCH  24  25
ENDBRANCH  23  24
ENDBRANCH  22  23
ENDBRANCH  19  22
ENDBRANCH  13  16
ENDBRANCH   9  10
ENDBRANCH   1   9
TORSDOF 10
ENDMDL
MODEL 2
REMARK VINA RESULT:      -7.2      2.468      7.058
REMARK  10 active torsions:
REMARK  status: ('A' for Active; 'I' for Inactive)
REMARK    1  A    between atoms: C_3  and  C_1 
REMARK    2  A    between atoms: C_4  and  C_1 
REMARK    3  A    between atoms: N_2  and  C_8 
REMARK    4  A    between atoms: O_19  and  C_3 
REMARK    5  A    between atoms: C_14  and  C_4 
REMARK    6  A    between atoms: C_20  and  N_7 
REMARK    7  A    between atoms: C_9  and  C_20 
REMARK    8  A    between atoms: C_13  and  C_9 
REMARK    9  A    between atoms: C_23  and  C_13 
REMARK   10  A    between atoms: C_24  and  O_19 
ROOT
ATOM      1  C   UNL d   1      53.070  32.713  53.505  0.00  0.00     0.132 C 
ATOM      2  C   UNL d   1      52.905  32.101  52.974  0.00  0.00     0.106 C 
ATOM      3  N   UNL d   1      52.743  31.490  52.441  0.00  0.00    -0.191 NA
ENDROOT
BRANCH   1   4
ATOM      4  C   UNL d   1      53.824  33.014  53.576  0.00  0.00     0.310 C 
ATOM      5  O   UNL d   1      54.274  33.177  52.923  0.00  0.00    -0.258 OA
BRANCH   4   6
ATOM      6  O   UNL d   1      54.132  33.153  54.323  0.00  0.00    -0.271 OA
BRANCH   6   7
ATOM      7  C   UNL d   1      54.930  33.350  54.408  0.00  0.00     0.126 C 
ATOM      8  C   UNL d   1      55.191  33.682  55.124  0.00  0.00     0.029 C 
ENDBRANCH   6   7
ENDBRANCH   4   6
ENDBRANCH   1   4
BRANCH   1   9
ATOM      9  C   UNL d   1      52.469  33.023  53.968  0.00  0.00     0.016 C 
BRANCH   9  10
ATOM     10  C   UNL d   1      51.810  33.394  53.590  0.00  0.00     0.001 A 
ATOM     11  C   UNL d   1      51.883  34.152  53.228  0.00  0.00     0.002 A 
ATOM     12  C   UNL d   1      51.237  34.491  52.870  0.00  0.00     0.018 A 
ATOM     13  C   UNL d   1      50.511  34.117  52.848  0.00  0.00     0.064 A 
ATOM     14  C   UNL d   1      50.434  33.383  53.196  0.00  0.00     0.018 A 
ATOM     15  C   UNL d   1      51.082  33.022  53.566  0.00  0.00     0.002 A 
BRANCH  13  16
ATOM     16  N   UNL d   1      49.862  34.478  52.477  0.00  0.00    -0.301 N 
ATOM     17  C   UNL d   1      49.650  34.273  51.715  0.00  0.00     0.100 A 
ATOM     18  C   UNL d   1      49.001  34.635  51.344  0.00  0.00     0.100 A 
ATOM     19  N   UNL d   1      48.564  35.202  51.736  0.00  0.00    -0.300 N 
ATOM     20  C   UNL d   1      48.775  35.423  52.527  0.00  0.00     0.100 A 
ATOM     21  C   UNL d   1      49.423  35.054  52.882  0.00  0.00     0.100 A 
BRANCH  19  22
ATOM     22  C   UNL d   1      47.915  35.563  51.365  0.00  0.00     0.080 C 
BRANCH  22  23
ATOM     23  C   UNL d   1      47.170  35.582  51.743  0.00  0.00     0.019 C 
BRANCH  23  24
ATOM     24  C   UNL d   1      46.480  35.791  51.487  0.00  0.00     0.002 C 
BRANCH  24  25
ATOM     25  C   UNL d   1      45.860  35.855  52.012  0.00  0.00     0.000 A 
ATOM     26  C   UNL d   1      45.753  36.553  52.410  0.00  0.00     0.000 A 
ATOM     27  C   UNL d   1      45.130  36.634  52.945  0.00  0.00     0.000 A 
ATOM     28  C   UNL d   1      44.618  36.011  53.076  0.00  0.00     0.000 A 
ATOM     29  C   UNL d   1      44.734  35.298  52.664  0.00  0.00     0.000 A 
ATOM     30  C   UNL d   1      45.360  35.225  52.130  0.00  0.00     0.000 A 
ENDBRANCH  24  25
ENDBRANCH  23  24
ENDBRANCH  22  23
ENDBRANCH  19  22
ENDBRANCH  13  16
ENDBRANCH   9  10
ENDBRANCH   1   9
TORSDOF 10
ENDMDL
MODEL 3
REMARK VINA RESULT:      -6.9      2.485      6.896
REMARK  10 active torsions:
REMARK  status: ('A' for Active; 'I' for Inactive)
REMARK    1  A    between atoms: C_3  and  C_1 
REMARK    2  A    between atoms: C_4  and  C_1 
REMARK    3  A    between atoms: N_2  and  C_8 
REMARK    4  A    between atoms: O_19  and  C_3 
REMARK    5  A    between atoms: C_14  and  C_4 
REMARK    6  A    between atoms: C_20  and  N_7 
REMARK    7  A    between atoms: C_9  and  C_20 
REMARK    8  A    between atoms: C_13  and  C_9 
REMARK    9  A    between atoms: C_23  and  C_13 
REMARK   10  A    between atoms: C_24  and  O_19 
ROOT
ATOM      1  C   UNL d   1      52.929  33.048  53.432  0.00  0.00     0.132 C 
ATOM      2  C   UNL d   1      53.176  33.786  53.711  0.00  0.00     0.106 C 
ATOM      3  N   UNL d   1      53.425  34.523  53.993  0.00  0.00    -0.191 NA
ENDROOT
BRANCH   1   4
ATOM      4  C   UNL d   1      53.141  32.362  53.819  0.00  0.00     0.310 C 
ATOM      5  O   UNL d   1      53.263  32.352  54.618  0.00  0.00    -0.258 OA
BRANCH   4   6
ATOM      6  O   UNL d   1      53.231  31.670  53.387  0.00  0.00    -0.271 OA
BRANCH   6   7
ATOM      7  C   UNL d   1      53.537  30.995  53.754  0.00  0.00     0.126 C 
ATOM      8  C   UNL d   1      53.366  30.249  53.432  0.00  0.00     0.029 C 
ENDBRANCH   6   7
ENDBRANCH   4   6
ENDBRANCH   1   4
BRANCH   1   9
ATOM      9  C   UNL d   1      52.465  33.002  52.758  0.00  0.00     0.016 C 
BRANCH   9  10
ATOM     10  C   UNL d   1      51.748  33.448  52.724  0.00  0.00     0.001 A 
ATOM     11  C   UNL d   1      51.110  33.294  53.253  0.00  0.00     0.002 A 
ATOM     12  C   UNL d   1      50.429  33.735  53.203  0.00  0.00     0.018 A 
ATOM     13  C   UNL d   1      50.342  34.329  52.650  0.00  0.00     0.064 A 
ATOM     14  C   UNL d   1      50.954  34.484  52.135  0.00  0.00     0.018 A 
ATOM     15  C   UNL d   1      51.657  34.044  52.171  0.00  0.00     0.002 A 
BRANCH  13  16
ATOM     16  N   UNL d   1      49.638  34.770  52.613  0.00  0.00    -0.301 N 
ATOM     17  C   UNL d   1      49.172  34.757  51.941  0.00  0.00     0.100 A 
ATOM     18  C   UNL d   1      48.470  35.197  51.905  0.00  0.00     0.100 A 
ATOM     19  N   UNL d   1      48.232  35.650  52.540  0.00  0.00    -0.300 N 
ATOM     20  C   UNL d   1      48.707  35.672  53.243  0.00  0.00     0.100 A 
ATOM     21  C   UNL d   1      49.403  35.228  53.263  0.00  0.00     0.100 A 
BRANCH  19  22
ATOM     22  C   UNL d   1      47.529  36.090  52.503  0.00  0.00     0.080 C 
BRANCH  22  23
ATOM     23  C   UNL d   1      46.835  35.809  52.876  0.00  0.00     0.019 C 
BRANCH  23  24
ATOM     24  C   UNL d   1      46.148  36.131  52.970  0.00  0.00     0.002 C 
BRANCH  24  25
ATOM     25  C   UNL d   1      45.537  35.689  53.279  0.00  0.00     0.000 A 
ATOM     26  C   UNL d   1      45.467  35.624  54.084  0.00  0.00     0.000 A 
ATOM     27  C   UNL d   1      44.854  35.180  54.412  0.00  0.00     0.000 A 
ATOM     28  C   UNL d   1      44.314  34.804  53.927  0.00  0.00     0.000 A 
ATOM     29  C   UNL d   1      44.392  34.875  53.103  0.00  0.00     0.000 A 
ATOM     30  C   UNL d   1      45.009  35.321  52.782  0.00  0.00     0.000 A 
ENDBRANCH  24  25
ENDBRANCH  23  24
ENDBRANCH  22  23
ENDBRANCH  19  22
ENDBRANCH  13  16
ENDBRANCH   9  10
ENDBRANCH   1   9
TORSDOF 10
ENDMDL
MODEL 4
REMARK VINA RESULT:      -5.1      2.635      6.978
REMARK  10 active torsions:
REMARK  status: ('A' for Active; 'I' for Inactive)
REMARK    1  A    between atoms: C_3  and  C_1 
REMARK    2  A    between atoms: C_4  and  C_1 
REMARK    3  A    between atoms: N_2  and  C_8 
REMARK    4  A    between atoms: O_19  and  C_3 
REMARK    5  A    between atoms: C_14  and  C_4 
REMARK    6  A    between atoms: C_20  and  N_7 
REMARK    7  A    between atoms: C_9  and  C_20 
REMARK    8  A    between atoms: C_13  and  C_9 
REMARK    9  A    between atoms: C_23  and  C_13 
REMARK   10  A    between atoms: C_24  and  O_19 
ROOT
ATOM      1  C   UNL d   1      53.048  32.023  53.473  0.00  0.00     0.132 C 
ATOM      2  C   UNL d   1      52.900  31.704  52.725  0.00  0.00     0.106 C 
ATOM      3  N   UNL d   1      52.752  31.382  51.977  0.00  0.00    -0.191 NA
ENDROOT
BRANCH   1   4
ATOM      4  C   UNL d   1      53.269  31.545  54.096  0.00  0.00     0.310 C 
ATOM      5  O   UNL d   1      53.643  31.850  54.745  0.00  0.00    -0.258 OA
BRANCH   4   6
ATOM      6  O   UNL d   1      53.110  30.742  54.061  0.00  0.00    -0.271 OA
BRANCH   6   7
ATOM      7  C   UNL d   1      53.419  30.237  54.639  0.00  0.00     0.126 C 
ATOM      8  C   UNL d   1      53.188  29.439  54.643  0.00  0.00     0.029 C 
ENDBRANCH   6   7
ENDBRANCH   4   6
ENDBRANCH   1   4
BRANCH   1   9
ATOM      9  C   UNL d   1      52.971  32.830  53.594  0.00  0.00     0.016 C 
BRANCH   9  10
ATOM     10  C   UNL d   1      52.266  33.218  53.336  0.00  0.00     0.001 A 
ATOM     11  C   UNL d   1      51.507  32.974  53.610  0.00  0.00     0.002 A 
ATOM     12  C   UNL d   1      50.842  33.361  53.349  0.00  0.00     0.018 A 
ATOM     13  C   UNL d   1      50.885  33.986  52.825  0.00  0.00     0.064 A 
ATOM     14  C   UNL d   1      51.616  34.227  52.556  0.00  0.00     0.018 A 
ATOM     15  C   UNL d   1      52.306  33.844  52.811  0.00  0.00     0.002 A 
BRANCH  13  16
ATOM     16  N   UNL d   1      50.194  34.369  52.569  0.00  0.00    -0.301 N 
ATOM     17  C   UNL d   1      49.792  34.880  53.065  0.00  0.00     0.100 A 
ATOM     18  C   UNL d   1      49.102  35.263  52.810  0.00  0.00     0.100 A 
ATOM     19  N   UNL d   1      48.813  35.136  52.058  0.00  0.00    -0.300 N 
ATOM     20  C   UNL d   1      49.220  34.609  51.534  0.00  0.00     0.100 A 
ATOM     21  C   UNL d   1      49.906  34.235  51.803  0.00  0.00     0.100 A 
BRANCH  19  22
ATOM     22  C   UNL d   1      48.121  35.520  51.803  0.00  0.00     0.080 C 
BRANCH  22  23
ATOM     23  C   UNL d   1      47.467  35.597  52.318  0.00  0.00     0.019 C 
BRANCH  23  24
ATOM     24  C   UNL d   1      46.848  36.044  52.281  0.00  0.00     0.002 C 
BRANCH  24  25
ATOM     25  C   UNL d   1      46.169  35.821  52.672  0.00  0.00     0.000 A 
ATOM     26  C   UNL d   1      45.573  35.463  52.253  0.00  0.00     0.000 A 
ATOM     27  C   UNL d   1      44.880  35.231  52.634  0.00  0.00     0.000 A 
ATOM     28  C   UNL d   1      44.789  35.360  53.436  0.00  0.00     0.000 A 
ATOM     29  C   UNL d   1      45.403  35.728  53.859  0.00  0.00     0.000 A 
ATOM     30  C   UNL d   1      46.095  35.957  53.470  0.00  0.00     0.000 A 
ENDBRANCH  24  25
ENDBRANCH  23  24
ENDBRANCH  22  23
ENDBRANCH  19  22
ENDBRANCH  13  16
ENDBRANCH   9  10
ENDBRANCH   1   9
TORSDOF 10
ENDMDL
