MODEL 1
REMARK VINA RESULT:      -8.7      0.000      0.000
REMARK  5 active torsions:
REMARK  status: ('A' for Active; 'I' for Inactive)
REMARK    1  A    between atoms: N_2  and  S_1 
REMARK    2  A    between atoms: C_3  and  S_1 
REMARK    3  A    between atoms: C_15  and  C_11 
REMARK    4  A    between atoms: O_17  and  C_12 
REMARK    5  A    between atoms: C_21  and  O_17 
ROOT
ATOM      1  C   UNL d   1      53.208  33.020  53.819  0.00  0.00     0.128 A 
ATOM      2  C   UNL d   1      53.729  33.479  54.262  0.00  0.00     0.015 A 
ATOM      3  C   UNL d   1      54.386  33.131  54.618  0.00  0.00     0.001 A 
ATOM      4  C   UNL d   1      53.345  32.213  53.733  0.00  0.00     0.112 A 
ATOM      5  C   UNL d   1      54.523  32.323  54.532  0.00  0.00     0.002 A 
ATOM      6  C   UNL d   1      54.002  31.865  54.089  0.00  0.00     0.025 A 
ENDROOT
BRANCH   1   7
ATOM      7  S   UNL d   1      52.550  33.368  53.463  0.00  0.00     0.288 S 
ATOM      8  O   UNL d   1      52.172  33.402  54.195  0.00  0.00    -0.198 OA
ATOM      9  O   UNL d   1      52.929  33.334  52.731  0.00  0.00    -0.198 OA
BRANCH   7  10
ATOM     10  N   UNL d   1      51.893  33.716  53.107  0.00  0.00    -0.152 N 
ATOM     11  N   UNL d   1      51.106  33.513  53.234  0.00  0.00    -0.155 NA
ATOM     12  C   UNL d   1      50.631  33.998  52.769  0.00  0.00     0.104 A 
ATOM     13  C   UNL d   1      49.806  33.980  52.728  0.00  0.00     0.022 C 
ATOM     14  C   UNL d   1      51.127  34.506  52.349  0.00  0.00     0.041 A 
ATOM     15  C   UNL d   1      51.905  34.332  52.558  0.00  0.00     0.096 A 
ATOM     16  C   UNL d   1      52.579  34.708  52.269  0.00  0.00     0.022 C 
ENDBRANCH   7  10
ENDBRANCH   1   7
BRANCH   4  17
ATOM     17  O   UNL d   1      52.823  31.750  53.289  0.00  0.00    -0.304 OA
BRANCH  17  18
ATOM     18  C   UNL d   1      52.988  30.954  53.155  0.00  0.00     0.123 C 
ATOM     19  C   UNL d   1      52.399  30.449  52.863  0.00  0.00     0.029 C 
ENDBRANCH  17  18
ENDBRANCH   4  17
BRANCH   3  20
ATOM     20  C   UNL d   1      54.908  33.589  55.060  0.00  0.00     0.000 C 
ATOM     21  C   UNL d   1      55.552  33.962  54.690  0.00  0.00     0.000 C 
ATOM     22  C   UNL d   1      54.792  33.680  55.872  0.00  0.00     0.000 C 
ENDBRANCH   3  20
TORSDOF 5
ENDMDL
MODEL 2
REMARK VINA RESULT:      -8.3      1.356      3.643
REMARK  5 active torsions:
REMARK  status: ('A' for Active; 'I' for Inactive)
REMARK    1  A    between atoms: N_2  and  S_1 
REMARK    2  A    between atoms: C_3  and  S_1 
REMARK    3  A    between atoms: C_15  and  C_11 
REMARK    4  A    between atoms: O_17  and  C_12 
REMARK    5  A    between atoms: C_21  and  O_17 
ROOT
ATOM      1  C   UNL d   1      52.741  32.830  53.445  0.00  0.00     0.128 A 
ATOM      2  C   UNL d   1      52.112  33.096  52.985  0.00  0.00     0.015 A 
ATOM      3  C   UNL d   1      51.954  33.904  52.930  0.00  0.00     0.001 A 
ATOM      4  C   UNL d   1      53.212  33.370  53.848  0.00  0.00     0.112 A 
ATOM      5  C   UNL d   1      52.425  34.446  53.334  0.00  0.00     0.002 A 
ATOM      6  C   UNL d   1      53.054  34.178  53.793  0.00  0.00     0.025 A 
ENDROOT
BRANCH   1   7
ATOM      7  S   UNL d   1      52.899  32.022  53.500  0.00  0.00     0.288 S 
ATOM      8  O   UNL d   1      52.282  31.939  54.041  0.00  0.00    -0.198 OA
ATOM      9  O   UNL d   1      53.516  32.106  52.959  0.00  0.00    -0.198 OA
BRANCH   7  10
ATOM     10  N   UNL d   1      53.057  31.214  53.556  0.00  0.00    -0.152 N 
ATOM     11  N   UNL d   1      53.246  30.801  54.241  0.00  0.00    -0.155 NA
ATOM     12  C   UNL d   1      53.360  30.009  54.048  0.00  0.00     0.104 A 
ATOM     13  C   UNL d   1      53.558  29.403  54.572  0.00  0.00     0.022 C 
ATOM     14  C   UNL d   1      53.240  29.930  53.235  0.00  0.00     0.041 A 
ATOM     15  C   UNL d   1      53.053  30.674  52.932  0.00  0.00     0.096 A 
ATOM     16  C   UNL d   1      52.890  30.847  52.143  0.00  0.00     0.022 C 
ENDBRANCH   7  10
ENDBRANCH   1   7
BRANCH   4  17
ATOM     17  O   UNL d   1      53.844  33.105  54.310  0.00  0.00    -0.304 OA
BRANCH  17  18
ATOM     18  C   UNL d   1      54.267  33.636  54.777  0.00  0.00     0.123 C 
ATOM     19  C   UNL d   1      54.951  33.389  55.175  0.00  0.00     0.029 C 
ENDBRANCH  17  18
ENDBRANCH   4  17
BRANCH   3  20
ATOM     20  C   UNL d   1      51.325  34.172  52.471  0.00  0.00     0.000 C 
ATOM     21  C   UNL d   1      50.579  34.293  52.816  0.00  0.00     0.000 C 
ATOM     22  C   UNL d   1      51.434  34.320  51.666  0.00  0.00     0.000 C 
ENDBRANCH   3  20
TORSDOF 5
ENDMDL
MODEL 3
REMARK VINA RESULT:      -7.6      1.380      3.579
REMARK  5 active torsions:
REMARK  status: ('A' for Active; 'I' for Inactive)
REMARK    1  A    between atoms: N_2  and  S_1 
REMARK    2  A    between atoms: C_3  and  S_1 
REMARK    3  A    between atoms: C_15  and  C_11 
REMARK    4  A    between atoms: O_17  and  C_12 
REMARK    5  A    between atoms: C_21  and  O_17 
ROOT
ATOM      1  C   UNL d   1      53.320  32.026  53.630  0.00  0.00     0.128 A 
ATOM      2  C   UNL d   1      53.444  31.212  53.615  0.00  0.00     0.015 A 
ATOM      3  C   UNL d   1      52.898  30.717  53.244  0.00  0.00     0.001 A 
ATOM      4  C   UNL d   1      52.651  32.345  53.274  0.00  0.00     0.112 A 
ATOM      5  C   UNL d   1      52.228  31.037  52.887  0.00  0.00     0.002 A 
ATOM      6  C   UNL d   1      52.105  31.851  52.902  0.00  0.00     0.025 A 
ENDROOT
BRANCH   1   7
ATOM      7  S   UNL d   1      53.866  32.520  54.001  0.00  0.00     0.288 S 
ATOM      8  O   UNL d   1      53.496  32.384  54.726  0.00  0.00    -0.198 OA
ATOM      9  O   UNL d   1      54.236  32.656  53.276  0.00  0.00    -0.198 OA
BRANCH   7  10
ATOM     10  N   UNL d   1      54.412  33.014  54.373  0.00  0.00    -0.152 N 
ATOM     11  N   UNL d   1      54.340  33.342  55.124  0.00  0.00    -0.155 NA
ATOM     12  C   UNL d   1      55.008  33.798  55.276  0.00  0.00     0.104 A 
ATOM     13  C   UNL d   1      55.160  34.225  55.967  0.00  0.00     0.022 C 
ATOM     14  C   UNL d   1      55.499  33.753  54.615  0.00  0.00     0.041 A 
ATOM     15  C   UNL d   1      55.131  33.269  54.058  0.00  0.00     0.096 A 
ATOM     16  C   UNL d   1      55.429  33.074  53.315  0.00  0.00     0.022 C 
ENDBRANCH   7  10
ENDBRANCH   1   7
BRANCH   4  17
ATOM     17  O   UNL d   1      52.524  33.162  53.288  0.00  0.00    -0.304 OA
BRANCH  17  18
ATOM     18  C   UNL d   1      51.844  33.480  52.951  0.00  0.00     0.123 C 
ATOM     19  C   UNL d   1      51.734  34.302  52.928  0.00  0.00     0.029 C 
ENDBRANCH  17  18
ENDBRANCH   4  17
BRANCH   3  20
ATOM     20  C   UNL d   1      53.021  29.904  53.228  0.00  0.00     0.000 C 
ATOM     21  C   UNL d   1      53.170  29.491  53.934  0.00  0.00     0.000 C 
ATOM     22  C   UNL d   1      52.998  29.495  52.512  0.00  0.00     0.000 C 
ENDBRANCH   3  20
TORSDOF 5
ENDMDL
MODEL 4
REMARK VINA RESULT:      -7.5      0.963      2.379
REMARK  5 active torsions:
REMARK  status: ('A' for Active; 'I' for Inactive)
REMARK    1  A    between atoms: N_2  and  S_1 
REMARK    2  A    between atoms: C_3  and  S_1 
REMARK    3  A    between atoms: C_15  and  C_11 
REMARK    4  A    between atoms: O_17  and  C_12 
REMARK    5  A    between atoms: C_21  and  O_17 
ROOT
ATOM      1  C   UNL d   1      52.542  32.697  53.440  0.00  0.00     0.128 A 
ATOM      2  C   UNL d   1      52.567  31.918  53.174  0.00  0.00     0.015 A 
ATOM      3  C   UNL d   1      53.164  31.412  53.436  0.00  0.00     0.001 A 
ATOM      4  C   UNL d   1      53.112  32.969  53.966  0.00  0.00     0.112 A 
ATOM      5  C   UNL d   1      53.735  31.684  53.963  0.00  0.00     0.002 A 
ATOM      6  C   UNL d   1      53.708  32.463  54.228  0.00  0.00     0.025 A 
ENDROOT
BRANCH   1   7
ATOM      7  S   UNL d   1      51.945  33.203  53.178  0.00  0.00     0.288 S 
ATOM      8  O   UNL d   1      51.441  32.910  53.762  0.00  0.00    -0.198 OA
ATOM      9  O   UNL d   1      52.449  33.495  52.594  0.00  0.00    -0.198 OA
BRANCH   7  10
ATOM     10  N   UNL d   1      51.348  33.709  52.916  0.00  0.00    -0.152 N 
ATOM     11  N   UNL d   1      50.651  33.887  53.315  0.00  0.00    -0.155 NA
ATOM     12  C   UNL d   1      50.214  34.414  52.857  0.00  0.00     0.104 A 
ATOM     13  C   UNL d   1      49.479  34.734  53.052  0.00  0.00     0.022 C 
ATOM     14  C   UNL d   1      50.644  34.564  52.169  0.00  0.00     0.041 A 
ATOM     15  C   UNL d   1      51.343  34.129  52.206  0.00  0.00     0.096 A 
ATOM     16  C   UNL d   1      51.935  34.115  51.632  0.00  0.00     0.022 C 
ENDBRANCH   7  10
ENDBRANCH   1   7
BRANCH   4  17
ATOM     17  O   UNL d   1      53.088  33.751  54.234  0.00  0.00    -0.304 OA
BRANCH  17  18
ATOM     18  C   UNL d   1      53.636  34.015  54.789  0.00  0.00     0.123 C 
ATOM     19  C   UNL d   1      53.594  34.790  55.082  0.00  0.00     0.029 C 
ENDBRANCH  17  18
ENDBRANCH   4  17
BRANCH   3  20
ATOM     20  C   UNL d   1      53.190  30.633  53.171  0.00  0.00     0.000 C 
ATOM     21  C   UNL d   1      53.230  30.008  53.718  0.00  0.00     0.000 C 
ATOM     22  C   UNL d   1      53.177  30.470  52.362  0.00  0.00     0.000 C 
ENDBRANCH   3  20
TORSDOF 5
ENDMDL
MODEL 5
REMARK VINA RESULT:      -7.3      1.185      3.424
REMARK  5 active torsions:
REMARK  status: ('A' for Active; 'I' for Inactive)
REMARK    1  A    between atoms: N_2  and  S_1 
REMARK    2  A    between atoms: C_3  and  S_1 
REMARK    3  A    between atoms: C_15  and  C_11 
REMARK    4  A    between atoms: O_17  and  C_12 
REMARK    5  A    between atoms: C_21  and  O_17 
ROOT
ATOM      1  C   UNL d   1      52.548  33.231  53.428  0.00  0.00     0.128 A 
ATOM      2  C   UNL d   1      51.993  33.788  53.182  0.00  0.00     0.015 A 
ATOM      3  C   UNL d   1      51.351  33.554  52.720  0.00  0.00     0.001 A 
ATOM      4  C   UNL d   1      52.460  32.442  53.214  0.00  0.00     0.112 A 
ATOM      5  C   UNL d   1      51.262  32.764  52.505  0.00  0.00     0.002 A 
ATOM      6  C   UNL d   1      51.817  32.208  52.752  0.00  0.00     0.025 A 
ENDROOT
BRANCH   1   7
ATOM      7  S   UNL d   1      53.190  33.465  53.890  0.00  0.00     0.288 S 
ATOM      8  O   UNL d   1      53.600  33.684  53.208  0.00  0.00    -0.198 OA
ATOM      9  O   UNL d   1      52.780  33.247  54.571  0.00  0.00    -0.198 OA
BRANCH   7  10
ATOM     10  N   UNL d   1      53.833  33.699  54.351  0.00  0.00    -0.152 N 
ATOM     11  N   UNL d   1      54.598  33.398  54.309  0.00  0.00    -0.155 NA
ATOM     12  C   UNL d   1      55.063  33.786  54.866  0.00  0.00     0.104 A 
ATOM     13  C   UNL d   1      55.866  33.653  55.008  0.00  0.00     0.022 C 
ATOM     14  C   UNL d   1      54.584  34.332  55.257  0.00  0.00     0.041 A 
ATOM     15  C   UNL d   1      53.825  34.277  54.939  0.00  0.00     0.096 A 
ATOM     16  C   UNL d   1      53.172  34.724  55.169  0.00  0.00     0.022 C 
ENDBRANCH   7  10
ENDBRANCH   1   7
BRANCH   4  17
ATOM     17  O   UNL d   1      53.016  31.881  53.460  0.00  0.00    -0.304 OA
BRANCH  17  18
ATOM     18  C   UNL d   1      52.959  31.102  53.201  0.00  0.00     0.123 C 
ATOM     19  C   UNL d   1      53.457  30.519  53.518  0.00  0.00     0.029 C 
ENDBRANCH  17  18
ENDBRANCH   4  17
BRANCH   3  20
ATOM     20  C   UNL d   1      50.796  34.110  52.473  0.00  0.00     0.000 C 
ATOM     21  C   UNL d   1      50.815  34.399  51.695  0.00  0.00     0.000 C 
ATOM     22  C   UNL d   1      50.219  34.380  52.998  0.00  0.00     0.000 C 
ENDBRANCH   3  20
TORSDOF 5
ENDMDL
MODEL 6
REMARK VINA RESULT:      -7.2      1.255      2.789
REMARK  5 active torsions:
REMARK  status: ('A' for Active; 'I' for Inactive)
REMARK    1  A    between atoms: N_2  and  S_1 
REMARK    2  A    between atoms: C_3  and  S_1 
REMARK    3  A    between atoms: C_15  and  C_11 
REMARK    4  A    between atoms: O_17  and  C_12 
REMARK    5  A    between atoms: C_21  and  O_17 
ROOT
ATOM      1  C   UNL d   1      53.451  32.669  54.029  0.00  0.00     0.128 A 
ATOM      2  C   UNL d   1      54.156  32.843  54.418  0.00  0.00     0.015 A 
ATOM      3  C   UNL d   1      54.308  33.612  54.674  0.00  0.00     0.001 A 
ATOM      4  C   UNL d   1      52.899  33.264  53.896  0.00  0.00     0.112 A 
ATOM      5  C   UNL d   1      53.755  34.208  54.541  0.00  0.00     0.002 A 
ATOM      6  C   UNL d   1      53.051  34.034  54.152  0.00  0.00     0.025 A 
ENDROOT
BRANCH   1   7
ATOM      7  S   UNL d   1      53.299  31.900  53.773  0.00  0.00     0.288 S 
ATOM      8  O   UNL d   1      53.141  31.673  54.551  0.00  0.00    -0.198 OA
ATOM      9  O   UNL d   1      53.458  32.127  52.996  0.00  0.00    -0.198 OA
BRANCH   7  10
ATOM     10  N   UNL d   1      53.148  31.130  53.518  0.00  0.00    -0.152 N 
ATOM     11  N   UNL d   1      52.427  30.736  53.560  0.00  0.00    -0.155 NA
ATOM     12  C   UNL d   1      52.521  29.982  53.244  0.00  0.00     0.104 A 
ATOM     13  C   UNL d   1      51.934  29.404  53.179  0.00  0.00     0.022 C 
ATOM     14  C   UNL d   1      53.306  29.907  53.003  0.00  0.00     0.041 A 
ATOM     15  C   UNL d   1      53.692  30.616  53.172  0.00  0.00     0.096 A 
ATOM     16  C   UNL d   1      54.485  30.781  53.022  0.00  0.00     0.022 C 
ENDBRANCH   7  10
ENDBRANCH   1   7
BRANCH   4  17
ATOM     17  O   UNL d   1      52.190  33.092  53.506  0.00  0.00    -0.304 OA
BRANCH  17  18
ATOM     18  C   UNL d   1      51.642  33.689  53.363  0.00  0.00     0.123 C 
ATOM     19  C   UNL d   1      50.890  33.503  53.065  0.00  0.00     0.029 C 
ENDBRANCH  17  18
ENDBRANCH   4  17
BRANCH   3  20
ATOM     20  C   UNL d   1      55.012  33.787  55.063  0.00  0.00     0.000 C 
ATOM     21  C   UNL d   1      55.690  33.987  54.627  0.00  0.00     0.000 C 
ATOM     22  C   UNL d   1      55.046  33.764  55.887  0.00  0.00     0.000 C 
ENDBRANCH   3  20
TORSDOF 5
ENDMDL
