MODEL 1
REMARK VINA RESULT:      -7.9      0.000      0.000
REMARK  2 active torsions:
REMARK  status: ('A' for Active; 'I' for Inactive)
REMARK    1  A    between atoms: C_4  and  C_1 
REMARK    2  A    between atoms: C_8  and  C_4 
ROOT
ATOM      1  C   UNL d   1     -48.528  12.894  22.223  0.00  0.00     0.139 A 
ATOM      2  O   UNL d   1     -48.392  13.706  22.320  0.00  0.00    -0.304 OA
ATOM      3  C   UNL d   1     -47.844  12.487  22.360  0.00  0.00     0.030 A 
ATOM      4  C   UNL d   1     -47.592  13.788  22.524  0.00  0.00     0.100 A 
ATOM      5  C   UNL d   1     -47.255  13.038  22.549  0.00  0.00     0.025 A 
ATOM      6  C   UNL d   1     -47.135  14.462  22.690  0.00  0.00     0.025 A 
ATOM      7  C   UNL d   1     -46.451  12.942  22.740  0.00  0.00     0.002 A 
ATOM      8  C   UNL d   1     -46.338  14.364  22.879  0.00  0.00     0.002 A 
ATOM      9  C   UNL d   1     -46.001  13.613  22.904  0.00  0.00     0.000 A 
ENDROOT
BRANCH   1  10
ATOM     10  C   UNL d   1     -49.269  12.554  22.014  0.00  0.00     0.218 C 
ATOM     11  O   UNL d   1     -49.417  12.309  21.233  0.00  0.00    -0.284 OA
BRANCH  10  12
ATOM     12  C   UNL d   1     -49.865  12.457  22.577  0.00  0.00     0.041 A 
ATOM     13  C   UNL d   1     -50.463  13.028  22.622  0.00  0.00     0.003 A 
ATOM     14  C   UNL d   1     -51.064  12.934  23.188  0.00  0.00     0.000 A 
ATOM     15  C   UNL d   1     -51.064  12.285  23.694  0.00  0.00     0.000 A 
ATOM     16  C   UNL d   1     -50.463  11.718  23.643  0.00  0.00     0.000 A 
ATOM     17  C   UNL d   1     -49.865  11.809  23.083  0.00  0.00     0.003 A 
ENDBRANCH  10  12
ENDBRANCH   1  10
TORSDOF 2
ENDMDL
MODEL 2
REMARK VINA RESULT:      -7.9      1.565      3.138
REMARK  2 active torsions:
REMARK  status: ('A' for Active; 'I' for Inactive)
REMARK    1  A    between atoms: C_4  and  C_1 
REMARK    2  A    between atoms: C_8  and  C_4 
ROOT
ATOM      1  C   UNL d   1     -48.860  13.646  22.581  0.00  0.00     0.139 A 
ATOM      2  O   UNL d   1     -49.620  13.463  22.856  0.00  0.00    -0.304 OA
ATOM      3  C   UNL d   1     -48.719  14.435  22.683  0.00  0.00     0.030 A 
ATOM      4  C   UNL d   1     -49.948  14.172  23.134  0.00  0.00     0.100 A 
ATOM      5  C   UNL d   1     -49.393  14.770  23.028  0.00  0.00     0.025 A 
ATOM      6  C   UNL d   1     -50.689  14.339  23.472  0.00  0.00     0.025 A 
ATOM      7  C   UNL d   1     -49.564  15.552  23.257  0.00  0.00     0.002 A 
ATOM      8  C   UNL d   1     -50.856  15.114  23.698  0.00  0.00     0.002 A 
ATOM      9  C   UNL d   1     -50.302  15.713  23.592  0.00  0.00     0.000 A 
ENDROOT
BRANCH   1  10
ATOM     10  C   UNL d   1     -48.323  13.090  22.248  0.00  0.00     0.218 C 
ATOM     11  O   UNL d   1     -48.282  12.982  21.425  0.00  0.00    -0.284 OA
BRANCH  10  12
ATOM     12  C   UNL d   1     -47.826  12.640  22.731  0.00  0.00     0.041 A 
ATOM     13  C   UNL d   1     -48.094  11.902  22.994  0.00  0.00     0.003 A 
ATOM     14  C   UNL d   1     -47.597  11.446  23.480  0.00  0.00     0.000 A 
ATOM     15  C   UNL d   1     -46.854  11.724  23.695  0.00  0.00     0.000 A 
ATOM     16  C   UNL d   1     -46.593  12.463  23.428  0.00  0.00     0.000 A 
ATOM     17  C   UNL d   1     -47.083  12.918  22.946  0.00  0.00     0.003 A 
ENDBRANCH  10  12
ENDBRANCH   1  10
TORSDOF 2
ENDMDL
MODEL 3
REMARK VINA RESULT:      -7.6      1.090      3.730
REMARK  2 active torsions:
REMARK  status: ('A' for Active; 'I' for Inactive)
REMARK    1  A    between atoms: C_4  and  C_1 
REMARK    2  A    between atoms: C_8  and  C_4 
ROOT
ATOM      1  C   UNL d   1     -48.147  12.138  23.129  0.00  0.00     0.139 A 
ATOM      2  O   UNL d   1     -48.498  12.190  22.380  0.00  0.00    -0.304 OA
ATOM      3  C   UNL d   1     -48.720  12.151  23.698  0.00  0.00     0.030 A 
ATOM      4  C   UNL d   1     -49.317  12.236  22.506  0.00  0.00     0.100 A 
ATOM      5  C   UNL d   1     -49.453  12.212  23.318  0.00  0.00     0.025 A 
ATOM      6  C   UNL d   1     -49.951  12.298  21.973  0.00  0.00     0.025 A 
ATOM      7  C   UNL d   1     -50.228  12.249  23.617  0.00  0.00     0.002 A 
ATOM      8  C   UNL d   1     -50.719  12.334  22.273  0.00  0.00     0.002 A 
ATOM      9  C   UNL d   1     -50.856  12.310  23.085  0.00  0.00     0.000 A 
ENDROOT
BRANCH   1  10
ATOM     10  C   UNL d   1     -47.318  12.080  23.267  0.00  0.00     0.218 C 
ATOM     11  O   UNL d   1     -46.996  11.408  23.636  0.00  0.00    -0.284 OA
BRANCH  10  12
ATOM     12  C   UNL d   1     -46.808  12.689  23.040  0.00  0.00     0.041 A 
ATOM     13  C   UNL d   1     -46.297  12.557  22.402  0.00  0.00     0.003 A 
ATOM     14  C   UNL d   1     -45.782  13.168  22.170  0.00  0.00     0.000 A 
ATOM     15  C   UNL d   1     -45.781  13.888  22.568  0.00  0.00     0.000 A 
ATOM     16  C   UNL d   1     -46.296  14.011  23.205  0.00  0.00     0.000 A 
ATOM     17  C   UNL d   1     -46.808  13.408  23.437  0.00  0.00     0.003 A 
ENDBRANCH  10  12
ENDBRANCH   1  10
TORSDOF 2
ENDMDL
MODEL 4
REMARK VINA RESULT:      -6.4      8.660     10.220
REMARK  2 active torsions:
REMARK  status: ('A' for Active; 'I' for Inactive)
REMARK    1  A    between atoms: C_4  and  C_1 
REMARK    2  A    between atoms: C_8  and  C_4 
ROOT
ATOM      1  C   UNL d   1     -40.546  14.904  18.360  0.00  0.00     0.139 A 
ATOM      2  O   UNL d   1     -40.547  14.273  18.899  0.00  0.00    -0.304 OA
ATOM      3  C   UNL d   1     -40.564  15.603  18.763  0.00  0.00     0.030 A 
ATOM      4  C   UNL d   1     -40.567  14.610  19.656  0.00  0.00     0.100 A 
ATOM      5  C   UNL d   1     -40.577  15.429  19.573  0.00  0.00     0.025 A 
ATOM      6  C   UNL d   1     -40.576  14.263  20.411  0.00  0.00     0.025 A 
ATOM      7  C   UNL d   1     -40.597  15.922  20.242  0.00  0.00     0.002 A 
ATOM      8  C   UNL d   1     -40.596  14.754  21.074  0.00  0.00     0.002 A 
ATOM      9  C   UNL d   1     -40.607  15.573  20.990  0.00  0.00     0.000 A 
ENDROOT
BRANCH   1  10
ATOM     10  C   UNL d   1     -40.529  14.818  17.523  0.00  0.00     0.218 C 
ATOM     11  O   UNL d   1     -41.235  14.797  17.085  0.00  0.00    -0.284 OA
BRANCH  10  12
ATOM     12  C   UNL d   1     -39.812  14.755  17.119  0.00  0.00     0.041 A 
ATOM     13  C   UNL d   1     -39.475  15.441  16.800  0.00  0.00     0.003 A 
ATOM     14  C   UNL d   1     -38.753  15.380  16.393  0.00  0.00     0.000 A 
ATOM     15  C   UNL d   1     -38.381  14.652  16.308  0.00  0.00     0.000 A 
ATOM     16  C   UNL d   1     -38.723  13.970  16.630  0.00  0.00     0.000 A 
ATOM     17  C   UNL d   1     -39.439  14.027  17.034  0.00  0.00     0.003 A 
ENDBRANCH  10  12
ENDBRANCH   1  10
TORSDOF 2
ENDMDL
MODEL 5
REMARK VINA RESULT:      -6.1      8.440      9.498
REMARK  2 active torsions:
REMARK  status: ('A' for Active; 'I' for Inactive)
REMARK    1  A    between atoms: C_4  and  C_1 
REMARK    2  A    between atoms: C_8  and  C_4 
ROOT
ATOM      1  C   UNL d   1     -40.690  14.881  19.699  0.00  0.00     0.139 A 
ATOM      2  O   UNL d   1     -40.785  15.593  19.285  0.00  0.00    -0.304 OA
ATOM      3  C   UNL d   1     -40.457  14.301  19.188  0.00  0.00     0.030 A 
ATOM      4  C   UNL d   1     -40.599  15.432  18.493  0.00  0.00     0.100 A 
ATOM      5  C   UNL d   1     -40.398  14.637  18.433  0.00  0.00     0.025 A 
ATOM      6  C   UNL d   1     -40.592  15.921  17.821  0.00  0.00     0.025 A 
ATOM      7  C   UNL d   1     -40.183  14.309  17.699  0.00  0.00     0.002 A 
ATOM      8  C   UNL d   1     -40.379  15.594  17.095  0.00  0.00     0.002 A 
ATOM      9  C   UNL d   1     -40.177  14.798  17.034  0.00  0.00     0.000 A 
ENDROOT
BRANCH   1  10
ATOM     10  C   UNL d   1     -40.821  14.785  20.525  0.00  0.00     0.218 C 
ATOM     11  O   UNL d   1     -41.550  14.503  20.809  0.00  0.00    -0.284 OA
BRANCH  10  12
ATOM     12  C   UNL d   1     -40.229  14.969  21.071  0.00  0.00     0.041 A 
ATOM     13  C   UNL d   1     -40.206  15.734  21.386  0.00  0.00     0.003 A 
ATOM     14  C   UNL d   1     -39.611  15.922  21.936  0.00  0.00     0.000 A 
ATOM     15  C   UNL d   1     -39.057  15.359  22.161  0.00  0.00     0.000 A 
ATOM     16  C   UNL d   1     -39.085  14.595  21.841  0.00  0.00     0.000 A 
ATOM     17  C   UNL d   1     -39.674  14.405  21.296  0.00  0.00     0.003 A 
ENDBRANCH  10  12
ENDBRANCH   1  10
TORSDOF 2
ENDMDL
