MODEL 1
REMARK VINA RESULT:      32.4      0.000      0.000
REMARK  2 active torsions:
REMARK  status: ('A' for Active; 'I' for Inactive)
REMARK    1  A    between atoms: C_12  and  N_1 
REMARK    2  A    between atoms: N_6  and  C_13 
ROOT
ATOM      1  N   UNL d   1     -51.844  25.711  33.321  0.00  0.00    -0.242 N 
ATOM      2  C   UNL d   1     -52.730  25.710  33.326  0.00  0.00     0.263 A 
ATOM      3  C   UNL d   1     -51.581  24.971  33.319  0.00  0.00     0.263 A 
ATOM      4  C   UNL d   1     -52.215  24.411  33.322  0.00  0.00     0.039 A 
ATOM      5  C   UNL d   1     -52.892  24.776  33.326  0.00  0.00     0.039 A 
ATOM      6  C   UNL d   1     -53.580  24.399  33.329  0.00  0.00     0.049 A 
ATOM      7  C   UNL d   1     -52.228  23.589  33.321  0.00  0.00     0.049 A 
ATOM      8  C   UNL d   1     -53.610  23.600  33.329  0.00  0.00    -0.026 A 
ATOM      9  C   UNL d   1     -52.914  23.192  33.324  0.00  0.00    -0.026 A 
ATOM     10  C   UNL d   1     -52.737  24.361  33.325  0.00  0.00     0.018 A 
ATOM     11  O   UNL d   1     -50.791  24.748  33.314  0.00  0.00    -0.267 OA
ATOM     12  O   UNL d   1     -53.219  26.233  33.329  0.00  0.00    -0.267 OA
ENDROOT
BRANCH   1  13
ATOM     13  C   UNL d   1     -51.332  26.354  33.319  0.00  0.00     0.070 A 
ATOM     14  C   UNL d   1     -51.635  27.126  33.311  0.00  0.00     0.019 A 
ATOM     15  C   UNL d   1     -51.123  27.781  33.309  0.00  0.00     0.018 A 
ATOM     16  C   UNL d   1     -50.293  27.660  33.314  0.00  0.00     0.096 A 
ATOM     17  C   UNL d   1     -50.002  26.888  33.322  0.00  0.00     0.018 A 
ATOM     18  C   UNL d   1     -50.522  26.236  33.324  0.00  0.00     0.019 A 
BRANCH  16  19
ATOM     19  N   UNL d   1     -49.779  28.298  33.312  0.00  0.00     0.037 NA
ATOM     20  O   UNL d   1     -50.496  28.186  33.688  0.00  0.00    -0.084 OA
ATOM     21  O   UNL d   1     -49.340  29.044  33.408  0.00  0.00    -0.084 OA
ENDBRANCH  16  19
ENDBRANCH   1  13
TORSDOF 2
ENDMDL
