MODEL 1
REMARK VINA RESULT:      -7.9      0.000      0.000
REMARK  5 active torsions:
REMARK  status: ('A' for Active; 'I' for Inactive)
REMARK    1  A    between atoms: C_4  and  C_1 
REMARK       I    between atoms: N_2  and  C_3 
REMARK    2  A    between atoms: C_6  and  N_2 
REMARK    3  A    between atoms: C_3  and  C_5 
REMARK    4  A    between atoms: C_5  and  C_7 
REMARK    5  A    between atoms: C_7  and  C_14 
ROOT
ATOM      1  C   UNL d   1     -47.840  13.661  22.687  0.00  0.00     0.062 C 
ENDROOT
BRANCH   1   2
ATOM      2  C   UNL d   1     -48.416  14.217  22.817  0.00  0.00     0.279 C 
ATOM      3  N   UNL d   1     -49.094  14.005  23.227  0.00  0.00    -0.208 NA
ATOM      4  O   UNL d   1     -48.321  14.974  22.543  0.00  0.00    -0.265 OA
BRANCH   3   5
ATOM      5  C   UNL d   1     -49.687  14.573  23.361  0.00  0.00     0.085 A 
ATOM      6  C   UNL d   1     -50.465  14.315  23.503  0.00  0.00     0.018 A 
ATOM      7  C   UNL d   1     -50.638  13.509  23.508  0.00  0.00     0.002 C 
ATOM      8  C   UNL d   1     -51.063  14.872  23.638  0.00  0.00     0.002 A 
ATOM      9  C   UNL d   1     -50.889  15.672  23.632  0.00  0.00     0.000 A 
ATOM     10  C   UNL d   1     -50.121  15.920  23.493  0.00  0.00     0.002 A 
ATOM     11  C   UNL d   1     -49.514  15.373  23.356  0.00  0.00     0.019 A 
ENDBRANCH   3   5
ENDBRANCH   1   2
BRANCH   1  12
ATOM     12  C   UNL d   1     -47.053  13.822  22.900  0.00  0.00     0.005 C 
BRANCH  12  13
ATOM     13  C   UNL d   1     -46.476  13.229  22.883  0.00  0.00     0.000 A 
ATOM     14  C   UNL d   1     -45.813  13.330  22.422  0.00  0.00     0.004 A 
ATOM     15  C   UNL d   1     -45.250  12.724  22.421  0.00  0.00     0.071 A 
ATOM     16  C   UNL d   1     -45.331  12.051  22.848  0.00  0.00     0.004 A 
ATOM     17  C   UNL d   1     -45.994  11.950  23.307  0.00  0.00    -0.000 A 
ATOM     18  C   UNL d   1     -46.564  12.522  23.333  0.00  0.00    -0.000 A 
BRANCH  15  19
ATOM     19  C   UNL d   1     -44.582  12.848  21.945  0.00  0.00     0.419 C 
ATOM     20  F   UNL d   1     -43.891  12.946  21.468  0.00  0.00    -0.166 F 
ATOM     21  F   UNL d   1     -44.834  13.579  21.738  0.00  0.00    -0.166 F 
ATOM     22  F   UNL d   1     -44.301  12.074  22.155  0.00  0.00    -0.166 F 
ENDBRANCH  15  19
ENDBRANCH  12  13
ENDBRANCH   1  12
TORSDOF 5
ENDMDL
MODEL 2
REMARK VINA RESULT:      -7.6      2.949      4.899
REMARK  5 active torsions:
REMARK  status: ('A' for Active; 'I' for Inactive)
REMARK    1  A    between atoms: C_4  and  C_1 
REMARK       I    between atoms: N_2  and  C_3 
REMARK    2  A    between atoms: C_6  and  N_2 
REMARK    3  A    between atoms: C_3  and  C_5 
REMARK    4  A    between atoms: C_5  and  C_7 
REMARK    5  A    between atoms: C_7  and  C_14 
ROOT
ATOM      1  C   UNL d   1     -48.189  11.930  23.580  0.00  0.00     0.062 C 
ENDROOT
BRANCH   1   2
ATOM      2  C   UNL d   1     -47.449  12.008  23.257  0.00  0.00     0.279 C 
ATOM      3  N   UNL d   1     -47.081  12.742  23.267  0.00  0.00    -0.208 NA
ATOM      4  O   UNL d   1     -47.077  11.368  22.927  0.00  0.00    -0.265 OA
BRANCH   3   5
ATOM      5  C   UNL d   1     -46.322  12.826  22.937  0.00  0.00     0.085 A 
ATOM      6  C   UNL d   1     -46.104  13.561  22.617  0.00  0.00     0.018 A 
ATOM      7  C   UNL d   1     -46.635  14.192  22.629  0.00  0.00     0.002 C 
ATOM      8  C   UNL d   1     -45.351  13.656  22.285  0.00  0.00     0.002 A 
ATOM      9  C   UNL d   1     -44.824  13.029  22.273  0.00  0.00     0.000 A 
ATOM     10  C   UNL d   1     -45.045  12.307  22.591  0.00  0.00     0.002 A 
ATOM     11  C   UNL d   1     -45.796  12.199  22.925  0.00  0.00     0.019 A 
ENDBRANCH   3   5
ENDBRANCH   1   2
BRANCH   1  12
ATOM     12  C   UNL d   1     -48.796  11.568  23.142  0.00  0.00     0.005 C 
BRANCH  12  13
ATOM     13  C   UNL d   1     -49.555  11.894  23.116  0.00  0.00     0.000 A 
ATOM     14  C   UNL d   1     -49.747  12.411  22.517  0.00  0.00     0.004 A 
ATOM     15  C   UNL d   1     -50.512  12.725  22.511  0.00  0.00     0.071 A 
ATOM     16  C   UNL d   1     -51.064  12.543  23.063  0.00  0.00     0.004 A 
ATOM     17  C   UNL d   1     -50.872  12.027  23.661  0.00  0.00    -0.000 A 
ATOM     18  C   UNL d   1     -50.134  11.701  23.697  0.00  0.00    -0.000 A 
BRANCH  15  19
ATOM     19  C   UNL d   1     -50.687  13.250  21.893  0.00  0.00     0.419 C 
ATOM     20  F   UNL d   1     -50.860  13.807  21.281  0.00  0.00    -0.166 F 
ATOM     21  F   UNL d   1     -50.824  12.645  21.386  0.00  0.00    -0.166 F 
ATOM     22  F   UNL d   1     -50.545  13.902  22.418  0.00  0.00    -0.166 F 
ENDBRANCH  15  19
ENDBRANCH  12  13
ENDBRANCH   1  12
TORSDOF 5
ENDMDL
MODEL 3
REMARK VINA RESULT:      -7.3      0.907      1.387
REMARK  5 active torsions:
REMARK  status: ('A' for Active; 'I' for Inactive)
REMARK    1  A    between atoms: C_4  and  C_1 
REMARK       I    between atoms: N_2  and  C_3 
REMARK    2  A    between atoms: C_6  and  N_2 
REMARK    3  A    between atoms: C_3  and  C_5 
REMARK    4  A    between atoms: C_5  and  C_7 
REMARK    5  A    between atoms: C_7  and  C_14 
ROOT
ATOM      1  C   UNL d   1     -47.714  13.500  22.794  0.00  0.00     0.062 C 
ENDROOT
BRANCH   1   2
ATOM      2  C   UNL d   1     -48.333  14.005  22.936  0.00  0.00     0.279 C 
ATOM      3  N   UNL d   1     -49.097  13.705  22.965  0.00  0.00    -0.208 NA
ATOM      4  O   UNL d   1     -48.197  14.796  23.046  0.00  0.00    -0.265 OA
BRANCH   3   5
ATOM      5  C   UNL d   1     -49.734  14.220  23.111  0.00  0.00     0.085 A 
ATOM      6  C   UNL d   1     -50.424  13.916  23.460  0.00  0.00     0.018 A 
ATOM      7  C   UNL d   1     -50.469  13.116  23.656  0.00  0.00     0.002 C 
ATOM      8  C   UNL d   1     -51.064  14.419  23.609  0.00  0.00     0.002 A 
ATOM      9  C   UNL d   1     -51.018  15.214  23.413  0.00  0.00     0.000 A 
ATOM     10  C   UNL d   1     -50.335  15.508  23.069  0.00  0.00     0.002 A 
ATOM     11  C   UNL d   1     -49.688  15.015  22.915  0.00  0.00     0.019 A 
ENDBRANCH   3   5
ENDBRANCH   1   2
BRANCH   1  12
ATOM     12  C   UNL d   1     -46.951  13.695  23.058  0.00  0.00     0.005 C 
BRANCH  12  13
ATOM     13  C   UNL d   1     -46.295  13.240  22.841  0.00  0.00     0.000 A 
ATOM     14  C   UNL d   1     -46.184  12.511  23.185  0.00  0.00     0.004 A 
ATOM     15  C   UNL d   1     -45.521  12.073  22.953  0.00  0.00     0.071 A 
ATOM     16  C   UNL d   1     -44.993  12.335  22.410  0.00  0.00     0.004 A 
ATOM     17  C   UNL d   1     -45.104  13.064  22.067  0.00  0.00    -0.000 A 
ATOM     18  C   UNL d   1     -45.740  13.518  22.271  0.00  0.00    -0.000 A 
BRANCH  15  19
ATOM     19  C   UNL d   1     -45.427  11.333  23.315  0.00  0.00     0.419 C 
ATOM     20  F   UNL d   1     -45.357  10.582  23.698  0.00  0.00    -0.166 F 
ATOM     21  F   UNL d   1     -44.714  11.226  22.967  0.00  0.00    -0.166 F 
ATOM     22  F   UNL d   1     -46.182  11.432  23.692  0.00  0.00    -0.166 F 
ENDBRANCH  15  19
ENDBRANCH  12  13
ENDBRANCH   1  12
TORSDOF 5
ENDMDL
MODEL 4
REMARK VINA RESULT:      -7.2      2.618      5.274
REMARK  5 active torsions:
REMARK  status: ('A' for Active; 'I' for Inactive)
REMARK    1  A    between atoms: C_4  and  C_1 
REMARK       I    between atoms: N_2  and  C_3 
REMARK    2  A    between atoms: C_6  and  N_2 
REMARK    3  A    between atoms: C_3  and  C_5 
REMARK    4  A    between atoms: C_5  and  C_7 
REMARK    5  A    between atoms: C_7  and  C_14 
ROOT
ATOM      1  C   UNL d   1     -46.594  12.914  22.946  0.00  0.00     0.062 C 
ENDROOT
BRANCH   1   2
ATOM      2  C   UNL d   1     -46.130  12.283  23.158  0.00  0.00     0.279 C 
ATOM      3  N   UNL d   1     -45.387  12.200  22.819  0.00  0.00    -0.208 NA
ATOM      4  O   UNL d   1     -46.398  11.742  23.698  0.00  0.00    -0.265 OA
BRANCH   3   5
ATOM      5  C   UNL d   1     -44.908  11.554  23.033  0.00  0.00     0.085 A 
ATOM      6  C   UNL d   1     -44.121  11.533  22.768  0.00  0.00     0.018 A 
ATOM      7  C   UNL d   1     -43.826  12.145  22.302  0.00  0.00     0.002 C 
ATOM      8  C   UNL d   1     -43.635  10.895  22.976  0.00  0.00     0.002 A 
ATOM      9  C   UNL d   1     -43.930  10.287  23.439  0.00  0.00     0.000 A 
ATOM     10  C   UNL d   1     -44.707  10.313  23.698  0.00  0.00     0.002 A 
ATOM     11  C   UNL d   1     -45.203  10.946  23.497  0.00  0.00     0.019 A 
ENDBRANCH   3   5
ENDBRANCH   1   2
BRANCH   1  12
ATOM     12  C   UNL d   1     -47.417  12.881  23.063  0.00  0.00     0.005 C 
BRANCH  12  13
ATOM     13  C   UNL d   1     -47.916  13.454  22.736  0.00  0.00     0.000 A 
ATOM     14  C   UNL d   1     -48.548  13.219  22.279  0.00  0.00     0.004 A 
ATOM     15  C   UNL d   1     -49.034  13.808  21.963  0.00  0.00     0.071 A 
ATOM     16  C   UNL d   1     -48.910  14.590  22.087  0.00  0.00     0.004 A 
ATOM     17  C   UNL d   1     -48.279  14.824  22.544  0.00  0.00    -0.000 A 
ATOM     18  C   UNL d   1     -47.784  14.275  22.868  0.00  0.00    -0.000 A 
BRANCH  15  19
ATOM     19  C   UNL d   1     -49.671  13.548  21.501  0.00  0.00     0.419 C 
ATOM     20  F   UNL d   1     -50.337  13.279  21.054  0.00  0.00    -0.166 F 
ATOM     21  F   UNL d   1     -49.240  13.609  20.828  0.00  0.00    -0.166 F 
ATOM     22  F   UNL d   1     -50.141  13.477  22.204  0.00  0.00    -0.166 F 
ENDBRANCH  15  19
ENDBRANCH  12  13
ENDBRANCH   1  12
TORSDOF 5
ENDMDL
MODEL 5
REMARK VINA RESULT:      -6.9      1.501      2.123
REMARK  5 active torsions:
REMARK  status: ('A' for Active; 'I' for Inactive)
REMARK    1  A    between atoms: C_4  and  C_1 
REMARK       I    between atoms: N_2  and  C_3 
REMARK    2  A    between atoms: C_6  and  N_2 
REMARK    3  A    between atoms: C_3  and  C_5 
REMARK    4  A    between atoms: C_5  and  C_7 
REMARK    5  A    between atoms: C_7  and  C_14 
ROOT
ATOM      1  C   UNL d   1     -47.414  12.818  22.673  0.00  0.00     0.062 C 
ENDROOT
BRANCH   1   2
ATOM      2  C   UNL d   1     -48.137  12.612  22.978  0.00  0.00     0.279 C 
ATOM      3  N   UNL d   1     -48.817  12.783  22.551  0.00  0.00    -0.208 NA
ATOM      4  O   UNL d   1     -48.186  12.240  23.697  0.00  0.00    -0.265 OA
BRANCH   3   5
ATOM      5  C   UNL d   1     -49.560  12.573  22.861  0.00  0.00     0.085 A 
ATOM      6  C   UNL d   1     -50.214  13.059  22.698  0.00  0.00     0.018 A 
ATOM      7  C   UNL d   1     -50.121  13.736  22.237  0.00  0.00     0.002 C 
ATOM      8  C   UNL d   1     -50.959  12.859  23.001  0.00  0.00     0.002 A 
ATOM      9  C   UNL d   1     -51.050  12.186  23.458  0.00  0.00     0.000 A 
ATOM     10  C   UNL d   1     -50.401  11.710  23.615  0.00  0.00     0.002 A 
ATOM     11  C   UNL d   1     -49.651  11.899  23.318  0.00  0.00     0.019 A 
ENDBRANCH   3   5
ENDBRANCH   1   2
BRANCH   1  12
ATOM     12  C   UNL d   1     -46.722  12.665  23.108  0.00  0.00     0.005 C 
BRANCH  12  13
ATOM     13  C   UNL d   1     -45.976  12.725  22.756  0.00  0.00     0.000 A 
ATOM     14  C   UNL d   1     -45.428  12.137  22.881  0.00  0.00     0.004 A 
ATOM     15  C   UNL d   1     -44.688  12.217  22.519  0.00  0.00     0.071 A 
ATOM     16  C   UNL d   1     -44.494  12.843  22.057  0.00  0.00     0.004 A 
ATOM     17  C   UNL d   1     -45.042  13.430  21.933  0.00  0.00    -0.000 A 
ATOM     18  C   UNL d   1     -45.774  13.383  22.271  0.00  0.00    -0.000 A 
BRANCH  15  19
ATOM     19  C   UNL d   1     -44.145  11.607  22.659  0.00  0.00     0.419 C 
ATOM     20  F   UNL d   1     -43.571  10.997  22.782  0.00  0.00    -0.166 F 
ATOM     21  F   UNL d   1     -44.641  11.250  23.175  0.00  0.00    -0.166 F 
ATOM     22  F   UNL d   1     -43.606  11.974  22.114  0.00  0.00    -0.166 F 
ENDBRANCH  15  19
ENDBRANCH  12  13
ENDBRANCH   1  12
TORSDOF 5
ENDMDL
MODEL 6
REMARK VINA RESULT:      -6.4      7.864     10.182
REMARK  5 active torsions:
REMARK  status: ('A' for Active; 'I' for Inactive)
REMARK    1  A    between atoms: C_4  and  C_1 
REMARK       I    between atoms: N_2  and  C_3 
REMARK    2  A    between atoms: C_6  and  N_2 
REMARK    3  A    between atoms: C_3  and  C_5 
REMARK    4  A    between atoms: C_5  and  C_7 
REMARK    5  A    between atoms: C_7  and  C_14 
ROOT
ATOM      1  C   UNL d   1     -40.060  14.954  18.392  0.00  0.00     0.062 C 
ENDROOT
BRANCH   1   2
ATOM      2  C   UNL d   1     -39.665  14.540  17.818  0.00  0.00     0.279 C 
ATOM      3  N   UNL d   1     -39.160  14.940  17.309  0.00  0.00    -0.208 NA
ATOM      4  O   UNL d   1     -39.769  13.739  17.747  0.00  0.00    -0.265 OA
BRANCH   3   5
ATOM      5  C   UNL d   1     -38.753  14.518  16.718  0.00  0.00     0.085 A 
ATOM      6  C   UNL d   1     -38.462  14.932  16.059  0.00  0.00     0.018 A 
ATOM      7  C   UNL d   1     -38.577  15.746  15.999  0.00  0.00     0.002 C 
ATOM      8  C   UNL d   1     -38.055  14.523  15.465  0.00  0.00     0.002 A 
ATOM      9  C   UNL d   1     -37.942  13.714  15.526  0.00  0.00     0.000 A 
ATOM     10  C   UNL d   1     -38.232  13.311  16.179  0.00  0.00     0.002 A 
ATOM     11  C   UNL d   1     -38.640  13.709  16.780  0.00  0.00     0.019 A 
ENDBRANCH   3   5
ENDBRANCH   1   2
BRANCH   1  12
ATOM     12  C   UNL d   1     -40.254  14.583  19.111  0.00  0.00     0.005 C 
BRANCH  12  13
ATOM     13  C   UNL d   1     -40.424  15.028  19.788  0.00  0.00     0.000 A 
ATOM     14  C   UNL d   1     -39.894  15.034  20.405  0.00  0.00     0.004 A 
ATOM     15  C   UNL d   1     -40.084  15.485  21.072  0.00  0.00     0.071 A 
ATOM     16  C   UNL d   1     -40.760  15.911  21.132  0.00  0.00     0.004 A 
ATOM     17  C   UNL d   1     -41.289  15.905  20.515  0.00  0.00    -0.000 A 
ATOM     18  C   UNL d   1     -41.135  15.475  19.849  0.00  0.00    -0.000 A 
BRANCH  15  19
ATOM     19  C   UNL d   1     -39.531  15.477  21.689  0.00  0.00     0.419 C 
ATOM     20  F   UNL d   1     -38.947  15.484  22.302  0.00  0.00    -0.166 F 
ATOM     21  F   UNL d   1     -40.024  15.057  22.159  0.00  0.00    -0.166 F 
ATOM     22  F   UNL d   1     -38.995  15.922  21.203  0.00  0.00    -0.166 F 
ENDBRANCH  15  19
ENDBRANCH  12  13
ENDBRANCH   1  12
TORSDOF 5
ENDMDL
