MODEL 1
REMARK VINA RESULT:      70.4      0.000      0.000
REMARK  6 active torsions:
REMARK  status: ('A' for Active; 'I' for Inactive)
REMARK    1  A    between atoms: C_7  and  C_1 
REMARK    2  A    between atoms: N_5  and  C_3 
REMARK       I    between atoms: C_9  and  N_5 
REMARK    3  A    between atoms: C_8  and  S_11 
REMARK    4  A    between atoms: C_13  and  C_9 
REMARK    5  A    between atoms: S_11  and  C_13 
REMARK    6  A    between atoms: O_17  and  C_14 
ROOT
ATOM      1  C   UNL d   1     -55.272-101.732 -41.918  0.00  0.00     0.137 A 
ATOM      2  S   UNL d   1     -55.699-101.071 -42.184  0.00  0.00    -0.026 SA
ATOM      3  C   UNL d   1     -55.426-100.872 -42.939  0.00  0.00     0.219 A 
ATOM      4  N   UNL d   1     -54.732-101.940 -42.516  0.00  0.00    -0.139 NA
ATOM      5  N   UNL d   1     -54.827-101.409 -43.145  0.00  0.00    -0.121 NA
ENDROOT
BRANCH   3   6
ATOM      6  N   UNL d   1     -55.697-100.250 -43.409  0.00  0.00    -0.181 NA
ATOM      7  C   UNL d   1     -55.471-100.192 -44.205  0.00  0.00     0.287 C 
ATOM      8  O   UNL d   1     -54.969-100.765 -44.527  0.00  0.00    -0.265 OA
BRANCH   7   9
ATOM      9  C   UNL d   1     -55.746 -99.565 -44.671  0.00  0.00     0.089 C 
ATOM     10  C   UNL d   1     -55.612 -99.568 -45.485  0.00  0.00     0.012 C 
BRANCH   9  11
ATOM     11  S   UNL d   1     -56.157 -98.937 -44.311  0.00  0.00    -0.057 SA
BRANCH  11  12
ATOM     12  C   UNL d   1     -56.984 -98.947 -44.311  0.00  0.00     0.141 A 
ATOM     13  N   UNL d   1     -57.486 -98.907 -43.648  0.00  0.00    -0.230 NA
ATOM     14  C   UNL d   1     -58.272 -98.934 -43.912  0.00  0.00     0.107 A 
ATOM     15  C   UNL d   1     -58.264 -98.991 -44.743  0.00  0.00     0.058 A 
ATOM     16  S   UNL d   1     -57.468 -98.999 -44.991  0.00  0.00    -0.059 SA
ENDBRANCH  11  12
ENDBRANCH   9  11
ENDBRANCH   7   9
ENDBRANCH   3   6
BRANCH   1  17
ATOM     17  C   UNL d   1     -55.363-102.120 -41.190  0.00  0.00     0.048 A 
ATOM     18  C   UNL d   1     -56.063-102.486 -40.999  0.00  0.00     0.096 A 
ATOM     19  C   UNL d   1     -56.147-102.865 -40.283  0.00  0.00     0.024 A 
ATOM     20  C   UNL d   1     -55.512-102.867 -39.769  0.00  0.00     0.002 A 
ATOM     21  C   UNL d   1     -54.820-102.512 -39.944  0.00  0.00     0.000 A 
ATOM     22  C   UNL d   1     -54.734-102.130 -40.663  0.00  0.00     0.004 A 
BRANCH  18  23
ATOM     23  O   UNL d   1     -56.687-102.479 -41.515  0.00  0.00    -0.328 OA
ATOM     24  C   UNL d   1     -57.526-102.416 -41.102  0.00  0.00     0.181 C 
ENDBRANCH  18  23
ENDBRANCH   1  17
TORSDOF 6
ENDMDL
MODEL 2
REMARK VINA RESULT:      71.0      1.425      4.751
REMARK  6 active torsions:
REMARK  status: ('A' for Active; 'I' for Inactive)
REMARK    1  A    between atoms: C_7  and  C_1 
REMARK    2  A    between atoms: N_5  and  C_3 
REMARK       I    between atoms: C_9  and  N_5 
REMARK    3  A    between atoms: C_8  and  S_11 
REMARK    4  A    between atoms: C_13  and  C_9 
REMARK    5  A    between atoms: S_11  and  C_13 
REMARK    6  A    between atoms: O_17  and  C_14 
ROOT
ATOM      1  C   UNL d   1     -56.964 -99.957 -44.377  0.00  0.00     0.137 A 
ATOM      2  S   UNL d   1     -56.909-100.649 -43.921  0.00  0.00    -0.026 SA
ATOM      3  C   UNL d   1     -56.111-100.860 -43.862  0.00  0.00     0.219 A 
ATOM      4  N   UNL d   1     -56.192 -99.741 -44.600  0.00  0.00    -0.139 NA
ATOM      5  N   UNL d   1     -55.666-100.298 -44.283  0.00  0.00    -0.121 NA
ENDROOT
BRANCH   3   6
ATOM      6  N   UNL d   1     -55.806-101.512 -43.459  0.00  0.00    -0.181 NA
ATOM      7  C   UNL d   1     -55.678-101.480 -42.639  0.00  0.00     0.287 C 
ATOM      8  O   UNL d   1     -55.861-100.787 -42.227  0.00  0.00    -0.265 OA
BRANCH   7   9
ATOM      9  C   UNL d   1     -55.371-102.138 -42.240  0.00  0.00     0.089 C 
ATOM     10  C   UNL d   1     -55.720-102.879 -42.340  0.00  0.00     0.012 C 
BRANCH   9  11
ATOM     11  S   UNL d   1     -54.711-102.043 -41.742  0.00  0.00    -0.057 SA
BRANCH  11  12
ATOM     12  C   UNL d   1     -54.806-102.145 -40.928  0.00  0.00     0.141 A 
ATOM     13  N   UNL d   1     -54.828-101.549 -40.346  0.00  0.00    -0.230 NA
ATOM     14  C   UNL d   1     -54.933-101.909 -39.606  0.00  0.00     0.107 A 
ATOM     15  C   UNL d   1     -54.977-102.732 -39.722  0.00  0.00     0.058 A 
ATOM     16  S   UNL d   1     -54.899-102.880 -40.538  0.00  0.00    -0.059 SA
ENDBRANCH  11  12
ENDBRANCH   9  11
ENDBRANCH   7   9
ENDBRANCH   3   6
BRANCH   1  17
ATOM     17  C   UNL d   1     -57.658 -99.550 -44.577  0.00  0.00     0.048 A 
ATOM     18  C   UNL d   1     -58.241 -99.426 -44.025  0.00  0.00     0.096 A 
ATOM     19  C   UNL d   1     -58.921 -99.026 -44.226  0.00  0.00     0.024 A 
ATOM     20  C   UNL d   1     -58.998 -98.755 -44.993  0.00  0.00     0.002 A 
ATOM     21  C   UNL d   1     -58.434 -98.870 -45.544  0.00  0.00     0.000 A 
ATOM     22  C   UNL d   1     -57.750 -99.272 -45.343  0.00  0.00     0.004 A 
BRANCH  18  23
ATOM     23  O   UNL d   1     -58.156 -99.698 -43.267  0.00  0.00    -0.328 OA
ATOM     24  C   UNL d   1     -58.817 -99.397 -42.674  0.00  0.00     0.181 C 
ENDBRANCH  18  23
ENDBRANCH   1  17
TORSDOF 6
ENDMDL
