MODEL 1
REMARK VINA RESULT:      55.4      0.000      0.000
REMARK  3 active torsions:
REMARK  status: ('A' for Active; 'I' for Inactive)
REMARK    1  A    between atoms: S_2  and  C_1 
REMARK    2  A    between atoms: C_8  and  S_2 
REMARK    3  A    between atoms: C_20  and  C_13 
ROOT
ATOM      1  C   UNL d   1      13.777  13.573  -3.241  0.00  0.00     0.151 A 
ATOM      2  C   UNL d   1      13.400  12.840  -3.367  0.00  0.00     0.311 A 
ATOM      3  C   UNL d   1      14.204  13.695  -2.548  0.00  0.00     0.019 A 
ATOM      4  O   UNL d   1      13.458  12.244  -2.797  0.00  0.00    -0.273 OA
ATOM      5  C   UNL d   1      14.264  13.107  -1.980  0.00  0.00     0.024 A 
ATOM      6  C   UNL d   1      13.887  12.373  -2.106  0.00  0.00     0.103 A 
ATOM      7  O   UNL d   1      12.967  12.709  -4.065  0.00  0.00    -0.258 OA
ATOM      8  C   UNL d   1      14.689  13.230  -1.291  0.00  0.00     0.009 A 
ATOM      9  C   UNL d   1      13.943  11.779  -1.540  0.00  0.00     0.025 A 
ATOM     10  C   UNL d   1      14.752  12.639  -0.716  0.00  0.00     0.035 A 
ATOM     11  C   UNL d   1      14.375  11.906  -0.842  0.00  0.00     0.009 A 
ATOM     12 BR   UNL d   1      15.187  12.770  -0.014  0.00  0.00    -0.049 Br
ENDROOT
BRANCH   1  13
ATOM     13  S   UNL d   1      13.715  14.163  -3.815  0.00  0.00     0.215 S 
ATOM     14  O   UNL d   1      13.049  13.792  -4.138  0.00  0.00    -0.217 OA
ATOM     15  O   UNL d   1      14.385  14.541  -3.494  0.00  0.00    -0.217 OA
BRANCH  13  16
ATOM     16  C   UNL d   1      13.660  14.759  -4.387  0.00  0.00     0.088 A 
ATOM     17  C   UNL d   1      14.247  15.345  -4.439  0.00  0.00     0.011 A 
ATOM     18  C   UNL d   1      14.190  15.937  -5.009  0.00  0.00     0.001 A 
ATOM     19  C   UNL d   1      13.552  15.953  -5.532  0.00  0.00     0.000 A 
ATOM     20  C   UNL d   1      12.967  15.371  -5.480  0.00  0.00     0.001 A 
ATOM     21  C   UNL d   1      13.023  14.779  -4.911  0.00  0.00     0.011 A 
BRANCH  19  22
ATOM     22  C   UNL d   1      13.499  16.552  -6.104  0.00  0.00     0.000 C 
ATOM     23  C   UNL d   1      12.769  16.782  -6.386  0.00  0.00     0.000 C 
ATOM     24  C   UNL d   1      14.186  16.912  -6.385  0.00  0.00     0.000 C 
ENDBRANCH  19  22
ENDBRANCH  13  16
ENDBRANCH   1  13
TORSDOF 3
ENDMDL
