MODEL 1
REMARK VINA RESULT:      17.3      0.000      0.000
REMARK  2 active torsions:
REMARK  status: ('A' for Active; 'I' for Inactive)
REMARK    1  A    between atoms: C_2  and  N_1 
REMARK    2  A    between atoms: N_8  and  C_3 
REMARK       I    between atoms: C_12  and  N_8 
ROOT
ATOM      1  N   UNL d   1      46.190 -18.076  44.336  0.00  0.00    -0.189 N 
ATOM      2  C   UNL d   1      46.449 -18.406  43.622  0.00  0.00     0.171 A 
ATOM      3  N   UNL d   1      46.227 -18.660  44.923  0.00  0.00    -0.162 NA
ATOM      4  C   UNL d   1      46.646 -19.196  43.771  0.00  0.00     0.060 A 
ATOM      5  C   UNL d   1      46.510 -19.352  44.568  0.00  0.00     0.105 A 
ATOM      6  C   UNL d   1      46.635 -20.077  44.948  0.00  0.00     0.023 C 
ENDROOT
BRANCH   1   7
ATOM      7  C   UNL d   1      45.936 -17.317  44.478  0.00  0.00     0.197 A 
ATOM      8  N   UNL d   1      46.487 -16.709  44.559  0.00  0.00    -0.221 NA
ATOM      9  C   UNL d   1      46.062 -16.002  44.699  0.00  0.00     0.090 A 
ATOM     10  C   UNL d   1      46.290 -15.233  44.822  0.00  0.00     0.020 A 
ATOM     11  C   UNL d   1      45.260 -16.206  44.699  0.00  0.00     0.050 A 
ATOM     12  C   UNL d   1      45.729 -14.639  44.949  0.00  0.00     0.002 A 
ATOM     13  C   UNL d   1      44.940 -14.842  44.948  0.00  0.00     0.001 A 
ATOM     14  C   UNL d   1      44.698 -15.621  44.824  0.00  0.00     0.008 A 
ATOM     15  S   UNL d   1      45.194 -17.013  44.562  0.00  0.00    -0.047 SA
ENDBRANCH   1   7
BRANCH   2  16
ATOM     16  N   UNL d   1      46.503 -18.021  42.891  0.00  0.00    -0.189 NA
ATOM     17  C   UNL d   1      46.592 -18.467  42.219  0.00  0.00     0.281 C 
ATOM     18  O   UNL d   1      46.647 -18.085  41.486  0.00  0.00    -0.265 OA
ATOM     19  C   UNL d   1      46.630 -19.284  42.243  0.00  0.00     0.068 C 
ENDBRANCH   2  16
TORSDOF 2
ENDMDL
