MODEL 1
REMARK VINA RESULT:      -4.8      0.000      0.000
REMARK  5 active torsions:
REMARK  status: ('A' for Active; 'I' for Inactive)
REMARK    1  A    between atoms: C_2  and  C_1 
REMARK    2  A    between atoms: O_6  and  C_1 
REMARK    3  A    between atoms: C_11  and  O_6 
REMARK    4  A    between atoms: C_12  and  C_11 
REMARK    5  A    between atoms: C_13  and  C_12 
ROOT
ATOM      1  C   UNL d   1      56.552  -0.495  32.081  0.00  0.00     0.064 A 
ATOM      2  C   UNL d   1      56.226  -1.112  32.523  0.00  0.00     0.009 A 
ATOM      3  C   UNL d   1      56.366   0.286  32.275  0.00  0.00     0.009 A 
ATOM      4  C   UNL d   1      55.532  -0.180  33.349  0.00  0.00     0.196 A 
ATOM      5  C   UNL d   1      55.718  -0.961  33.155  0.00  0.00     0.042 A 
ATOM      6  C   UNL d   1      55.858   0.434  32.908  0.00  0.00     0.042 A 
ATOM      7  O   UNL d   1      55.020   0.002  33.984  0.00  0.00    -0.287 OA
ENDROOT
BRANCH   1   8
ATOM      8  C   UNL d   1      57.061  -0.660  31.447  0.00  0.00     0.300 C 
ATOM      9  O   UNL d   1      57.098  -1.420  31.128  0.00  0.00    -0.259 OA
BRANCH   8  10
ATOM     10  O   UNL d   1      57.529  -0.054  31.144  0.00  0.00    -0.271 OA
BRANCH  10  11
ATOM     11  C   UNL d   1      57.994  -0.205  30.477  0.00  0.00     0.126 C 
BRANCH  11  12
ATOM     12  C   UNL d   1      58.511   0.382  30.208  0.00  0.00     0.027 C 
BRANCH  12  13
ATOM     13  C   UNL d   1      58.851   0.315  29.466  0.00  0.00     0.002 C 
ATOM     14  C   UNL d   1      59.612   0.604  29.333  0.00  0.00     0.000 C 
ENDBRANCH  12  13
ENDBRANCH  11  12
ENDBRANCH  10  11
ENDBRANCH   8  10
ENDBRANCH   1   8
TORSDOF 5
ENDMDL
MODEL 2
REMARK VINA RESULT:      -4.0      1.299      4.350
REMARK  5 active torsions:
REMARK  status: ('A' for Active; 'I' for Inactive)
REMARK    1  A    between atoms: C_2  and  C_1 
REMARK    2  A    between atoms: O_6  and  C_1 
REMARK    3  A    between atoms: C_11  and  O_6 
REMARK    4  A    between atoms: C_12  and  C_11 
REMARK    5  A    between atoms: C_13  and  C_12 
ROOT
ATOM      1  C   UNL d   1      58.547  -0.054  29.948  0.00  0.00     0.064 A 
ATOM      2  C   UNL d   1      59.194   0.441  30.090  0.00  0.00     0.009 A 
ATOM      3  C   UNL d   1      58.611  -0.653  29.382  0.00  0.00     0.009 A 
ATOM      4  C   UNL d   1      59.965  -0.251  29.111  0.00  0.00     0.196 A 
ATOM      5  C   UNL d   1      59.901   0.347  29.676  0.00  0.00     0.042 A 
ATOM      6  C   UNL d   1      59.321  -0.743  28.970  0.00  0.00     0.042 A 
ATOM      7  O   UNL d   1      60.670  -0.369  28.677  0.00  0.00    -0.287 OA
ENDROOT
BRANCH   1   8
ATOM      8  C   UNL d   1      57.841   0.051  30.370  0.00  0.00     0.300 C 
ATOM      9  O   UNL d   1      57.336   0.678  30.191  0.00  0.00    -0.259 OA
BRANCH   8  10
ATOM     10  O   UNL d   1      57.654  -0.481  30.971  0.00  0.00    -0.271 OA
BRANCH  10  11
ATOM     11  C   UNL d   1      57.011  -0.316  31.463  0.00  0.00     0.126 C 
BRANCH  11  12
ATOM     12  C   UNL d   1      56.702  -0.921  31.935  0.00  0.00     0.027 C 
BRANCH  12  13
ATOM     13  C   UNL d   1      56.251  -0.734  32.593  0.00  0.00     0.002 C 
ATOM     14  C   UNL d   1      55.837  -1.325  32.991  0.00  0.00     0.000 C 
ENDBRANCH  12  13
ENDBRANCH  11  12
ENDBRANCH  10  11
ENDBRANCH   8  10
ENDBRANCH   1   8
TORSDOF 5
ENDMDL
MODEL 3
REMARK VINA RESULT:      -3.9      0.991      3.872
REMARK  5 active torsions:
REMARK  status: ('A' for Active; 'I' for Inactive)
REMARK    1  A    between atoms: C_2  and  C_1 
REMARK    2  A    between atoms: O_6  and  C_1 
REMARK    3  A    between atoms: C_11  and  O_6 
REMARK    4  A    between atoms: C_12  and  C_11 
REMARK    5  A    between atoms: C_13  and  C_12 
ROOT
ATOM      1  C   UNL d   1      57.629  -0.251  31.006  0.00  0.00     0.064 A 
ATOM      2  C   UNL d   1      57.815  -0.676  30.322  0.00  0.00     0.009 A 
ATOM      3  C   UNL d   1      58.053   0.435  31.185  0.00  0.00     0.009 A 
ATOM      4  C   UNL d   1      58.841   0.259  29.995  0.00  0.00     0.196 A 
ATOM      5  C   UNL d   1      58.417  -0.427  29.816  0.00  0.00     0.042 A 
ATOM      6  C   UNL d   1      58.654   0.682  30.677  0.00  0.00     0.042 A 
ATOM      7  O   UNL d   1      59.455   0.536  29.501  0.00  0.00    -0.287 OA
ENDROOT
BRANCH   1   8
ATOM      8  C   UNL d   1      57.022  -0.513  31.506  0.00  0.00     0.300 C 
ATOM      9  O   UNL d   1      56.782  -1.302  31.495  0.00  0.00    -0.259 OA
BRANCH   8  10
ATOM     10  O   UNL d   1      56.663   0.028  32.014  0.00  0.00    -0.271 OA
BRANCH  10  11
ATOM     11  C   UNL d   1      56.088  -0.243  32.543  0.00  0.00     0.126 C 
BRANCH  11  12
ATOM     12  C   UNL d   1      55.656   0.310  32.980  0.00  0.00     0.027 C 
BRANCH  12  13
ATOM     13  C   UNL d   1      55.231   0.065  33.638  0.00  0.00     0.002 C 
ATOM     14  C   UNL d   1      54.746   0.599  34.037  0.00  0.00     0.000 C 
ENDBRANCH  12  13
ENDBRANCH  11  12
ENDBRANCH  10  11
ENDBRANCH   8  10
ENDBRANCH   1   8
TORSDOF 5
ENDMDL
MODEL 4
REMARK VINA RESULT:      -3.7      8.394      9.275
REMARK  5 active torsions:
REMARK  status: ('A' for Active; 'I' for Inactive)
REMARK    1  A    between atoms: C_2  and  C_1 
REMARK    2  A    between atoms: O_6  and  C_1 
REMARK    3  A    between atoms: C_11  and  O_6 
REMARK    4  A    between atoms: C_12  and  C_11 
REMARK    5  A    between atoms: C_13  and  C_12 
ROOT
ATOM      1  C   UNL d   1      59.759  -7.789  35.659  0.00  0.00     0.064 A 
ATOM      2  C   UNL d   1      60.562  -7.642  35.793  0.00  0.00     0.009 A 
ATOM      3  C   UNL d   1      59.214  -7.175  35.750  0.00  0.00     0.009 A 
ATOM      4  C   UNL d   1      60.282  -6.279  36.106  0.00  0.00     0.196 A 
ATOM      5  C   UNL d   1      60.827  -6.893  36.015  0.00  0.00     0.042 A 
ATOM      6  C   UNL d   1      59.483  -6.427  35.972  0.00  0.00     0.042 A 
ATOM      7  O   UNL d   1      60.522  -5.511  36.330  0.00  0.00    -0.287 OA
ENDROOT
BRANCH   1   8
ATOM      8  C   UNL d   1      59.506  -8.546  35.436  0.00  0.00     0.300 C 
ATOM      9  O   UNL d   1      59.058  -9.006  35.954  0.00  0.00    -0.259 OA
BRANCH   8  10
ATOM     10  O   UNL d   1      59.707  -8.830  34.689  0.00  0.00    -0.271 OA
BRANCH  10  11
ATOM     11  C   UNL d   1      59.199  -9.363  34.315  0.00  0.00     0.126 C 
BRANCH  11  12
ATOM     12  C   UNL d   1      59.383  -9.624  33.553  0.00  0.00     0.027 C 
BRANCH  12  13
ATOM     13  C   UNL d   1      58.781  -9.818  33.032  0.00  0.00     0.002 C 
ATOM     14  C   UNL d   1      58.913  -9.788  32.219  0.00  0.00     0.000 C 
ENDBRANCH  12  13
ENDBRANCH  11  12
ENDBRANCH  10  11
ENDBRANCH   8  10
ENDBRANCH   1   8
TORSDOF 5
ENDMDL
MODEL 5
REMARK VINA RESULT:      -3.0      1.161      1.688
REMARK  5 active torsions:
REMARK  status: ('A' for Active; 'I' for Inactive)
REMARK    1  A    between atoms: C_2  and  C_1 
REMARK    2  A    between atoms: O_6  and  C_1 
REMARK    3  A    between atoms: C_11  and  O_6 
REMARK    4  A    between atoms: C_12  and  C_11 
REMARK    5  A    between atoms: C_13  and  C_12 
ROOT
ATOM      1  C   UNL d   1      57.597   0.015  31.002  0.00  0.00     0.064 A 
ATOM      2  C   UNL d   1      57.169  -0.642  31.261  0.00  0.00     0.009 A 
ATOM      3  C   UNL d   1      57.655   0.679  31.490  0.00  0.00     0.009 A 
ATOM      4  C   UNL d   1      56.858   0.017  32.487  0.00  0.00     0.196 A 
ATOM      5  C   UNL d   1      56.799  -0.647  31.999  0.00  0.00     0.042 A 
ATOM      6  C   UNL d   1      57.284   0.672  32.227  0.00  0.00     0.042 A 
ATOM      7  O   UNL d   1      56.493   0.040  33.238  0.00  0.00    -0.287 OA
ENDROOT
BRANCH   1   8
ATOM      8  C   UNL d   1      57.964   0.007  30.259  0.00  0.00     0.300 C 
ATOM      9  O   UNL d   1      57.512   0.019  29.569  0.00  0.00    -0.259 OA
BRANCH   8  10
ATOM     10  O   UNL d   1      58.787  -0.013  30.221  0.00  0.00    -0.271 OA
BRANCH  10  11
ATOM     11  C   UNL d   1      59.149  -0.134  29.488  0.00  0.00     0.126 C 
BRANCH  11  12
ATOM     12  C   UNL d   1      59.943   0.076  29.394  0.00  0.00     0.027 C 
BRANCH  12  13
ATOM     13  C   UNL d   1      60.493  -0.494  29.184  0.00  0.00     0.002 C 
ATOM     14  C   UNL d   1      60.951  -0.395  28.506  0.00  0.00     0.000 C 
ENDBRANCH  12  13
ENDBRANCH  11  12
ENDBRANCH  10  11
ENDBRANCH   8  10
ENDBRANCH   1   8
TORSDOF 5
ENDMDL
MODEL 6
REMARK VINA RESULT:      -3.0      1.290      4.071
REMARK  5 active torsions:
REMARK  status: ('A' for Active; 'I' for Inactive)
REMARK    1  A    between atoms: C_2  and  C_1 
REMARK    2  A    between atoms: O_6  and  C_1 
REMARK    3  A    between atoms: C_11  and  O_6 
REMARK    4  A    between atoms: C_12  and  C_11 
REMARK    5  A    between atoms: C_13  and  C_12 
ROOT
ATOM      1  C   UNL d   1      56.729   0.006  32.315  0.00  0.00     0.064 A 
ATOM      2  C   UNL d   1      56.782  -0.758  32.004  0.00  0.00     0.009 A 
ATOM      3  C   UNL d   1      57.013   0.645  31.875  0.00  0.00     0.009 A 
ATOM      4  C   UNL d   1      57.398  -0.254  30.820  0.00  0.00     0.196 A 
ATOM      5  C   UNL d   1      57.114  -0.892  31.261  0.00  0.00     0.042 A 
ATOM      6  C   UNL d   1      57.344   0.506  31.132  0.00  0.00     0.042 A 
ATOM      7  O   UNL d   1      57.739  -0.361  30.065  0.00  0.00    -0.287 OA
ENDROOT
BRANCH   1   8
ATOM      8  C   UNL d   1      56.393   0.128  33.064  0.00  0.00     0.300 C 
ATOM      9  O   UNL d   1      56.867   0.337  33.705  0.00  0.00    -0.259 OA
BRANCH   8  10
ATOM     10  O   UNL d   1      55.579   0.036  33.155  0.00  0.00    -0.271 OA
BRANCH  10  11
ATOM     11  C   UNL d   1      55.234   0.238  33.879  0.00  0.00     0.126 C 
BRANCH  11  12
ATOM     12  C   UNL d   1      54.430   0.087  33.994  0.00  0.00     0.027 C 
BRANCH  12  13
ATOM     13  C   UNL d   1      53.955   0.655  34.346  0.00  0.00     0.002 C 
ATOM     14  C   UNL d   1      53.882   0.682  35.166  0.00  0.00     0.000 C 
ENDBRANCH  12  13
ENDBRANCH  11  12
ENDBRANCH  10  11
ENDBRANCH   8  10
ENDBRANCH   1   8
TORSDOF 5
ENDMDL
MODEL 7
REMARK VINA RESULT:      -1.8      9.463      9.838
REMARK  5 active torsions:
REMARK  status: ('A' for Active; 'I' for Inactive)
REMARK    1  A    between atoms: C_2  and  C_1 
REMARK    2  A    between atoms: O_6  and  C_1 
REMARK    3  A    between atoms: C_11  and  O_6 
REMARK    4  A    between atoms: C_12  and  C_11 
REMARK    5  A    between atoms: C_13  and  C_12 
ROOT
ATOM      1  C   UNL d   1      59.206  -9.372  33.899  0.00  0.00     0.064 A 
ATOM      2  C   UNL d   1      59.934  -9.762  33.858  0.00  0.00     0.009 A 
ATOM      3  C   UNL d   1      59.119  -8.729  34.410  0.00  0.00     0.009 A 
ATOM      4  C   UNL d   1      60.487  -8.878  34.830  0.00  0.00     0.196 A 
ATOM      5  C   UNL d   1      60.574  -9.521  34.319  0.00  0.00     0.042 A 
ATOM      6  C   UNL d   1      59.761  -8.490  34.870  0.00  0.00     0.042 A 
ATOM      7  O   UNL d   1      61.117  -8.612  35.309  0.00  0.00    -0.287 OA
ENDROOT
BRANCH   1   8
ATOM      8  C   UNL d   1      58.571  -9.625  33.430  0.00  0.00     0.300 C 
ATOM      9  O   UNL d   1      57.847  -9.817  33.776  0.00  0.00    -0.259 OA
BRANCH   8  10
ATOM     10  O   UNL d   1      58.675  -9.680  32.614  0.00  0.00    -0.271 OA
BRANCH  10  11
ATOM     11  C   UNL d   1      58.013  -9.613  32.123  0.00  0.00     0.126 C 
BRANCH  11  12
ATOM     12  C   UNL d   1      58.085  -9.817  31.325  0.00  0.00     0.027 C 
BRANCH  12  13
ATOM     13  C   UNL d   1      57.495  -9.607  30.796  0.00  0.00     0.002 C 
ATOM     14  C   UNL d   1      57.624  -9.677  29.985  0.00  0.00     0.000 C 
ENDBRANCH  12  13
ENDBRANCH  11  12
ENDBRANCH  10  11
ENDBRANCH   8  10
ENDBRANCH   1   8
TORSDOF 5
ENDMDL
