MODEL 1
REMARK VINA RESULT:      90.0      0.000      0.000
REMARK  3 active torsions:
REMARK  status: ('A' for Active; 'I' for Inactive)
REMARK    1  A    between atoms: C_11  and  N_2 
REMARK    2  A    between atoms: C_9  and  N_3 
REMARK    3  A    between atoms: C_10  and  C_12 
ROOT
ATOM      1  C   UNL d   1      58.942  49.252  51.913  0.00  0.00     0.339 A 
ATOM      2  N   UNL d   1      58.140  49.401  51.801  0.00  0.00    -0.258 N 
ATOM      3  N   UNL d   1      59.311  49.215  51.172  0.00  0.00    -0.258 N 
ATOM      4  S   UNL d   1      57.795  49.546  49.670  0.00  0.00     0.214 S 
ATOM      5  C   UNL d   1      58.002  49.458  50.978  0.00  0.00     0.097 A 
ATOM      6  C   UNL d   1      58.731  49.341  50.597  0.00  0.00     0.097 A 
ATOM      7  C   UNL d   1      57.430  49.583  50.402  0.00  0.00     0.118 A 
ATOM      8  C   UNL d   1      58.593  49.398  49.782  0.00  0.00     0.118 A 
ATOM      9  O   UNL d   1      59.321  49.155  52.643  0.00  0.00    -0.245 OA
ATOM     10  O   UNL d   1      58.168  49.508  48.925  0.00  0.00    -0.217 OA
ATOM     11  O   UNL d   1      56.998  49.696  49.500  0.00  0.00    -0.217 OA
ENDROOT
BRANCH   3  12
ATOM     12  C   UNL d   1      60.114  49.076  51.030  0.00  0.00     0.068 A 
ATOM     13  C   UNL d   1      60.382  48.313  50.873  0.00  0.00     0.021 A 
ATOM     14  C   UNL d   1      61.177  48.170  50.732  0.00  0.00     0.073 A 
ATOM     15  C   UNL d   1      61.713  48.798  50.747  0.00  0.00     0.004 A 
ATOM     16  C   UNL d   1      61.453  49.568  50.903  0.00  0.00     0.001 A 
ATOM     17  C   UNL d   1      60.650  49.704  51.045  0.00  0.00     0.018 A 
BRANCH  14  18
ATOM     18  C   UNL d   1      61.444  47.404  50.575  0.00  0.00     0.419 C 
ATOM     19  F   UNL d   1      61.685  46.702  50.434  0.00  0.00    -0.166 F 
ATOM     20  F   UNL d   1      61.097  46.646  50.812  0.00  0.00    -0.166 F 
ATOM     21  F   UNL d   1      62.138  47.144  50.135  0.00  0.00    -0.166 F 
ENDBRANCH  14  18
ENDBRANCH   3  12
BRANCH   2  22
ATOM     22  C   UNL d   1      57.565  49.481  52.392  0.00  0.00     0.068 A 
ATOM     23  C   UNL d   1      57.795  49.629  53.170  0.00  0.00     0.016 A 
ATOM     24  C   UNL d   1      58.592  49.697  53.366  0.00  0.00     0.002 C 
ATOM     25  C   UNL d   1      57.211  49.707  53.754  0.00  0.00     0.001 A 
ATOM     26  C   UNL d   1      56.414  49.638  53.559  0.00  0.00     0.000 A 
ATOM     27  C   UNL d   1      56.193  49.491  52.781  0.00  0.00     0.002 A 
ATOM     28  C   UNL d   1      56.769  49.412  52.198  0.00  0.00     0.018 A 
ENDBRANCH   2  22
TORSDOF 3
ENDMDL
