MODEL 1
REMARK VINA RESULT:      54.0      0.000      0.000
REMARK  5 active torsions:
REMARK  status: ('A' for Active; 'I' for Inactive)
REMARK    1  A    between atoms: N_6  and  C_1 
REMARK    2  A    between atoms: S_2  and  C_11 
REMARK    3  A    between atoms: N_8  and  S_2 
REMARK    4  A    between atoms: C_10  and  C_3 
REMARK       I    between atoms: C_9  and  N_6 
REMARK    5  A    between atoms: C_14  and  C_9 
REMARK       I    between atoms: N_22  and  C_10 
ROOT
ATOM      1  C   UNL d   1      45.978 -18.472  41.233  0.00  0.00     0.104 A 
ATOM      2  C   UNL d   1      46.000 -17.574  39.841  0.00  0.00     0.058 A 
ATOM      3  C   UNL d   1      45.341 -18.502  40.715  0.00  0.00     0.013 A 
ATOM      4  C   UNL d   1      46.635 -17.990  41.058  0.00  0.00     0.013 A 
ATOM      5  C   UNL d   1      45.350 -18.053  40.018  0.00  0.00     0.005 A 
ATOM      6  C   UNL d   1      46.644 -17.543  40.364  0.00  0.00     0.005 A 
ENDROOT
BRANCH   2   7
ATOM      7  C   UNL d   1      46.009 -17.127  39.147  0.00  0.00     0.280 C 
ATOM      8  N   UNL d   1      45.182 -16.656  39.007  0.00  0.00    -0.201 NA
ATOM      9  O   UNL d   1      46.603 -17.184  38.816  0.00  0.00    -0.265 OA
BRANCH   8  10
ATOM     10  C   UNL d   1      45.229 -16.270  38.379  0.00  0.00     0.119 A 
ATOM     11  C   UNL d   1      44.866 -16.040  37.734  0.00  0.00     0.082 A 
ATOM     12  C   UNL d   1      45.364 -15.593  37.312  0.00  0.00     0.013 A 
ATOM     13  C   UNL d   1      45.289 -15.219  36.620  0.00  0.00     0.001 A 
ATOM     14  C   UNL d   1      46.046 -15.553  37.713  0.00  0.00     0.031 A 
ATOM     15  C   UNL d   1      45.895 -14.806  36.330  0.00  0.00     0.001 A 
ATOM     16  C   UNL d   1      46.573 -14.766  36.727  0.00  0.00     0.006 A 
ATOM     17  S   UNL d   1      45.963 -15.971  38.372  0.00  0.00    -0.068 SA
BRANCH  11  18
ATOM     18  C   UNL d   1      44.125 -16.219  37.532  0.00  0.00     0.281 C 
ATOM     19  O   UNL d   1      43.917 -16.976  37.431  0.00  0.00    -0.265 OA
ATOM     20  N   UNL d   1      43.590 -15.646  37.429  0.00  0.00    -0.205 NA
ATOM     21  C   UNL d   1      42.816 -15.837  37.217  0.00  0.00     0.123 C 
ENDBRANCH  11  18
ENDBRANCH   8  10
ENDBRANCH   2   7
BRANCH   1  22
ATOM     22  S   UNL d   1      45.969 -18.921  41.930  0.00  0.00     0.272 S 
ATOM     23  O   UNL d   1      46.645 -19.323  41.680  0.00  0.00    -0.200 OA
ATOM     24  O   UNL d   1      45.290 -18.517  42.181  0.00  0.00    -0.200 OA
BRANCH  22  25
ATOM     25  N   UNL d   1      45.960 -19.368  42.623  0.00  0.00    -0.225 N 
ATOM     26  C   UNL d   1      45.312 -19.844  42.805  0.00  0.00     0.118 A 
ATOM     27  C   UNL d   1      45.303 -20.295  43.505  0.00  0.00     0.142 A 
ATOM     28  O   UNL d   1      45.949 -20.264  44.023  0.00  0.00    -0.300 OA
ATOM     29  C   UNL d   1      46.590 -19.791  43.841  0.00  0.00     0.142 A 
ATOM     30  C   UNL d   1      46.599 -19.345  43.147  0.00  0.00     0.118 A 
ENDBRANCH  22  25
ENDBRANCH   1  22
TORSDOF 5
ENDMDL
