MODEL 1
REMARK VINA RESULT:      -1.2      0.000      0.000
REMARK  3 active torsions:
REMARK  status: ('A' for Active; 'I' for Inactive)
REMARK    1  A    between atoms: N_11  and  C_1 
REMARK    2  A    between atoms: N_5  and  C_4 
REMARK    3  A    between atoms: C_7  and  C_10 
REMARK       I    between atoms: C_10  and  N_12 
ROOT
ATOM      1  C   UNL d   1     -41.595-121.573 -53.196  0.00  0.00     0.288 C 
ATOM      2  N   UNL d   1     -42.089-122.478 -50.940  0.00  0.00    -0.281 N 
ATOM      3  N   UNL d   1     -41.762-121.880 -52.440  0.00  0.00    -0.267 N 
ATOM      4  C   UNL d   1     -42.270-122.917 -51.605  0.00  0.00     0.101 A 
ATOM      5  C   UNL d   1     -41.742-121.732 -51.023  0.00  0.00     0.101 A 
ATOM      6  C   UNL d   1     -42.110-122.626 -52.357  0.00  0.00     0.102 A 
ATOM      7  C   UNL d   1     -41.575-121.425 -51.771  0.00  0.00     0.102 A 
ATOM      8  O   UNL d   1     -41.252-120.835 -53.278  0.00  0.00    -0.264 OA
ENDROOT
BRANCH   2   9
ATOM      9  C   UNL d   1     -42.249-122.769 -50.189  0.00  0.00     0.179 A 
ATOM     10  N   UNL d   1     -42.973-123.082 -49.937  0.00  0.00    -0.222 NA
ATOM     11  C   UNL d   1     -42.899-123.309 -49.152  0.00  0.00     0.089 A 
ATOM     12  C   UNL d   1     -43.423-123.645 -48.627  0.00  0.00     0.018 A 
ATOM     13  C   UNL d   1     -42.127-123.137 -48.913  0.00  0.00     0.050 A 
ATOM     14  C   UNL d   1     -43.191-123.816 -47.861  0.00  0.00     0.002 A 
ATOM     15  C   UNL d   1     -44.194-123.817 -48.867  0.00  0.00     0.002 C 
ATOM     16  C   UNL d   1     -42.420-123.644 -47.622  0.00  0.00     0.001 A 
ATOM     17  C   UNL d   1     -41.890-123.303 -48.156  0.00  0.00     0.007 A 
ATOM     18  C   UNL d   1     -41.123-123.133 -47.917  0.00  0.00     0.001 C 
ATOM     19  S   UNL d   1     -41.725-122.807 -49.544  0.00  0.00    -0.048 SA
ENDBRANCH   2   9
BRANCH   1  20
ATOM     20  C   UNL d   1     -41.783-122.028 -53.860  0.00  0.00     0.158 A 
ATOM     21  O   UNL d   1     -42.486-121.987 -54.300  0.00  0.00    -0.281 OA
ATOM     22  C   UNL d   1     -42.424-122.545 -54.913  0.00  0.00     0.228 A 
ATOM     23  C   UNL d   1     -41.692-122.914 -54.839  0.00  0.00     0.051 A 
ATOM     24  C   UNL d   1     -41.301-122.592 -54.189  0.00  0.00     0.034 A 
BRANCH  22  25
ATOM     25  N   UNL d   1     -42.992-122.706 -55.496  0.00  0.00    -0.089 N 
ATOM     26  O   UNL d   1     -43.355-123.465 -55.522  0.00  0.00    -0.530 OA
ATOM     27  O   UNL d   1     -43.204-122.137 -56.045  0.00  0.00    -0.530 OA
ENDBRANCH  22  25
ENDBRANCH   1  20
TORSDOF 3
ENDMDL
MODEL 2
REMARK VINA RESULT:      -0.5      2.506      5.481
REMARK  3 active torsions:
REMARK  status: ('A' for Active; 'I' for Inactive)
REMARK    1  A    between atoms: N_11  and  C_1 
REMARK    2  A    between atoms: N_5  and  C_4 
REMARK    3  A    between atoms: C_7  and  C_10 
REMARK       I    between atoms: C_10  and  N_12 
ROOT
ATOM      1  C   UNL d   1     -41.498-122.018 -49.885  0.00  0.00     0.288 C 
ATOM      2  N   UNL d   1     -41.685-122.206 -52.351  0.00  0.00    -0.281 N 
ATOM      3  N   UNL d   1     -41.562-122.084 -50.712  0.00  0.00    -0.267 N 
ATOM      4  C   UNL d   1     -41.977-122.800 -51.872  0.00  0.00     0.101 A 
ATOM      5  C   UNL d   1     -41.327-121.543 -52.010  0.00  0.00     0.101 A 
ATOM      6  C   UNL d   1     -41.920-122.747 -51.054  0.00  0.00     0.102 A 
ATOM      7  C   UNL d   1     -41.262-121.474 -51.189  0.00  0.00     0.102 A 
ATOM      8  O   UNL d   1     -41.144-121.362 -49.547  0.00  0.00    -0.264 OA
ENDROOT
BRANCH   2   9
ATOM      9  C   UNL d   1     -41.742-122.259 -53.168  0.00  0.00     0.179 A 
ATOM     10  N   UNL d   1     -42.091-121.697 -53.665  0.00  0.00    -0.222 NA
ATOM     11  C   UNL d   1     -42.033-121.962 -54.440  0.00  0.00     0.089 A 
ATOM     12  C   UNL d   1     -42.276-121.642 -55.148  0.00  0.00     0.018 A 
ATOM     13  C   UNL d   1     -41.646-122.691 -54.426  0.00  0.00     0.050 A 
ATOM     14  C   UNL d   1     -42.140-122.039 -55.851  0.00  0.00     0.002 A 
ATOM     15  C   UNL d   1     -42.662-120.913 -55.160  0.00  0.00     0.002 C 
ATOM     16  C   UNL d   1     -41.753-122.768 -55.837  0.00  0.00     0.001 A 
ATOM     17  C   UNL d   1     -41.507-123.091 -55.118  0.00  0.00     0.007 A 
ATOM     18  C   UNL d   1     -41.123-123.816 -55.107  0.00  0.00     0.001 C 
ATOM     19  S   UNL d   1     -41.466-122.878 -53.651  0.00  0.00    -0.048 SA
ENDBRANCH   2   9
BRANCH   1  20
ATOM     20  C   UNL d   1     -41.798-122.626 -49.413  0.00  0.00     0.158 A 
ATOM     21  O   UNL d   1     -42.506-122.607 -48.978  0.00  0.00    -0.281 OA
ATOM     22  C   UNL d   1     -42.575-123.340 -48.592  0.00  0.00     0.228 A 
ATOM     23  C   UNL d   1     -41.917-123.790 -48.793  0.00  0.00     0.051 A 
ATOM     24  C   UNL d   1     -41.441-123.346 -49.299  0.00  0.00     0.034 A 
BRANCH  22  25
ATOM     25  N   UNL d   1     -43.193-123.580 -48.093  0.00  0.00    -0.089 N 
ATOM     26  O   UNL d   1     -43.943-123.770 -48.424  0.00  0.00    -0.530 OA
ATOM     27  O   UNL d   1     -43.083-123.634 -47.283  0.00  0.00    -0.530 OA
ENDBRANCH  22  25
ENDBRANCH   1  20
TORSDOF 3
ENDMDL
