MODEL 1
REMARK VINA RESULT:      42.4      0.000      0.000
REMARK  7 active torsions:
REMARK  status: ('A' for Active; 'I' for Inactive)
REMARK    1  A    between atoms: C_7  and  C_1 
REMARK    2  A    between atoms: C_8  and  C_2 
REMARK    3  A    between atoms: C_10  and  C_3 
REMARK    4  A    between atoms: O_14  and  C_7 
REMARK    5  A    between atoms: O_15  and  C_8 
REMARK    6  A    between atoms: C_19  and  O_14 
REMARK    7  A    between atoms: C_20  and  O_15 
ROOT
ATOM      1  C   UNL d   1      13.671  12.619  -2.855  0.00  0.00     0.100 A 
ATOM      2  C   UNL d   1      13.588  13.856  -3.565  0.00  0.00     0.103 A 
ATOM      3  C   UNL d   1      13.845  13.422  -2.907  0.00  0.00     0.016 A 
ATOM      4  C   UNL d   1      13.241  12.243  -3.461  0.00  0.00     0.171 A 
ATOM      5  C   UNL d   1      13.157  13.479  -4.171  0.00  0.00     0.204 A 
ATOM      6  C   UNL d   1      12.984  12.670  -4.115  0.00  0.00     0.081 A 
ATOM      7  O   UNL d   1      12.915  13.782  -4.743  0.00  0.00    -0.286 OA
ATOM      8  O   UNL d   1      13.378  11.790  -3.008  0.00  0.00    -0.289 OA
ATOM      9  C   UNL d   1      12.954  11.781  -3.767  0.00  0.00     0.042 C 
ENDROOT
BRANCH   3  10
ATOM     10  C   UNL d   1      14.268  13.791  -2.312  0.00  0.00     0.001 A 
ATOM     11  C   UNL d   1      15.001  13.498  -2.076  0.00  0.00     0.000 A 
ATOM     12  C   UNL d   1      15.428  13.871  -1.476  0.00  0.00     0.000 A 
ATOM     13  C   UNL d   1      15.125  14.540  -1.109  0.00  0.00     0.000 A 
ATOM     14  C   UNL d   1      14.389  14.842  -1.340  0.00  0.00     0.000 A 
ATOM     15  C   UNL d   1      13.962  14.469  -1.940  0.00  0.00     0.000 A 
ENDBRANCH   3  10
BRANCH   2  16
ATOM     16  C   UNL d   1      13.761  14.660  -3.618  0.00  0.00     0.303 C 
ATOM     17  O   UNL d   1      13.379  15.212  -3.131  0.00  0.00    -0.259 OA
BRANCH  16  18
ATOM     18  O   UNL d   1      14.316  14.947  -4.153  0.00  0.00    -0.271 OA
BRANCH  18  19
ATOM     19  C   UNL d   1      14.288  15.740  -4.399  0.00  0.00     0.126 C 
ATOM     20  C   UNL d   1      14.915  16.063  -4.835  0.00  0.00     0.029 C 
ENDBRANCH  18  19
ENDBRANCH  16  18
ENDBRANCH   2  16
BRANCH   1  21
ATOM     21  C   UNL d   1      13.928  12.188  -2.198  0.00  0.00     0.303 C 
ATOM     22  O   UNL d   1      14.625  11.779  -2.234  0.00  0.00    -0.259 OA
BRANCH  21  23
ATOM     23  O   UNL d   1      13.490  12.159  -1.494  0.00  0.00    -0.271 OA
BRANCH  23  24
ATOM     24  C   UNL d   1      13.808  11.804  -0.824  0.00  0.00     0.126 C 
ATOM     25  C   UNL d   1      13.372  11.789  -0.120  0.00  0.00     0.029 C 
ENDBRANCH  23  24
ENDBRANCH  21  23
ENDBRANCH   1  21
TORSDOF 7
ENDMDL
MODEL 2
REMARK VINA RESULT:      44.6      1.143      2.849
REMARK  7 active torsions:
REMARK  status: ('A' for Active; 'I' for Inactive)
REMARK    1  A    between atoms: C_7  and  C_1 
REMARK    2  A    between atoms: C_8  and  C_2 
REMARK    3  A    between atoms: C_10  and  C_3 
REMARK    4  A    between atoms: O_14  and  C_7 
REMARK    5  A    between atoms: O_15  and  C_8 
REMARK    6  A    between atoms: C_19  and  O_14 
REMARK    7  A    between atoms: C_20  and  O_15 
ROOT
ATOM      1  C   UNL d   1      13.951  12.828  -2.968  0.00  0.00     0.100 A 
ATOM      2  C   UNL d   1      14.483  13.959  -2.277  0.00  0.00     0.103 A 
ATOM      3  C   UNL d   1      14.082  13.639  -2.928  0.00  0.00     0.016 A 
ATOM      4  C   UNL d   1      14.219  12.329  -2.357  0.00  0.00     0.171 A 
ATOM      5  C   UNL d   1      14.751  13.460  -1.666  0.00  0.00     0.204 A 
ATOM      6  C   UNL d   1      14.617  12.643  -1.709  0.00  0.00     0.081 A 
ATOM      7  O   UNL d   1      15.090  13.662  -1.098  0.00  0.00    -0.286 OA
ATOM      8  O   UNL d   1      13.923  11.951  -2.802  0.00  0.00    -0.289 OA
ATOM      9  C   UNL d   1      14.319  11.799  -2.044  0.00  0.00     0.042 C 
ENDROOT
BRANCH   3  10
ATOM     10  C   UNL d   1      13.820  14.129  -3.528  0.00  0.00     0.001 A 
ATOM     11  C   UNL d   1      13.037  14.387  -3.546  0.00  0.00     0.000 A 
ATOM     12  C   UNL d   1      12.772  14.881  -4.151  0.00  0.00     0.000 A 
ATOM     13  C   UNL d   1      13.287  15.121  -4.743  0.00  0.00     0.000 A 
ATOM     14  C   UNL d   1      14.075  14.868  -4.733  0.00  0.00     0.000 A 
ATOM     15  C   UNL d   1      14.340  14.373  -4.128  0.00  0.00     0.000 A 
ENDBRANCH   3  10
BRANCH   2  16
ATOM     16  C   UNL d   1      14.616  14.772  -2.236  0.00  0.00     0.303 C 
ATOM     17  O   UNL d   1      14.772  15.214  -2.920  0.00  0.00    -0.259 OA
BRANCH  16  18
ATOM     18  O   UNL d   1      14.598  15.175  -1.520  0.00  0.00    -0.271 OA
BRANCH  18  19
ATOM     19  C   UNL d   1      15.082  15.841  -1.404  0.00  0.00     0.126 C 
ATOM     20  C   UNL d   1      14.816  16.472  -0.935  0.00  0.00     0.029 C 
ENDBRANCH  18  19
ENDBRANCH  16  18
ENDBRANCH   2  16
BRANCH   1  21
ATOM     21  C   UNL d   1      13.552  12.510  -3.618  0.00  0.00     0.303 C 
ATOM     22  O   UNL d   1      12.770  12.311  -3.550  0.00  0.00    -0.259 OA
BRANCH  21  23
ATOM     23  O   UNL d   1      13.928  12.388  -4.347  0.00  0.00    -0.271 OA
BRANCH  23  24
ATOM     24  C   UNL d   1      13.614  11.854  -4.889  0.00  0.00     0.126 C 
ATOM     25  C   UNL d   1      13.958  11.779  -5.639  0.00  0.00     0.029 C 
ENDBRANCH  23  24
ENDBRANCH  21  23
ENDBRANCH   1  21
TORSDOF 7
ENDMDL
