MODEL 1
REMARK VINA RESULT:      22.1      0.000      0.000
REMARK  5 active torsions:
REMARK  status: ('A' for Active; 'I' for Inactive)
REMARK    1  A    between atoms: N_5  and  C_1 
REMARK    2  A    between atoms: C_8  and  C_2 
REMARK       I    between atoms: C_6  and  N_5 
REMARK    3  A    between atoms: C_9  and  C_6 
REMARK    4  A    between atoms: O_12  and  C_8 
REMARK    5  A    between atoms: C_17  and  O_12 
ROOT
ATOM      1  C   UNL d   1      58.971  49.640  50.791  0.00  0.00     0.114 A 
ATOM      2  C   UNL d   1      60.282  49.559  50.974  0.00  0.00     0.094 A 
ATOM      3  S   UNL d   1      59.569  49.548  51.347  0.00  0.00    -0.062 SA
ATOM      4  C   UNL d   1      60.108  49.662  50.159  0.00  0.00     0.013 A 
ATOM      5  C   UNL d   1      59.335  49.708  50.065  0.00  0.00     0.026 A 
ATOM      6  C   UNL d   1      60.664  49.707  49.550  0.00  0.00     0.001 C 
ENDROOT
BRANCH   1   7
ATOM      7  N   UNL d   1      58.127  49.662  50.935  0.00  0.00    -0.205 NA
ATOM      8  C   UNL d   1      57.611  49.662  50.301  0.00  0.00     0.255 C 
ATOM      9  O   UNL d   1      57.885  49.642  49.535  0.00  0.00    -0.270 OA
BRANCH   8  10
ATOM     10  C   UNL d   1      56.808  49.683  50.434  0.00  0.00     0.073 C 
ATOM     11  C   UNL d   1      56.193  49.690  49.792  0.00  0.00     0.009 C 
ATOM     12  C   UNL d   1      56.476  49.700  51.227  0.00  0.00     0.009 C 
ATOM     13  C   UNL d   1      56.109  49.701  50.564  0.00  0.00     0.009 C 
ENDBRANCH   8  10
ENDBRANCH   1   7
BRANCH   2  14
ATOM     14  C   UNL d   1      61.034  49.484  51.320  0.00  0.00     0.306 C 
ATOM     15  O   UNL d   1      61.641  49.192  50.862  0.00  0.00    -0.258 OA
BRANCH  14  16
ATOM     16  O   UNL d   1      61.173  49.695  52.095  0.00  0.00    -0.271 OA
BRANCH  16  17
ATOM     17  C   UNL d   1      61.916  49.592  52.427  0.00  0.00     0.126 C 
ATOM     18  C   UNL d   1      61.975  49.495  53.244  0.00  0.00     0.029 C 
ENDBRANCH  16  17
ENDBRANCH  14  16
ENDBRANCH   2  14
TORSDOF 5
ENDMDL
