MODEL 1
REMARK VINA RESULT:      -4.3      0.000      0.000
REMARK  6 active torsions:
REMARK  status: ('A' for Active; 'I' for Inactive)
REMARK    1  A    between atoms: N_4  and  S_1 
REMARK    2  A    between atoms: C_12  and  S_1 
REMARK    3  A    between atoms: N_3  and  C_2 
REMARK    4  A    between atoms: C_7  and  N_4 
REMARK    5  A    between atoms: C_6  and  C_8 
REMARK       I    between atoms: C_8  and  N_13 
REMARK    6  A    between atoms: N_13  and  C_22 
ROOT
ATOM      1  C   UNL d   1     -41.128-122.962 -52.886  0.00  0.00     0.106 A 
ATOM      2  C   UNL d   1     -41.123-123.717 -52.572  0.00  0.00     0.015 A 
ATOM      3  C   UNL d   1     -41.136-122.298 -52.395  0.00  0.00     0.015 A 
ATOM      4  C   UNL d   1     -41.134-123.158 -51.255  0.00  0.00     0.085 A 
ATOM      5  C   UNL d   1     -41.139-122.397 -51.576  0.00  0.00     0.020 A 
ATOM      6  C   UNL d   1     -41.126-123.817 -51.753  0.00  0.00     0.020 A 
ENDROOT
BRANCH   1   7
ATOM      7  S   UNL d   1     -41.125-122.862 -53.706  0.00  0.00     0.300 S 
ATOM      8  O   UNL d   1     -41.127-122.043 -53.615  0.00  0.00    -0.198 OA
ATOM      9  O   UNL d   1     -41.123-123.684 -53.812  0.00  0.00    -0.198 OA
BRANCH   7  10
ATOM     10  N   UNL d   1     -41.123-122.767 -54.532  0.00  0.00     0.034 NA
BRANCH  10  11
ATOM     11  C   UNL d   1     -41.782-122.454 -54.916  0.00  0.00     0.760 A 
ATOM     12  N   UNL d   1     -41.688-122.024 -55.630  0.00  0.00    -0.059 NA
ATOM     13  C   UNL d   1     -42.348-121.710 -56.014  0.00  0.00     0.102 A 
ATOM     14  C   UNL d   1     -42.255-121.287 -56.719  0.00  0.00     0.021 C 
ATOM     15  C   UNL d   1     -43.100-121.821 -55.694  0.00  0.00     0.041 A 
ATOM     16  C   UNL d   1     -43.194-122.251 -54.979  0.00  0.00     0.120 A 
ATOM     17  N   UNL d   1     -42.534-122.560 -54.603  0.00  0.00    -0.057 NA
ENDBRANCH  10  11
ENDBRANCH   7  10
ENDBRANCH   1   7
BRANCH   4  18
ATOM     18  N   UNL d   1     -41.136-123.255 -50.425  0.00  0.00    -0.208 NA
ATOM     19  C   UNL d   1     -41.849-123.238 -50.005  0.00  0.00     0.285 C 
ATOM     20  O   UNL d   1     -42.558-123.123 -50.416  0.00  0.00    -0.265 OA
BRANCH  19  21
ATOM     21  C   UNL d   1     -41.848-123.335 -49.186  0.00  0.00     0.089 A 
ATOM     22  S   UNL d   1     -42.417-123.039 -48.657  0.00  0.00    -0.059 SA
ATOM     23  C   UNL d   1     -42.184-123.275 -47.898  0.00  0.00     0.156 A 
ATOM     24  C   UNL d   1     -41.480-123.709 -47.966  0.00  0.00     0.031 A 
ATOM     25  C   UNL d   1     -41.286-123.738 -48.755  0.00  0.00     0.014 A 
BRANCH  23  26
ATOM     26  N   UNL d   1     -42.598-123.098 -47.192  0.00  0.00    -0.107 N 
ATOM     27  O   UNL d   1     -42.723-122.313 -46.961  0.00  0.00    -0.531 OA
ATOM     28  O   UNL d   1     -42.884-123.720 -46.725  0.00  0.00    -0.531 OA
ENDBRANCH  23  26
ENDBRANCH  19  21
ENDBRANCH   4  18
TORSDOF 6
ENDMDL
MODEL 2
REMARK VINA RESULT:      -3.7      1.487      6.103
REMARK  6 active torsions:
REMARK  status: ('A' for Active; 'I' for Inactive)
REMARK    1  A    between atoms: N_4  and  S_1 
REMARK    2  A    between atoms: C_12  and  S_1 
REMARK    3  A    between atoms: N_3  and  C_2 
REMARK    4  A    between atoms: C_7  and  N_4 
REMARK    5  A    between atoms: C_6  and  C_8 
REMARK       I    between atoms: C_8  and  N_13 
REMARK    6  A    between atoms: N_13  and  C_22 
ROOT
ATOM      1  C   UNL d   1     -41.157-122.875 -50.742  0.00  0.00     0.106 A 
ATOM      2  C   UNL d   1     -41.181-123.518 -51.246  0.00  0.00     0.015 A 
ATOM      3  C   UNL d   1     -41.130-122.104 -51.037  0.00  0.00     0.015 A 
ATOM      4  C   UNL d   1     -41.150-122.627 -52.366  0.00  0.00     0.085 A 
ATOM      5  C   UNL d   1     -41.126-121.981 -51.853  0.00  0.00     0.020 A 
ATOM      6  C   UNL d   1     -41.177-123.395 -52.063  0.00  0.00     0.020 A 
ENDROOT
BRANCH   1   7
ATOM      7  S   UNL d   1     -41.161-122.998 -49.925  0.00  0.00     0.300 S 
ATOM      8  O   UNL d   1     -41.200-122.184 -49.794  0.00  0.00    -0.198 OA
ATOM      9  O   UNL d   1     -41.123-123.817 -50.043  0.00  0.00    -0.198 OA
BRANCH   7  10
ATOM     10  N   UNL d   1     -41.165-123.127 -49.104  0.00  0.00     0.034 NA
BRANCH  10  11
ATOM     11  C   UNL d   1     -41.870-123.305 -48.715  0.00  0.00     0.760 A 
ATOM     12  N   UNL d   1     -41.941-123.171 -47.890  0.00  0.00    -0.059 NA
ATOM     13  C   UNL d   1     -42.646-123.349 -47.500  0.00  0.00     0.102 A 
ATOM     14  C   UNL d   1     -42.716-123.217 -46.687  0.00  0.00     0.021 C 
ATOM     15  C   UNL d   1     -43.282-123.661 -47.925  0.00  0.00     0.041 A 
ATOM     16  C   UNL d   1     -43.211-123.795 -48.750  0.00  0.00     0.120 A 
ATOM     17  N   UNL d   1     -42.507-123.615 -49.131  0.00  0.00    -0.057 NA
ENDBRANCH  10  11
ENDBRANCH   7  10
ENDBRANCH   1   7
BRANCH   4  18
ATOM     18  N   UNL d   1     -41.146-122.500 -53.192  0.00  0.00    -0.208 NA
ATOM     19  C   UNL d   1     -41.853-122.352 -53.595  0.00  0.00     0.285 C 
ATOM     20  O   UNL d   1     -42.564-122.332 -53.171  0.00  0.00    -0.265 OA
BRANCH  19  21
ATOM     21  C   UNL d   1     -41.845-122.227 -54.410  0.00  0.00     0.089 A 
ATOM     22  S   UNL d   1     -42.510-122.096 -54.892  0.00  0.00    -0.059 SA
ATOM     23  C   UNL d   1     -42.229-122.000 -55.666  0.00  0.00     0.156 A 
ATOM     24  C   UNL d   1     -41.403-122.071 -55.653  0.00  0.00     0.031 A 
ATOM     25  C   UNL d   1     -41.182-122.209 -54.883  0.00  0.00     0.014 A 
BRANCH  23  26
ATOM     26  N   UNL d   1     -42.711-121.856 -56.336  0.00  0.00    -0.107 N 
ATOM     27  O   UNL d   1     -42.473-121.320 -56.920  0.00  0.00    -0.531 OA
ATOM     28  O   UNL d   1     -43.432-122.259 -56.408  0.00  0.00    -0.531 OA
ENDBRANCH  23  26
ENDBRANCH  19  21
ENDBRANCH   4  18
TORSDOF 6
ENDMDL
