MODEL 1
REMARK VINA RESULT:      84.2      0.000      0.000
REMARK  6 active torsions:
REMARK  status: ('A' for Active; 'I' for Inactive)
REMARK    1  A    between atoms: C_11  and  C_3 
REMARK    2  A    between atoms: C_12  and  C_4 
REMARK    3  A    between atoms: C_13  and  C_7 
REMARK    4  A    between atoms: N_15  and  C_11 
REMARK    5  A    between atoms: N_14  and  C_12 
REMARK    6  A    between atoms: O_24  and  C_21 
ROOT
ATOM      1  C   UNL d   1      14.202  15.388  -3.366  0.00  0.00     0.101 A 
ATOM      2  C   UNL d   1      13.653  14.972  -3.822  0.00  0.00     0.111 A 
ATOM      3  C   UNL d   1      13.331  14.266  -3.540  0.00  0.00     0.080 A 
ATOM      4  C   UNL d   1      14.108  14.401  -2.351  0.00  0.00     0.096 A 
ATOM      5  C   UNL d   1      14.522  16.098  -3.657  0.00  0.00     0.203 A 
ATOM      6  C   UNL d   1      14.427  15.098  -2.629  0.00  0.00     0.205 A 
ATOM      7  C   UNL d   1      14.294  16.386  -4.396  0.00  0.00     0.064 A 
ATOM      8  C   UNL d   1      13.559  13.984  -2.807  0.00  0.00     0.203 A 
ATOM      9  O   UNL d   1      13.417  15.254  -4.567  0.00  0.00    -0.305 OA
ATOM     10  C   UNL d   1      13.739  15.965  -4.857  0.00  0.00     0.126 A 
ATOM     11  O   UNL d   1      15.066  16.510  -3.206  0.00  0.00    -0.286 OA
ATOM     12  O   UNL d   1      14.976  15.514  -2.174  0.00  0.00    -0.286 OA
ATOM     13  O   UNL d   1      13.236  13.273  -2.518  0.00  0.00    -0.286 OA
ENDROOT
BRANCH   7  14
ATOM     14  C   UNL d   1      14.616  17.091  -4.679  0.00  0.00     0.005 A 
ATOM     15  C   UNL d   1      14.119  17.648  -5.039  0.00  0.00     0.002 A 
ATOM     16  C   UNL d   1      14.441  18.353  -5.321  0.00  0.00     0.024 A 
ATOM     17  C   UNL d   1      15.250  18.504  -5.246  0.00  0.00     0.094 A 
ATOM     18  C   UNL d   1      15.738  17.944  -4.886  0.00  0.00     0.024 A 
ATOM     19  C   UNL d   1      15.426  17.237  -4.601  0.00  0.00     0.002 A 
BRANCH  17  20
ATOM     20  O   UNL d   1      15.572  19.209  -5.528  0.00  0.00    -0.328 OA
ATOM     21  C   UNL d   1      15.075  19.781  -5.859  0.00  0.00     0.181 C 
ENDBRANCH  17  20
ENDBRANCH   7  14
BRANCH   3  22
ATOM     22  C   UNL d   1      12.782  13.856  -4.002  0.00  0.00     0.085 C 
BRANCH  22  23
ATOM     23  N   UNL d   1      13.034  13.191  -4.436  0.00  0.00    -0.302 N 
ATOM     24  C   UNL d   1      13.545  13.289  -5.079  0.00  0.00     0.080 A 
ATOM     25  C   UNL d   1      13.790  12.632  -5.504  0.00  0.00     0.019 A 
ATOM     26  C   UNL d   1      13.528  11.873  -5.291  0.00  0.00     0.003 A 
ATOM     27  C   UNL d   1      13.020  11.779  -4.651  0.00  0.00     0.019 A 
ATOM     28  C   UNL d   1      12.769  12.436  -4.219  0.00  0.00     0.080 A 
ENDBRANCH  22  23
ENDBRANCH   3  22
BRANCH   4  29
ATOM     29  C   UNL d   1      14.336  14.112  -1.612  0.00  0.00     0.087 C 
BRANCH  29  30
ATOM     30  N   UNL d   1      14.606  13.336  -1.536  0.00  0.00    -0.302 N 
ATOM     31  C   UNL d   1      15.342  13.121  -1.843  0.00  0.00     0.080 A 
ATOM     32  C   UNL d   1      15.612  12.344  -1.766  0.00  0.00     0.019 A 
ATOM     33  C   UNL d   1      15.144  11.779  -1.381  0.00  0.00     0.003 A 
ATOM     34  C   UNL d   1      14.408  11.994  -1.074  0.00  0.00     0.019 A 
ATOM     35  C   UNL d   1      14.138  12.771  -1.150  0.00  0.00     0.080 A 
ENDBRANCH  29  30
ENDBRANCH   4  29
TORSDOF 6
ENDMDL
