MODEL 1
REMARK VINA RESULT:      -6.5      0.000      0.000
REMARK  4 active torsions:
REMARK  status: ('A' for Active; 'I' for Inactive)
REMARK    1  A    between atoms: C_2  and  C_3 
REMARK    2  A    between atoms: N_4  and  C_2 
REMARK    3  A    between atoms: C_12  and  N_4 
REMARK    4  A    between atoms: N_8  and  C_7 
ROOT
ATOM      1  C   UNL d   1     -41.490-122.730 -51.851  0.00  0.00     0.153 C 
ATOM      2  S   UNL d   1     -41.148-122.085 -51.468  0.00  0.00    -0.056 SA
ENDROOT
BRANCH   1   3
ATOM      3  C   UNL d   1     -41.497-122.758 -52.674  0.00  0.00     0.109 A 
ATOM      4  N   UNL d   1     -41.876-122.165 -53.107  0.00  0.00    -0.243 NA
ATOM      5  C   UNL d   1     -41.883-122.194 -53.929  0.00  0.00     0.081 A 
ATOM      6  C   UNL d   1     -41.511-122.816 -54.323  0.00  0.00     0.018 A 
ATOM      7  C   UNL d   1     -42.264-121.599 -54.365  0.00  0.00     0.019 A 
ATOM      8  C   UNL d   1     -41.130-123.411 -53.897  0.00  0.00     0.003 A 
ATOM      9  C   UNL d   1     -41.519-122.842 -55.154  0.00  0.00     0.002 A 
ATOM     10  C   UNL d   1     -41.123-123.384 -53.071  0.00  0.00     0.021 A 
ATOM     11  C   UNL d   1     -41.898-122.250 -55.581  0.00  0.00     0.000 A 
ATOM     12  C   UNL d   1     -42.270-121.628 -55.187  0.00  0.00     0.002 A 
ENDBRANCH   1   3
BRANCH   1  13
ATOM     13  N   UNL d   1     -41.825-123.344 -51.414  0.00  0.00    -0.233 NA
BRANCH  13  14
ATOM     14  C   UNL d   1     -41.819-123.312 -50.593  0.00  0.00     0.083 A 
ATOM     15  C   UNL d   1     -41.319-123.817 -50.169  0.00  0.00     0.021 A 
ATOM     16  C   UNL d   1     -41.315-123.784 -49.347  0.00  0.00     0.019 A 
ATOM     17  C   UNL d   1     -41.811-123.245 -48.948  0.00  0.00     0.064 A 
ATOM     18  C   UNL d   1     -42.305-122.745 -49.377  0.00  0.00     0.019 A 
ATOM     19  C   UNL d   1     -42.310-122.779 -50.199  0.00  0.00     0.021 A 
BRANCH  17  20
ATOM     20  N   UNL d   1     -41.803-123.215 -48.115  0.00  0.00    -0.301 N 
ATOM     21  C   UNL d   1     -42.476-122.989 -47.712  0.00  0.00     0.100 C 
ATOM     22  C   UNL d   1     -41.123-123.412 -47.703  0.00  0.00     0.100 C 
ENDBRANCH  17  20
ENDBRANCH  13  14
ENDBRANCH   1  13
TORSDOF 4
ENDMDL
MODEL 2
REMARK VINA RESULT:      -4.9      0.891      5.014
REMARK  4 active torsions:
REMARK  status: ('A' for Active; 'I' for Inactive)
REMARK    1  A    between atoms: C_2  and  C_3 
REMARK    2  A    between atoms: N_4  and  C_2 
REMARK    3  A    between atoms: C_12  and  N_4 
REMARK    4  A    between atoms: N_8  and  C_7 
ROOT
ATOM      1  C   UNL d   1     -41.485-122.616 -51.842  0.00  0.00     0.153 C 
ATOM      2  S   UNL d   1     -41.407-121.804 -51.960  0.00  0.00    -0.056 SA
ENDROOT
BRANCH   1   3
ATOM      3  C   UNL d   1     -41.600-122.908 -51.080  0.00  0.00     0.109 A 
ATOM      4  N   UNL d   1     -42.189-122.588 -50.597  0.00  0.00    -0.243 NA
ATOM      5  C   UNL d   1     -42.303-122.880 -49.837  0.00  0.00     0.081 A 
ATOM      6  C   UNL d   1     -41.829-123.493 -49.554  0.00  0.00     0.018 A 
ATOM      7  C   UNL d   1     -42.895-122.559 -49.350  0.00  0.00     0.019 A 
ATOM      8  C   UNL d   1     -41.239-123.817 -50.031  0.00  0.00     0.003 A 
ATOM      9  C   UNL d   1     -41.946-123.786 -48.786  0.00  0.00     0.002 A 
ATOM     10  C   UNL d   1     -41.123-123.525 -50.796  0.00  0.00     0.021 A 
ATOM     11  C   UNL d   1     -42.534-123.465 -48.307  0.00  0.00     0.000 A 
ATOM     12  C   UNL d   1     -43.008-122.851 -48.589  0.00  0.00     0.002 A 
ENDBRANCH   1   3
BRANCH   1  13
ATOM     13  N   UNL d   1     -41.450-123.135 -52.482  0.00  0.00    -0.233 NA
BRANCH  13  14
ATOM     14  C   UNL d   1     -41.620-122.864 -53.238  0.00  0.00     0.083 A 
ATOM     15  C   UNL d   1     -41.206-123.171 -53.885  0.00  0.00     0.021 A 
ATOM     16  C   UNL d   1     -41.377-122.898 -54.642  0.00  0.00     0.019 A 
ATOM     17  C   UNL d   1     -41.965-122.316 -54.752  0.00  0.00     0.064 A 
ATOM     18  C   UNL d   1     -42.373-122.015 -54.105  0.00  0.00     0.019 A 
ATOM     19  C   UNL d   1     -42.201-122.288 -53.347  0.00  0.00     0.021 A 
BRANCH  17  20
ATOM     20  N   UNL d   1     -42.134-122.043 -55.522  0.00  0.00    -0.301 N 
ATOM     21  C   UNL d   1     -42.823-122.281 -55.892  0.00  0.00     0.100 C 
ATOM     22  C   UNL d   1     -41.614-121.539 -55.904  0.00  0.00     0.100 C 
ENDBRANCH  17  20
ENDBRANCH  13  14
ENDBRANCH   1  13
TORSDOF 4
ENDMDL
