MODEL 1
REMARK VINA RESULT:      -8.4      0.000      0.000
REMARK  3 active torsions:
REMARK  status: ('A' for Active; 'I' for Inactive)
REMARK    1  A    between atoms: C_12  and  C_4 
REMARK    2  A    between atoms: O_13  and  C_7 
REMARK    3  A    between atoms: O_14  and  C_10 
ROOT
ATOM      1  C   UNL d   1     -47.192  13.707  22.899  0.00  0.00     0.084 A 
ATOM      2  C   UNL d   1     -47.308  14.479  22.631  0.00  0.00     0.201 A 
ATOM      3  C   UNL d   1     -48.064  14.807  22.657  0.00  0.00     0.067 A 
ATOM      4  C   UNL d   1     -48.702  14.365  22.948  0.00  0.00     0.103 A 
ATOM      5  C   UNL d   1     -47.831  13.266  23.191  0.00  0.00     0.107 A 
ATOM      6  O   UNL d   1     -48.584  13.596  23.214  0.00  0.00    -0.307 OA
ATOM      7  C   UNL d   1     -46.436  13.379  22.874  0.00  0.00     0.101 A 
ATOM      8  C   UNL d   1     -47.708  12.499  23.455  0.00  0.00     0.049 A 
ATOM      9  C   UNL d   1     -46.321  12.607  23.141  0.00  0.00     0.049 A 
ATOM     10  C   UNL d   1     -46.951  12.171  23.429  0.00  0.00     0.098 A 
ATOM     11  O   UNL d   1     -46.675  14.911  22.344  0.00  0.00    -0.286 OA
ENDROOT
BRANCH   4  12
ATOM     12  C   UNL d   1     -49.451  14.699  22.970  0.00  0.00     0.023 A 
ATOM     13  C   UNL d   1     -49.635  15.247  23.549  0.00  0.00     0.002 A 
ATOM     14  C   UNL d   1     -50.386  15.587  23.578  0.00  0.00     0.000 A 
ATOM     15  C   UNL d   1     -50.960  15.368  23.014  0.00  0.00     0.000 A 
ATOM     16  C   UNL d   1     -50.767  14.819  22.439  0.00  0.00     0.000 A 
ATOM     17  C   UNL d   1     -50.016  14.479  22.410  0.00  0.00     0.002 A 
ENDBRANCH   4  12
BRANCH   7  18
ATOM     18  O   UNL d   1     -45.806  13.815  22.585  0.00  0.00    -0.328 OA
ATOM     19  C   UNL d   1     -45.142  13.429  22.297  0.00  0.00     0.181 C 
ENDBRANCH   7  18
BRANCH  10  20
ATOM     20  O   UNL d   1     -46.836  11.398  23.697  0.00  0.00    -0.328 OA
ATOM     21  C   UNL d   1     -47.462  10.862  23.666  0.00  0.00     0.181 C 
ENDBRANCH  10  20
TORSDOF 3
ENDMDL
MODEL 2
REMARK VINA RESULT:      -7.7      1.215      4.149
REMARK  3 active torsions:
REMARK  status: ('A' for Active; 'I' for Inactive)
REMARK    1  A    between atoms: C_12  and  C_4 
REMARK    2  A    between atoms: O_13  and  C_7 
REMARK    3  A    between atoms: O_14  and  C_10 
ROOT
ATOM      1  C   UNL d   1     -48.994  13.688  22.157  0.00  0.00     0.084 A 
ATOM      2  C   UNL d   1     -48.729  12.956  21.884  0.00  0.00     0.201 A 
ATOM      3  C   UNL d   1     -47.939  12.745  21.995  0.00  0.00     0.067 A 
ATOM      4  C   UNL d   1     -47.417  13.263  22.377  0.00  0.00     0.103 A 
ATOM      5  C   UNL d   1     -48.472  14.206  22.538  0.00  0.00     0.107 A 
ATOM      6  O   UNL d   1     -47.685  13.993  22.647  0.00  0.00    -0.307 OA
ATOM      7  C   UNL d   1     -49.784  13.899  22.046  0.00  0.00     0.101 A 
ATOM      8  C   UNL d   1     -48.743  14.932  22.807  0.00  0.00     0.049 A 
ATOM      9  C   UNL d   1     -50.049  14.631  22.318  0.00  0.00     0.049 A 
ATOM     10  C   UNL d   1     -49.533  15.143  22.695  0.00  0.00     0.098 A 
ATOM     11  O   UNL d   1     -49.248  12.447  21.507  0.00  0.00    -0.286 OA
ENDROOT
BRANCH   4  12
ATOM     12  C   UNL d   1     -46.634  13.047  22.484  0.00  0.00     0.023 A 
ATOM     13  C   UNL d   1     -46.447  12.439  22.999  0.00  0.00     0.002 A 
ATOM     14  C   UNL d   1     -45.661  12.215  23.112  0.00  0.00     0.000 A 
ATOM     15  C   UNL d   1     -45.056  12.611  22.697  0.00  0.00     0.000 A 
ATOM     16  C   UNL d   1     -45.252  13.217  22.184  0.00  0.00     0.000 A 
ATOM     17  C   UNL d   1     -46.038  13.441  22.071  0.00  0.00     0.002 A 
ENDBRANCH   4  12
BRANCH   7  18
ATOM     18  O   UNL d   1     -50.299  13.387  21.668  0.00  0.00    -0.328 OA
ATOM     19  C   UNL d   1     -50.956  13.685  21.278  0.00  0.00     0.181 C 
ENDBRANCH   7  18
BRANCH  10  20
ATOM     20  O   UNL d   1     -49.799  15.876  22.968  0.00  0.00    -0.328 OA
ATOM     21  C   UNL d   1     -50.182  15.921  23.698  0.00  0.00     0.181 C 
ENDBRANCH  10  20
TORSDOF 3
ENDMDL
MODEL 3
REMARK VINA RESULT:      -7.7      1.366      3.733
REMARK  3 active torsions:
REMARK  status: ('A' for Active; 'I' for Inactive)
REMARK    1  A    between atoms: C_12  and  C_4 
REMARK    2  A    between atoms: O_13  and  C_7 
REMARK    3  A    between atoms: O_14  and  C_10 
ROOT
ATOM      1  C   UNL d   1     -49.245  14.083  22.991  0.00  0.00     0.084 A 
ATOM      2  C   UNL d   1     -48.639  14.640  22.929  0.00  0.00     0.201 A 
ATOM      3  C   UNL d   1     -47.860  14.383  22.847  0.00  0.00     0.067 A 
ATOM      4  C   UNL d   1     -47.687  13.573  22.828  0.00  0.00     0.103 A 
ATOM      5  C   UNL d   1     -49.071  13.273  22.972  0.00  0.00     0.107 A 
ATOM      6  O   UNL d   1     -48.293  13.020  22.890  0.00  0.00    -0.307 OA
ATOM      7  C   UNL d   1     -50.024  14.340  23.073  0.00  0.00     0.101 A 
ATOM      8  C   UNL d   1     -49.678  12.725  23.034  0.00  0.00     0.049 A 
ATOM      9  C   UNL d   1     -50.629  13.783  23.135  0.00  0.00     0.049 A 
ATOM     10  C   UNL d   1     -50.458  12.983  23.116  0.00  0.00     0.098 A 
ATOM     11  O   UNL d   1     -48.816  15.440  22.949  0.00  0.00    -0.286 OA
ENDROOT
BRANCH   4  12
ATOM     12  C   UNL d   1     -46.909  13.325  22.746  0.00  0.00     0.023 A 
ATOM     13  C   UNL d   1     -46.586  12.814  23.298  0.00  0.00     0.002 A 
ATOM     14  C   UNL d   1     -45.804  12.560  23.223  0.00  0.00     0.000 A 
ATOM     15  C   UNL d   1     -45.344  12.827  22.581  0.00  0.00     0.000 A 
ATOM     16  C   UNL d   1     -45.676  13.337  22.035  0.00  0.00     0.000 A 
ATOM     17  C   UNL d   1     -46.457  13.591  22.109  0.00  0.00     0.002 A 
ENDBRANCH   4  12
BRANCH   7  18
ATOM     18  O   UNL d   1     -50.195  15.141  23.092  0.00  0.00    -0.328 OA
ATOM     19  C   UNL d   1     -50.972  15.389  23.182  0.00  0.00     0.181 C 
ENDBRANCH   7  18
BRANCH  10  20
ATOM     20  O   UNL d   1     -51.064  12.425  23.179  0.00  0.00    -0.328 OA
ATOM     21  C   UNL d   1     -50.975  11.787  23.695  0.00  0.00     0.181 C 
ENDBRANCH  10  20
TORSDOF 3
ENDMDL
MODEL 4
REMARK VINA RESULT:      -7.2      1.493      1.835
REMARK  3 active torsions:
REMARK  status: ('A' for Active; 'I' for Inactive)
REMARK    1  A    between atoms: C_12  and  C_4 
REMARK    2  A    between atoms: O_13  and  C_7 
REMARK    3  A    between atoms: O_14  and  C_10 
ROOT
ATOM      1  C   UNL d   1     -46.961  12.852  23.014  0.00  0.00     0.084 A 
ATOM      2  C   UNL d   1     -47.482  13.449  22.788  0.00  0.00     0.201 A 
ATOM      3  C   UNL d   1     -48.295  13.309  22.812  0.00  0.00     0.067 A 
ATOM      4  C   UNL d   1     -48.585  12.573  23.061  0.00  0.00     0.103 A 
ATOM      5  C   UNL d   1     -47.251  12.116  23.263  0.00  0.00     0.107 A 
ATOM      6  O   UNL d   1     -48.062  11.979  23.286  0.00  0.00    -0.307 OA
ATOM      7  C   UNL d   1     -46.149  12.992  22.990  0.00  0.00     0.101 A 
ATOM      8  C   UNL d   1     -46.727  11.526  23.487  0.00  0.00     0.049 A 
ATOM      9  C   UNL d   1     -45.628  12.395  23.217  0.00  0.00     0.049 A 
ATOM     10  C   UNL d   1     -45.914  11.668  23.463  0.00  0.00     0.098 A 
ATOM     11  O   UNL d   1     -47.191  14.174  22.543  0.00  0.00    -0.286 OA
ENDROOT
BRANCH   4  12
ATOM     12  C   UNL d   1     -49.394  12.440  23.082  0.00  0.00     0.023 A 
ATOM     13  C   UNL d   1     -49.712  11.969  23.669  0.00  0.00     0.002 A 
ATOM     14  C   UNL d   1     -50.525  11.830  23.698  0.00  0.00     0.000 A 
ATOM     15  C   UNL d   1     -51.022  12.174  23.123  0.00  0.00     0.000 A 
ATOM     16  C   UNL d   1     -50.694  12.644  22.540  0.00  0.00     0.000 A 
ATOM     17  C   UNL d   1     -49.881  12.783  22.512  0.00  0.00     0.002 A 
ENDBRANCH   4  12
BRANCH   7  18
ATOM     18  O   UNL d   1     -45.863  13.719  22.744  0.00  0.00    -0.328 OA
ATOM     19  C   UNL d   1     -45.176  13.756  22.297  0.00  0.00     0.181 C 
ENDBRANCH   7  18
BRANCH  10  20
ATOM     20  O   UNL d   1     -45.392  11.069  23.689  0.00  0.00    -0.328 OA
ATOM     21  C   UNL d   1     -45.654  10.287  23.698  0.00  0.00     0.181 C 
ENDBRANCH  10  20
TORSDOF 3
ENDMDL
MODEL 5
REMARK VINA RESULT:      -6.4      1.661      4.761
REMARK  3 active torsions:
REMARK  status: ('A' for Active; 'I' for Inactive)
REMARK    1  A    between atoms: C_12  and  C_4 
REMARK    2  A    between atoms: O_13  and  C_7 
REMARK    3  A    between atoms: O_14  and  C_10 
ROOT
ATOM      1  C   UNL d   1     -47.273  12.329  23.340  0.00  0.00     0.084 A 
ATOM      2  C   UNL d   1     -47.243  11.519  23.492  0.00  0.00     0.201 A 
ATOM      3  C   UNL d   1     -46.514  11.133  23.487  0.00  0.00     0.067 A 
ATOM      4  C   UNL d   1     -45.818  11.556  23.332  0.00  0.00     0.103 A 
ATOM      5  C   UNL d   1     -46.577  12.751  23.185  0.00  0.00     0.107 A 
ATOM      6  O   UNL d   1     -45.852  12.364  23.182  0.00  0.00    -0.307 OA
ATOM      7  C   UNL d   1     -48.002  12.714  23.345  0.00  0.00     0.101 A 
ATOM      8  C   UNL d   1     -46.615  13.557  23.036  0.00  0.00     0.049 A 
ATOM      9  C   UNL d   1     -48.032  13.524  23.193  0.00  0.00     0.049 A 
ATOM     10  C   UNL d   1     -47.345  13.942  23.040  0.00  0.00     0.098 A 
ATOM     11  O   UNL d   1     -47.933  11.105  23.644  0.00  0.00    -0.286 OA
ENDROOT
BRANCH   4  12
ATOM     12  C   UNL d   1     -45.097  11.165  23.329  0.00  0.00     0.023 A 
ATOM     13  C   UNL d   1     -45.039  10.417  23.654  0.00  0.00     0.002 A 
ATOM     14  C   UNL d   1     -44.317  10.017  23.656  0.00  0.00     0.000 A 
ATOM     15  C   UNL d   1     -43.644  10.381  23.323  0.00  0.00     0.000 A 
ATOM     16  C   UNL d   1     -43.712  11.129  23.001  0.00  0.00     0.000 A 
ATOM     17  C   UNL d   1     -44.434  11.529  22.999  0.00  0.00     0.002 A 
ENDBRANCH   4  12
BRANCH   7  18
ATOM     18  O   UNL d   1     -48.690  12.297  23.498  0.00  0.00    -0.328 OA
ATOM     19  C   UNL d   1     -49.381  12.701  23.675  0.00  0.00     0.181 C 
ENDBRANCH   7  18
BRANCH  10  20
ATOM     20  O   UNL d   1     -47.375  14.754  22.889  0.00  0.00    -0.328 OA
ATOM     21  C   UNL d   1     -47.316  15.022  22.111  0.00  0.00     0.181 C 
ENDBRANCH  10  20
TORSDOF 3
ENDMDL
MODEL 6
REMARK VINA RESULT:      -6.3      8.670      9.858
REMARK  3 active torsions:
REMARK  status: ('A' for Active; 'I' for Inactive)
REMARK    1  A    between atoms: C_12  and  C_4 
REMARK    2  A    between atoms: O_13  and  C_7 
REMARK    3  A    between atoms: O_14  and  C_10 
ROOT
ATOM      1  C   UNL d   1     -39.482  15.270  17.928  0.00  0.00     0.084 A 
ATOM      2  C   UNL d   1     -38.803  15.285  18.394  0.00  0.00     0.201 A 
ATOM      3  C   UNL d   1     -38.875  15.268  19.216  0.00  0.00     0.067 A 
ATOM      4  C   UNL d   1     -39.625  15.236  19.569  0.00  0.00     0.103 A 
ATOM      5  C   UNL d   1     -40.232  15.238  18.281  0.00  0.00     0.107 A 
ATOM      6  O   UNL d   1     -40.301  15.221  19.100  0.00  0.00    -0.307 OA
ATOM      7  C   UNL d   1     -39.410  15.286  17.106  0.00  0.00     0.101 A 
ATOM      8  C   UNL d   1     -40.903  15.223  17.810  0.00  0.00     0.049 A 
ATOM      9  C   UNL d   1     -40.090  15.271  16.640  0.00  0.00     0.049 A 
ATOM     10  C   UNL d   1     -40.830  15.240  16.989  0.00  0.00     0.098 A 
ATOM     11  O   UNL d   1     -38.065  15.316  18.041  0.00  0.00    -0.286 OA
ENDROOT
BRANCH   4  12
ATOM     12  C   UNL d   1     -39.689  15.220  20.386  0.00  0.00     0.023 A 
ATOM     13  C   UNL d   1     -39.731  15.922  20.804  0.00  0.00     0.002 A 
ATOM     14  C   UNL d   1     -39.795  15.914  21.627  0.00  0.00     0.000 A 
ATOM     15  C   UNL d   1     -39.818  15.186  22.032  0.00  0.00     0.000 A 
ATOM     16  C   UNL d   1     -39.776  14.489  21.605  0.00  0.00     0.000 A 
ATOM     17  C   UNL d   1     -39.711  14.497  20.783  0.00  0.00     0.002 A 
ENDBRANCH   4  12
BRANCH   7  18
ATOM     18  O   UNL d   1     -38.670  15.318  16.757  0.00  0.00    -0.328 OA
ATOM     19  C   UNL d   1     -38.603  15.279  15.941  0.00  0.00     0.181 C 
ENDBRANCH   7  18
BRANCH  10  20
ATOM     20  O   UNL d   1     -41.511  15.225  16.521  0.00  0.00    -0.328 OA
ATOM     21  C   UNL d   1     -41.937  15.922  16.406  0.00  0.00     0.181 C 
ENDBRANCH  10  20
TORSDOF 3
ENDMDL
MODEL 7
REMARK VINA RESULT:      -6.3      1.462      4.099
REMARK  3 active torsions:
REMARK  status: ('A' for Active; 'I' for Inactive)
REMARK    1  A    between atoms: C_12  and  C_4 
REMARK    2  A    between atoms: O_13  and  C_7 
REMARK    3  A    between atoms: O_14  and  C_10 
ROOT
ATOM      1  C   UNL d   1     -47.624  13.065  23.048  0.00  0.00     0.084 A 
ATOM      2  C   UNL d   1     -46.870  13.335  22.847  0.00  0.00     0.201 A 
ATOM      3  C   UNL d   1     -46.226  12.824  22.916  0.00  0.00     0.067 A 
ATOM      4  C   UNL d   1     -46.335  12.047  23.183  0.00  0.00     0.103 A 
ATOM      5  C   UNL d   1     -47.732  12.288  23.315  0.00  0.00     0.107 A 
ATOM      6  O   UNL d   1     -47.087  11.781  23.382  0.00  0.00    -0.307 OA
ATOM      7  C   UNL d   1     -48.268  13.575  22.979  0.00  0.00     0.101 A 
ATOM      8  C   UNL d   1     -48.484  12.027  23.513  0.00  0.00     0.049 A 
ATOM      9  C   UNL d   1     -49.021  13.306  23.180  0.00  0.00     0.049 A 
ATOM     10  C   UNL d   1     -49.128  12.538  23.444  0.00  0.00     0.098 A 
ATOM     11  O   UNL d   1     -46.768  14.103  22.583  0.00  0.00    -0.286 OA
ENDROOT
BRANCH   4  12
ATOM     12  C   UNL d   1     -45.689  11.545  23.248  0.00  0.00     0.023 A 
ATOM     13  C   UNL d   1     -45.772  10.825  23.627  0.00  0.00     0.002 A 
ATOM     14  C   UNL d   1     -45.128  10.315  23.697  0.00  0.00     0.000 A 
ATOM     15  C   UNL d   1     -44.389  10.536  23.379  0.00  0.00     0.000 A 
ATOM     16  C   UNL d   1     -44.317  11.258  23.002  0.00  0.00     0.000 A 
ATOM     17  C   UNL d   1     -44.961  11.769  22.932  0.00  0.00     0.002 A 
ENDBRANCH   4  12
BRANCH   7  18
ATOM     18  O   UNL d   1     -48.160  14.343  22.715  0.00  0.00    -0.328 OA
ATOM     19  C   UNL d   1     -48.811  14.832  22.610  0.00  0.00     0.181 C 
ENDBRANCH   7  18
BRANCH  10  20
ATOM     20  O   UNL d   1     -49.882  12.267  23.645  0.00  0.00    -0.328 OA
ATOM     21  C   UNL d   1     -50.193  11.609  23.255  0.00  0.00     0.181 C 
ENDBRANCH  10  20
TORSDOF 3
ENDMDL
MODEL 8
REMARK VINA RESULT:      -6.2      8.580      9.613
REMARK  3 active torsions:
REMARK  status: ('A' for Active; 'I' for Inactive)
REMARK    1  A    between atoms: C_12  and  C_4 
REMARK    2  A    between atoms: O_13  and  C_7 
REMARK    3  A    between atoms: O_14  and  C_10 
ROOT
ATOM      1  C   UNL d   1     -40.195  14.947  18.637  0.00  0.00     0.084 A 
ATOM      2  C   UNL d   1     -40.563  15.401  19.218  0.00  0.00     0.201 A 
ATOM      3  C   UNL d   1     -40.324  15.325  20.004  0.00  0.00     0.067 A 
ATOM      4  C   UNL d   1     -39.719  14.796  20.207  0.00  0.00     0.103 A 
ATOM      5  C   UNL d   1     -39.590  14.418  18.840  0.00  0.00     0.107 A 
ATOM      6  O   UNL d   1     -39.353  14.344  19.625  0.00  0.00    -0.307 OA
ATOM      7  C   UNL d   1     -40.434  15.023  17.851  0.00  0.00     0.101 A 
ATOM      8  C   UNL d   1     -39.228  13.969  18.257  0.00  0.00     0.049 A 
ATOM      9  C   UNL d   1     -40.066  14.569  17.270  0.00  0.00     0.049 A 
ATOM     10  C   UNL d   1     -39.468  14.046  17.471  0.00  0.00     0.098 A 
ATOM     11  O   UNL d   1     -41.161  15.922  19.013  0.00  0.00    -0.286 OA
ENDROOT
BRANCH   4  12
ATOM     12  C   UNL d   1     -39.486  14.725  20.990  0.00  0.00     0.023 A 
ATOM     13  C   UNL d   1     -39.670  14.047  21.409  0.00  0.00     0.002 A 
ATOM     14  C   UNL d   1     -39.439  13.968  22.197  0.00  0.00     0.000 A 
ATOM     15  C   UNL d   1     -39.017  14.585  22.567  0.00  0.00     0.000 A 
ATOM     16  C   UNL d   1     -38.838  15.259  22.140  0.00  0.00     0.000 A 
ATOM     17  C   UNL d   1     -39.068  15.338  21.352  0.00  0.00     0.002 A 
ENDBRANCH   4  12
BRANCH   7  18
ATOM     18  O   UNL d   1     -41.032  15.545  17.651  0.00  0.00    -0.328 OA
ATOM     19  C   UNL d   1     -41.281  15.599  16.871  0.00  0.00     0.181 C 
ENDBRANCH   7  18
BRANCH  10  20
ATOM     20  O   UNL d   1     -39.099  13.591  16.889  0.00  0.00    -0.328 OA
ATOM     21  C   UNL d   1     -38.313  13.748  16.691  0.00  0.00     0.181 C 
ENDBRANCH  10  20
TORSDOF 3
ENDMDL
MODEL 9
REMARK VINA RESULT:      -5.7      7.757     10.048
REMARK  3 active torsions:
REMARK  status: ('A' for Active; 'I' for Inactive)
REMARK    1  A    between atoms: C_12  and  C_4 
REMARK    2  A    between atoms: O_13  and  C_7 
REMARK    3  A    between atoms: O_14  and  C_10 
ROOT
ATOM      1  C   UNL d   1     -39.882  14.672  19.740  0.00  0.00     0.084 A 
ATOM      2  C   UNL d   1     -40.221  14.752  18.993  0.00  0.00     0.201 A 
ATOM      3  C   UNL d   1     -39.828  14.448  18.334  0.00  0.00     0.067 A 
ATOM      4  C   UNL d   1     -39.099  14.065  18.423  0.00  0.00     0.103 A 
ATOM      5  C   UNL d   1     -39.152  14.288  19.828  0.00  0.00     0.107 A 
ATOM      6  O   UNL d   1     -38.763  13.986  19.170  0.00  0.00    -0.307 OA
ATOM      7  C   UNL d   1     -40.274  14.976  20.398  0.00  0.00     0.101 A 
ATOM      8  C   UNL d   1     -38.820  14.212  20.575  0.00  0.00     0.049 A 
ATOM      9  C   UNL d   1     -39.935  14.896  21.145  0.00  0.00     0.049 A 
ATOM     10  C   UNL d   1     -39.214  14.517  21.233  0.00  0.00     0.098 A 
ATOM     11  O   UNL d   1     -40.942  15.132  18.910  0.00  0.00    -0.286 OA
ENDROOT
BRANCH   4  12
ATOM     12  C   UNL d   1     -38.714  13.764  17.764  0.00  0.00     0.023 A 
ATOM     13  C   UNL d   1     -38.329  14.273  17.252  0.00  0.00     0.002 A 
ATOM     14  C   UNL d   1     -37.940  13.979  16.587  0.00  0.00     0.000 A 
ATOM     15  C   UNL d   1     -37.940  13.159  16.438  0.00  0.00     0.000 A 
ATOM     16  C   UNL d   1     -38.328  12.658  16.955  0.00  0.00     0.000 A 
ATOM     17  C   UNL d   1     -38.717  12.952  17.621  0.00  0.00     0.002 A 
ENDBRANCH   4  12
BRANCH   7  18
ATOM     18  O   UNL d   1     -40.995  15.355  20.310  0.00  0.00    -0.328 OA
ATOM     19  C   UNL d   1     -41.227  15.920  20.857  0.00  0.00     0.181 C 
ENDBRANCH   7  18
BRANCH  10  20
ATOM     20  O   UNL d   1     -38.874  14.436  21.981  0.00  0.00    -0.328 OA
ATOM     21  C   UNL d   1     -38.942  13.717  22.380  0.00  0.00     0.181 C 
ENDBRANCH  10  20
TORSDOF 3
ENDMDL
