MODEL 1
REMARK VINA RESULT:      75.7      0.000      0.000
REMARK  3 active torsions:
REMARK  status: ('A' for Active; 'I' for Inactive)
REMARK    1  A    between atoms: C_11  and  C_8 
REMARK       I    between atoms: N_14  and  C_11 
REMARK    2  A    between atoms: C_20  and  N_14 
REMARK    3  A    between atoms: C_21  and  C_20 
ROOT
ATOM      1  C   UNL d   1     -47.941  30.220  34.957  0.00  0.00     0.154 A 
ATOM      2  C   UNL d   1     -48.568  30.303  34.428  0.00  0.00     0.093 A 
ATOM      3  N   UNL d   1     -47.413  30.849  35.074  0.00  0.00    -0.210 NA
ATOM      4  N   UNL d   1     -48.141  31.639  34.134  0.00  0.00    -0.258 N 
ATOM      5  C   UNL d   1     -48.667  31.017  34.015  0.00  0.00     0.269 A 
ATOM      6  N   UNL d   1     -47.977  29.466  35.283  0.00  0.00    -0.285 N 
ATOM      7  C   UNL d   1     -47.514  31.556  34.664  0.00  0.00     0.152 A 
ATOM      8  C   UNL d   1     -48.625  29.079  34.958  0.00  0.00     0.124 A 
ATOM      9  C   UNL d   1     -48.990  29.602  34.428  0.00  0.00     0.030 A 
ATOM     10  C   UNL d   1     -48.243  32.345  33.723  0.00  0.00     0.084 A 
ATOM     11  C   UNL d   1     -46.989  32.178  34.782  0.00  0.00     0.038 A 
ATOM     12  C   UNL d   1     -47.717  32.968  33.842  0.00  0.00     0.018 A 
ATOM     13  C   UNL d   1     -47.089  32.884  34.371  0.00  0.00     0.005 A 
ATOM     14  O   UNL d   1     -49.294  31.101  33.486  0.00  0.00    -0.266 OA
ATOM     15  C   UNL d   1     -47.455  29.145  35.841  0.00  0.00     0.101 C 
ATOM     16  C   UNL d   1     -47.815  33.686  33.428  0.00  0.00     0.002 C 
ENDROOT
BRANCH   8  17
ATOM     17  C   UNL d   1     -48.868  28.310  35.130  0.00  0.00     0.295 C 
ATOM     18  N   UNL d   1     -49.172  27.832  34.526  0.00  0.00    -0.203 NA
ATOM     19  O   UNL d   1     -48.809  28.016  35.896  0.00  0.00    -0.264 OA
BRANCH  18  20
ATOM     20  C   UNL d   1     -49.415  27.062  34.694  0.00  0.00     0.127 C 
BRANCH  20  21
ATOM     21  C   UNL d   1     -49.955  26.684  34.200  0.00  0.00     0.119 A 
ATOM     22  O   UNL d   1     -50.761  26.820  34.047  0.00  0.00    -0.304 OA
ATOM     23  C   UNL d   1     -51.012  26.259  33.496  0.00  0.00     0.123 A 
ATOM     24  C   UNL d   1     -50.378  25.777  33.307  0.00  0.00     0.029 A 
ATOM     25  C   UNL d   1     -49.717  26.036  33.741  0.00  0.00     0.028 A 
ENDBRANCH  20  21
ENDBRANCH  18  20
ENDBRANCH   8  17
TORSDOF 3
ENDMDL
