MODEL 1
REMARK VINA RESULT:       7.7      0.000      0.000
REMARK  6 active torsions:
REMARK  status: ('A' for Active; 'I' for Inactive)
REMARK       I    between atoms: C_2  and  N_1 
REMARK    1  A    between atoms: C_5  and  N_1 
REMARK    2  A    between atoms: C_4  and  C_2 
REMARK    3  A    between atoms: C_3  and  C_6 
REMARK    4  A    between atoms: C_6  and  C_4 
REMARK    5  A    between atoms: O_11  and  C_7 
REMARK    6  A    between atoms: C_14  and  O_11 
ROOT
ATOM      1  C   UNL d   1      46.451 -18.609  43.805  0.00  0.00     0.107 A 
ATOM      2  C   UNL d   1      46.540 -19.034  43.097  0.00  0.00     0.118 A 
ATOM      3  C   UNL d   1      46.352 -18.990  44.501  0.00  0.00     0.021 A 
ATOM      4  C   UNL d   1      46.526 -19.859  43.115  0.00  0.00     0.026 A 
ATOM      5  C   UNL d   1      46.335 -19.819  44.537  0.00  0.00     0.002 A 
ATOM      6  C   UNL d   1      46.421 -20.252  43.860  0.00  0.00     0.002 A 
ENDROOT
BRANCH   1   7
ATOM      7  N   UNL d   1      46.465 -17.779  43.788  0.00  0.00    -0.206 NA
ATOM      8  C   UNL d   1      46.076 -17.341  44.366  0.00  0.00     0.280 C 
ATOM      9  O   UNL d   1      45.676 -17.715  44.954  0.00  0.00    -0.265 OA
BRANCH   8  10
ATOM     10  C   UNL d   1      46.092 -16.498  44.346  0.00  0.00     0.068 C 
BRANCH  10  11
ATOM     11  C   UNL d   1      45.547 -16.066  44.782  0.00  0.00     0.069 C 
BRANCH  11  12
ATOM     12  C   UNL d   1      45.488 -15.264  44.662  0.00  0.00     0.297 C 
ATOM     13  O   UNL d   1      44.843 -14.963  44.246  0.00  0.00    -0.264 OA
ATOM     14  N   UNL d   1      46.056 -14.741  44.945  0.00  0.00    -0.102 N 
ENDBRANCH  11  12
ENDBRANCH  10  11
ENDBRANCH   8  10
ENDBRANCH   1   7
BRANCH   2  15
ATOM     15  O   UNL d   1      46.644 -18.641  42.368  0.00  0.00    -0.304 OA
BRANCH  15  16
ATOM     16  C   UNL d   1      46.647 -19.075  41.654  0.00  0.00     0.123 C 
ATOM     17  C   UNL d   1      46.624 -18.649  40.940  0.00  0.00     0.029 C 
ENDBRANCH  15  16
ENDBRANCH   2  15
TORSDOF 6
ENDMDL
