MODEL 1
REMARK VINA RESULT:      12.8      0.000      0.000
REMARK  2 active torsions:
REMARK  status: ('A' for Active; 'I' for Inactive)
REMARK    1  A    between atoms: S_2  and  N_1 
REMARK    2  A    between atoms: C_8  and  S_2 
ROOT
ATOM      1  S   UNL d   1     -54.862-102.066 -37.961  0.00  0.00     0.273 S 
ATOM      2  O   UNL d   1     -54.970-102.879 -37.918  0.00  0.00    -0.200 OA
ATOM      3  O   UNL d   1     -54.754-101.249 -37.994  0.00  0.00    -0.200 OA
ENDROOT
BRANCH   1   4
ATOM      4  N   UNL d   1     -54.901-102.036 -37.137  0.00  0.00    -0.207 N 
ATOM      5  C   UNL d   1     -54.732-101.292 -36.811  0.00  0.00     0.148 A 
ATOM      6  N   UNL d   1     -54.723-101.075 -36.008  0.00  0.00    -0.198 NA
ATOM      7  C   UNL d   1     -54.874-101.530 -35.355  0.00  0.00     0.066 A 
ATOM      8  C   UNL d   1     -54.923-101.962 -36.402  0.00  0.00     0.169 A 
ATOM      9  C   UNL d   1     -55.075-102.324 -35.317  0.00  0.00     0.066 A 
ATOM     10  N   UNL d   1     -55.175-102.861 -35.939  0.00  0.00    -0.198 NA
ATOM     11  C   UNL d   1     -55.097-102.730 -36.745  0.00  0.00     0.148 A 
ENDBRANCH   1   4
BRANCH   1  12
ATOM     12  C   UNL d   1     -54.824-102.105 -38.784  0.00  0.00     0.104 A 
ATOM     13  C   UNL d   1     -54.753-101.412 -39.226  0.00  0.00     0.013 A 
ATOM     14  C   UNL d   1     -54.716-101.451 -40.050  0.00  0.00     0.001 A 
ATOM     15  C   UNL d   1     -54.749-102.183 -40.430  0.00  0.00     0.000 A 
ATOM     16  C   UNL d   1     -54.820-102.876 -39.987  0.00  0.00     0.001 A 
ATOM     17  C   UNL d   1     -54.711-102.214 -41.254  0.00  0.00     0.000 C 
ATOM     18  C   UNL d   1     -54.858-102.837 -39.164  0.00  0.00     0.013 A 
ENDBRANCH   1  12
TORSDOF 2
ENDMDL
