MODEL 1
REMARK VINA RESULT:       4.6      0.000      0.000
REMARK  5 active torsions:
REMARK  status: ('A' for Active; 'I' for Inactive)
REMARK    1  A    between atoms: N_3  and  S_1 
REMARK    2  A    between atoms: C_13  and  S_1 
REMARK    3  A    between atoms: C_2  and  N_3 
REMARK    4  A    between atoms: N_9  and  C_4 
REMARK       I    between atoms: C_8  and  N_10 
REMARK    5  A    between atoms: C_19  and  C_8 
ROOT
ATOM      1  C   UNL d   1     -48.135  13.567  23.115  0.00  0.00     0.110 A 
ATOM      2  C   UNL d   1     -47.143  13.192  23.060  0.00  0.00     0.083 A 
ATOM      3  C   UNL d   1     -48.028  14.353  22.908  0.00  0.00     0.020 A 
ATOM      4  C   UNL d   1     -46.703  13.854  22.835  0.00  0.00     0.018 A 
ATOM      5  C   UNL d   1     -47.238  14.476  22.762  0.00  0.00     0.003 A 
ATOM      6  C   UNL d   1     -46.972  15.224  22.542  0.00  0.00     0.000 A 
ATOM      7  C   UNL d   1     -48.580  14.971  22.840  0.00  0.00     0.002 A 
ATOM      8  C   UNL d   1     -45.914  13.977  22.689  0.00  0.00     0.002 A 
ATOM      9  C   UNL d   1     -48.296  15.723  22.616  0.00  0.00     0.000 A 
ATOM     10  C   UNL d   1     -45.627  14.730  22.464  0.00  0.00     0.000 A 
ATOM     11  C   UNL d   1     -47.499  15.848  22.468  0.00  0.00     0.000 A 
ATOM     12  C   UNL d   1     -46.175  15.349  22.394  0.00  0.00     0.000 A 
ENDROOT
BRANCH   2  13
ATOM     13  N   UNL d   1     -46.765  12.476  23.178  0.00  0.00    -0.300 N 
ATOM     14  C   UNL d   1     -47.211  11.803  23.338  0.00  0.00     0.100 A 
ATOM     15  C   UNL d   1     -46.836  11.113  23.451  0.00  0.00     0.102 A 
ATOM     16  N   UNL d   1     -45.993  11.029  23.416  0.00  0.00    -0.269 N 
ATOM     17  C   UNL d   1     -45.599  10.314  23.533  0.00  0.00     0.265 C 
ATOM     18  C   UNL d   1     -45.553  11.696  23.257  0.00  0.00     0.102 A 
ATOM     19  O   UNL d   1     -45.995   9.604  23.697  0.00  0.00    -0.267 OA
ATOM     20  C   UNL d   1     -45.957  12.457  23.132  0.00  0.00     0.100 A 
BRANCH  17  21
ATOM     21  C   UNL d   1     -44.782  10.309  23.484  0.00  0.00     0.057 A 
ATOM     22  C   UNL d   1     -44.354  11.005  23.319  0.00  0.00     0.005 A 
ATOM     23  C   UNL d   1     -43.525  10.992  23.271  0.00  0.00     0.000 A 
ATOM     24  C   UNL d   1     -43.112  10.276  23.388  0.00  0.00     0.000 A 
ATOM     25  C   UNL d   1     -43.540   9.586  23.551  0.00  0.00     0.000 A 
ATOM     26  C   UNL d   1     -44.367   9.604  23.598  0.00  0.00     0.005 A 
ENDBRANCH  17  21
ENDBRANCH   2  13
BRANCH   1  27
ATOM     27  N   UNL d   1     -48.871  13.268  23.295  0.00  0.00    -0.157 NA
BRANCH  27  28
ATOM     28  S   UNL d   1     -49.423  13.097  22.708  0.00  0.00     0.285 S 
ATOM     29  O   UNL d   1     -48.834  12.712  22.280  0.00  0.00    -0.198 OA
ATOM     30  O   UNL d   1     -50.003  13.482  23.139  0.00  0.00    -0.198 OA
BRANCH  28  31
ATOM     31  C   UNL d   1     -49.966  12.925  22.123  0.00  0.00     0.105 A 
ATOM     32  C   UNL d   1     -50.149  12.139  21.938  0.00  0.00     0.013 A 
ATOM     33  C   UNL d   1     -50.694  11.971  21.351  0.00  0.00     0.001 A 
ATOM     34  C   UNL d   1     -51.060  12.576  20.944  0.00  0.00     0.000 A 
ATOM     35  C   UNL d   1     -50.885  13.379  21.120  0.00  0.00     0.001 A 
ATOM     36  C   UNL d   1     -50.334  13.533  21.714  0.00  0.00     0.013 A 
ENDBRANCH  28  31
ENDBRANCH  27  28
ENDBRANCH   1  27
TORSDOF 5
ENDMDL
MODEL 2
REMARK VINA RESULT:       4.9      1.831      3.048
REMARK  5 active torsions:
REMARK  status: ('A' for Active; 'I' for Inactive)
REMARK    1  A    between atoms: N_3  and  S_1 
REMARK    2  A    between atoms: C_13  and  S_1 
REMARK    3  A    between atoms: C_2  and  N_3 
REMARK    4  A    between atoms: N_9  and  C_4 
REMARK       I    between atoms: C_8  and  N_10 
REMARK    5  A    between atoms: C_19  and  C_8 
ROOT
ATOM      1  C   UNL d   1     -48.476  13.219  23.177  0.00  0.00     0.110 A 
ATOM      2  C   UNL d   1     -47.515  12.817  22.966  0.00  0.00     0.083 A 
ATOM      3  C   UNL d   1     -48.906  12.542  23.346  0.00  0.00     0.020 A 
ATOM      4  C   UNL d   1     -47.624  12.005  23.065  0.00  0.00     0.018 A 
ATOM      5  C   UNL d   1     -48.414  11.900  23.276  0.00  0.00     0.003 A 
ATOM      6  C   UNL d   1     -48.705  11.142  23.417  0.00  0.00     0.000 A 
ATOM      7  C   UNL d   1     -49.705  12.452  23.558  0.00  0.00     0.002 A 
ATOM      8  C   UNL d   1     -47.133  11.363  22.996  0.00  0.00     0.002 A 
ATOM      9  C   UNL d   1     -49.986  11.679  23.698  0.00  0.00     0.000 A 
ATOM     10  C   UNL d   1     -47.412  10.586  23.135  0.00  0.00     0.000 A 
ATOM     11  C   UNL d   1     -49.490  11.029  23.628  0.00  0.00     0.000 A 
ATOM     12  C   UNL d   1     -48.208  10.493  23.347  0.00  0.00     0.000 A 
ENDROOT
BRANCH   2  13
ATOM     13  N   UNL d   1     -46.779  13.103  22.753  0.00  0.00    -0.300 N 
ATOM     14  C   UNL d   1     -46.616  13.906  22.836  0.00  0.00     0.100 A 
ATOM     15  C   UNL d   1     -45.899  14.175  22.627  0.00  0.00     0.102 A 
ATOM     16  N   UNL d   1     -45.286  13.678  22.319  0.00  0.00    -0.269 N 
ATOM     17  C   UNL d   1     -44.540  13.952  22.100  0.00  0.00     0.265 C 
ATOM     18  C   UNL d   1     -45.449  12.883  22.237  0.00  0.00     0.102 A 
ATOM     19  O   UNL d   1     -44.319  14.749  22.162  0.00  0.00    -0.267 OA
ATOM     20  C   UNL d   1     -46.233  12.581  22.465  0.00  0.00     0.100 A 
BRANCH  17  21
ATOM     21  C   UNL d   1     -43.997  13.412  21.810  0.00  0.00     0.057 A 
ATOM     22  C   UNL d   1     -43.874  12.679  22.187  0.00  0.00     0.005 A 
ATOM     23  C   UNL d   1     -43.321  12.136  21.887  0.00  0.00     0.000 A 
ATOM     24  C   UNL d   1     -42.882  12.323  21.202  0.00  0.00     0.000 A 
ATOM     25  C   UNL d   1     -43.007  13.053  20.830  0.00  0.00     0.000 A 
ATOM     26  C   UNL d   1     -43.560  13.591  21.133  0.00  0.00     0.005 A 
ENDBRANCH  17  21
ENDBRANCH   2  13
BRANCH   1  27
ATOM     27  N   UNL d   1     -48.816  13.959  23.199  0.00  0.00    -0.157 NA
BRANCH  27  28
ATOM     28  S   UNL d   1     -49.377  14.193  22.643  0.00  0.00     0.285 S 
ATOM     29  O   UNL d   1     -49.883  14.407  23.257  0.00  0.00    -0.198 OA
ATOM     30  O   UNL d   1     -48.870  13.978  22.038  0.00  0.00    -0.198 OA
BRANCH  28  31
ATOM     31  C   UNL d   1     -49.937  14.426  22.096  0.00  0.00     0.105 A 
ATOM     32  C   UNL d   1     -49.951  14.090  21.339  0.00  0.00     0.013 A 
ATOM     33  C   UNL d   1     -50.513  14.327  20.794  0.00  0.00     0.001 A 
ATOM     34  C   UNL d   1     -51.064  14.894  20.992  0.00  0.00     0.000 A 
ATOM     35  C   UNL d   1     -51.064  15.245  21.756  0.00  0.00     0.001 A 
ATOM     36  C   UNL d   1     -50.491  14.997  22.295  0.00  0.00     0.013 A 
ENDBRANCH  28  31
ENDBRANCH  27  28
ENDBRANCH   1  27
TORSDOF 5
ENDMDL
MODEL 3
REMARK VINA RESULT:       5.4      6.367      8.457
REMARK  5 active torsions:
REMARK  status: ('A' for Active; 'I' for Inactive)
REMARK    1  A    between atoms: N_3  and  S_1 
REMARK    2  A    between atoms: C_13  and  S_1 
REMARK    3  A    between atoms: C_2  and  N_3 
REMARK    4  A    between atoms: N_9  and  C_4 
REMARK       I    between atoms: C_8  and  N_10 
REMARK    5  A    between atoms: C_19  and  C_8 
ROOT
ATOM      1  C   UNL d   1     -40.514  14.478  21.125  0.00  0.00     0.110 A 
ATOM      2  C   UNL d   1     -39.896  14.475  20.261  0.00  0.00     0.083 A 
ATOM      3  C   UNL d   1     -40.050  14.067  21.662  0.00  0.00     0.020 A 
ATOM      4  C   UNL d   1     -39.225  14.063  20.509  0.00  0.00     0.018 A 
ATOM      5  C   UNL d   1     -39.357  13.856  21.296  0.00  0.00     0.003 A 
ATOM      6  C   UNL d   1     -38.784  13.434  21.712  0.00  0.00     0.000 A 
ATOM      7  C   UNL d   1     -40.197  13.865  22.455  0.00  0.00     0.002 A 
ATOM      8  C   UNL d   1     -38.532  13.853  20.144  0.00  0.00     0.002 A 
ATOM      9  C   UNL d   1     -39.609  13.438  22.864  0.00  0.00     0.000 A 
ATOM     10  C   UNL d   1     -37.940  13.424  20.551  0.00  0.00     0.000 A 
ATOM     11  C   UNL d   1     -38.908  13.225  22.495  0.00  0.00     0.000 A 
ATOM     12  C   UNL d   1     -38.083  13.221  21.342  0.00  0.00     0.000 A 
ENDROOT
BRANCH   2  13
ATOM     13  N   UNL d   1     -39.936  14.759  19.495  0.00  0.00    -0.300 N 
ATOM     14  C   UNL d   1     -39.252  15.033  19.127  0.00  0.00     0.100 A 
ATOM     15  C   UNL d   1     -39.300  15.306  18.383  0.00  0.00     0.102 A 
ATOM     16  N   UNL d   1     -40.023  15.332  17.942  0.00  0.00    -0.269 N 
ATOM     17  C   UNL d   1     -40.078  15.615  17.169  0.00  0.00     0.265 C 
ATOM     18  C   UNL d   1     -40.699  15.061  18.307  0.00  0.00     0.102 A 
ATOM     19  O   UNL d   1     -39.423  15.903  16.749  0.00  0.00    -0.267 OA
ATOM     20  C   UNL d   1     -40.654  14.759  19.123  0.00  0.00     0.100 A 
BRANCH  17  21
ATOM     21  C   UNL d   1     -40.811  15.610  16.805  0.00  0.00     0.057 A 
ATOM     22  C   UNL d   1     -41.484  15.921  17.185  0.00  0.00     0.005 A 
ATOM     23  C   UNL d   1     -42.225  15.913  16.809  0.00  0.00     0.000 A 
ATOM     24  C   UNL d   1     -42.300  15.590  16.043  0.00  0.00     0.000 A 
ATOM     25  C   UNL d   1     -41.629  15.281  15.668  0.00  0.00     0.000 A 
ATOM     26  C   UNL d   1     -40.892  15.292  16.048  0.00  0.00     0.005 A 
ENDBRANCH  17  21
ENDBRANCH   2  13
BRANCH   1  27
ATOM     27  N   UNL d   1     -41.249  14.766  21.326  0.00  0.00    -0.157 NA
BRANCH  27  28
ATOM     28  S   UNL d   1     -41.919  14.287  21.309  0.00  0.00     0.285 S 
ATOM     29  O   UNL d   1     -42.369  14.922  21.578  0.00  0.00    -0.198 OA
ATOM     30  O   UNL d   1     -41.467  13.660  21.041  0.00  0.00    -0.198 OA
BRANCH  28  31
ATOM     31  C   UNL d   1     -42.587  13.817  21.293  0.00  0.00     0.105 A 
ATOM     32  C   UNL d   1     -42.552  13.047  20.991  0.00  0.00     0.013 A 
ATOM     33  C   UNL d   1     -43.223  12.580  20.977  0.00  0.00     0.001 A 
ATOM     34  C   UNL d   1     -43.931  12.868  21.261  0.00  0.00     0.000 A 
ATOM     35  C   UNL d   1     -43.984  13.648  21.571  0.00  0.00     0.001 A 
ATOM     36  C   UNL d   1     -43.299  14.108  21.579  0.00  0.00     0.013 A 
ENDBRANCH  28  31
ENDBRANCH  27  28
ENDBRANCH   1  27
TORSDOF 5
ENDMDL
MODEL 4
REMARK VINA RESULT:       6.1      7.161      8.696
REMARK  5 active torsions:
REMARK  status: ('A' for Active; 'I' for Inactive)
REMARK    1  A    between atoms: N_3  and  S_1 
REMARK    2  A    between atoms: C_13  and  S_1 
REMARK    3  A    between atoms: C_2  and  N_3 
REMARK    4  A    between atoms: N_9  and  C_4 
REMARK       I    between atoms: C_8  and  N_10 
REMARK    5  A    between atoms: C_19  and  C_8 
ROOT
ATOM      1  C   UNL d   1     -40.751  15.473  20.561  0.00  0.00     0.110 A 
ATOM      2  C   UNL d   1     -39.957  15.463  19.855  0.00  0.00     0.083 A 
ATOM      3  C   UNL d   1     -40.349  15.621  21.260  0.00  0.00     0.020 A 
ATOM      4  C   UNL d   1     -39.289  15.608  20.318  0.00  0.00     0.018 A 
ATOM      5  C   UNL d   1     -39.557  15.689  21.093  0.00  0.00     0.003 A 
ATOM      6  C   UNL d   1     -39.020  15.840  21.700  0.00  0.00     0.000 A 
ATOM      7  C   UNL d   1     -40.634  15.700  22.037  0.00  0.00     0.002 A 
ATOM      8  C   UNL d   1     -38.498  15.677  20.152  0.00  0.00     0.002 A 
ATOM      9  C   UNL d   1     -40.079  15.853  22.642  0.00  0.00     0.000 A 
ATOM     10  C   UNL d   1     -37.940  15.829  20.756  0.00  0.00     0.000 A 
ATOM     11  C   UNL d   1     -39.279  15.922  22.474  0.00  0.00     0.000 A 
ATOM     12  C   UNL d   1     -38.220  15.909  21.532  0.00  0.00     0.000 A 
ENDROOT
BRANCH   2  13
ATOM     13  N   UNL d   1     -39.874  15.356  19.048  0.00  0.00    -0.300 N 
ATOM     14  C   UNL d   1     -40.310  15.823  18.529  0.00  0.00     0.100 A 
ATOM     15  C   UNL d   1     -40.223  15.712  17.748  0.00  0.00     0.102 A 
ATOM     16  N   UNL d   1     -39.701  15.134  17.414  0.00  0.00    -0.269 N 
ATOM     17  C   UNL d   1     -39.607  15.015  16.604  0.00  0.00     0.265 C 
ATOM     18  C   UNL d   1     -39.269  14.672  17.930  0.00  0.00     0.102 A 
ATOM     19  O   UNL d   1     -40.020  15.455  16.035  0.00  0.00    -0.267 OA
ATOM     20  C   UNL d   1     -39.360  14.789  18.788  0.00  0.00     0.100 A 
BRANCH  17  21
ATOM     21  C   UNL d   1     -39.083  14.437  16.354  0.00  0.00     0.057 A 
ATOM     22  C   UNL d   1     -38.468  14.613  15.820  0.00  0.00     0.005 A 
ATOM     23  C   UNL d   1     -37.941  14.022  15.571  0.00  0.00     0.000 A 
ATOM     24  C   UNL d   1     -38.025  13.242  15.856  0.00  0.00     0.000 A 
ATOM     25  C   UNL d   1     -38.637  13.070  16.386  0.00  0.00     0.000 A 
ATOM     26  C   UNL d   1     -39.160  13.664  16.632  0.00  0.00     0.005 A 
ENDBRANCH  17  21
ENDBRANCH   2  13
BRANCH   1  27
ATOM     27  N   UNL d   1     -41.559  15.376  20.544  0.00  0.00    -0.157 NA
BRANCH  27  28
ATOM     28  S   UNL d   1     -41.913  14.664  20.759  0.00  0.00     0.285 S 
ATOM     29  O   UNL d   1     -41.706  14.350  20.025  0.00  0.00    -0.198 OA
ATOM     30  O   UNL d   1     -42.116  14.981  21.485  0.00  0.00    -0.198 OA
BRANCH  28  31
ATOM     31  C   UNL d   1     -42.262  13.955  20.967  0.00  0.00     0.105 A 
ATOM     32  C   UNL d   1     -43.082  13.904  21.069  0.00  0.00     0.013 A 
ATOM     33  C   UNL d   1     -43.427  13.192  21.277  0.00  0.00     0.001 A 
ATOM     34  C   UNL d   1     -42.966  12.528  21.385  0.00  0.00     0.000 A 
ATOM     35  C   UNL d   1     -42.132  12.562  21.285  0.00  0.00     0.001 A 
ATOM     36  C   UNL d   1     -41.798  13.287  21.075  0.00  0.00     0.013 A 
ENDBRANCH  28  31
ENDBRANCH  27  28
ENDBRANCH   1  27
TORSDOF 5
ENDMDL
MODEL 5
REMARK VINA RESULT:       6.9      7.598      9.521
REMARK  5 active torsions:
REMARK  status: ('A' for Active; 'I' for Inactive)
REMARK    1  A    between atoms: N_3  and  S_1 
REMARK    2  A    between atoms: C_13  and  S_1 
REMARK    3  A    between atoms: C_2  and  N_3 
REMARK    4  A    between atoms: N_9  and  C_4 
REMARK       I    between atoms: C_8  and  N_10 
REMARK    5  A    between atoms: C_19  and  C_8 
ROOT
ATOM      1  C   UNL d   1     -40.357  14.191  20.106  0.00  0.00     0.110 A 
ATOM      2  C   UNL d   1     -40.313  14.263  19.047  0.00  0.00     0.083 A 
ATOM      3  C   UNL d   1     -41.033  14.623  20.274  0.00  0.00     0.020 A 
ATOM      4  C   UNL d   1     -40.975  14.720  18.860  0.00  0.00     0.018 A 
ATOM      5  C   UNL d   1     -41.344  14.896  19.575  0.00  0.00     0.003 A 
ATOM      6  C   UNL d   1     -42.032  15.351  19.582  0.00  0.00     0.000 A 
ATOM      7  C   UNL d   1     -41.395  14.793  21.003  0.00  0.00     0.002 A 
ATOM      8  C   UNL d   1     -41.286  14.993  18.163  0.00  0.00     0.002 A 
ATOM      9  C   UNL d   1     -42.090  15.254  20.994  0.00  0.00     0.000 A 
ATOM     10  C   UNL d   1     -41.983  15.456  18.151  0.00  0.00     0.000 A 
ATOM     11  C   UNL d   1     -42.406  15.531  20.290  0.00  0.00     0.000 A 
ATOM     12  C   UNL d   1     -42.347  15.627  18.877  0.00  0.00     0.000 A 
ENDROOT
BRANCH   2  13
ATOM     13  N   UNL d   1     -39.824  13.997  18.448  0.00  0.00    -0.300 N 
ATOM     14  C   UNL d   1     -39.472  13.255  18.511  0.00  0.00     0.100 A 
ATOM     15  C   UNL d   1     -38.998  13.004  17.924  0.00  0.00     0.102 A 
ATOM     16  N   UNL d   1     -38.834  13.462  17.230  0.00  0.00    -0.269 N 
ATOM     17  C   UNL d   1     -38.343  13.206  16.619  0.00  0.00     0.265 C 
ATOM     18  C   UNL d   1     -39.183  14.196  17.169  0.00  0.00     0.102 A 
ATOM     19  O   UNL d   1     -37.962  12.470  16.627  0.00  0.00    -0.267 OA
ATOM     20  C   UNL d   1     -39.703  14.477  17.809  0.00  0.00     0.100 A 
BRANCH  17  21
ATOM     21  C   UNL d   1     -38.230  13.703  15.978  0.00  0.00     0.057 A 
ATOM     22  C   UNL d   1     -38.149  14.526  16.078  0.00  0.00     0.005 A 
ATOM     23  C   UNL d   1     -38.035  15.025  15.424  0.00  0.00     0.000 A 
ATOM     24  C   UNL d   1     -37.999  14.700  14.655  0.00  0.00     0.000 A 
ATOM     25  C   UNL d   1     -38.080  13.882  14.558  0.00  0.00     0.000 A 
ATOM     26  C   UNL d   1     -38.194  13.389  15.216  0.00  0.00     0.005 A 
ENDBRANCH  17  21
ENDBRANCH   2  13
BRANCH   1  27
ATOM     27  N   UNL d   1     -39.915  13.842  20.694  0.00  0.00    -0.157 NA
BRANCH  27  28
ATOM     28  S   UNL d   1     -39.509  14.291  21.253  0.00  0.00     0.285 S 
ATOM     29  O   UNL d   1     -39.832  13.823  21.850  0.00  0.00    -0.198 OA
ATOM     30  O   UNL d   1     -39.192  14.751  20.656  0.00  0.00    -0.198 OA
BRANCH  28  31
ATOM     31  C   UNL d   1     -39.109  14.733  21.811  0.00  0.00     0.105 A 
ATOM     32  C   UNL d   1     -38.339  14.999  21.665  0.00  0.00     0.013 A 
ATOM     33  C   UNL d   1     -37.943  15.441  22.227  0.00  0.00     0.001 A 
ATOM     34  C   UNL d   1     -38.303  15.624  22.936  0.00  0.00     0.000 A 
ATOM     35  C   UNL d   1     -39.084  15.361  23.100  0.00  0.00     0.001 A 
ATOM     36  C   UNL d   1     -39.472  14.916  22.524  0.00  0.00     0.013 A 
ENDBRANCH  28  31
ENDBRANCH  27  28
ENDBRANCH   1  27
TORSDOF 5
ENDMDL
MODEL 6
REMARK VINA RESULT:       7.3      1.562      3.126
REMARK  5 active torsions:
REMARK  status: ('A' for Active; 'I' for Inactive)
REMARK    1  A    between atoms: N_3  and  S_1 
REMARK    2  A    between atoms: C_13  and  S_1 
REMARK    3  A    between atoms: C_2  and  N_3 
REMARK    4  A    between atoms: N_9  and  C_4 
REMARK       I    between atoms: C_8  and  N_10 
REMARK    5  A    between atoms: C_19  and  C_8 
ROOT
ATOM      1  C   UNL d   1     -48.341  13.093  23.534  0.00  0.00     0.110 A 
ATOM      2  C   UNL d   1     -47.721  12.254  23.335  0.00  0.00     0.083 A 
ATOM      3  C   UNL d   1     -49.084  12.748  23.562  0.00  0.00     0.020 A 
ATOM      4  C   UNL d   1     -48.256  11.627  23.297  0.00  0.00     0.018 A 
ATOM      5  C   UNL d   1     -49.002  11.950  23.429  0.00  0.00     0.003 A 
ATOM      6  C   UNL d   1     -49.668  11.464  23.427  0.00  0.00     0.000 A 
ATOM      7  C   UNL d   1     -49.830  13.088  23.697  0.00  0.00     0.002 A 
ATOM      8  C   UNL d   1     -48.175  10.831  23.165  0.00  0.00     0.002 A 
ATOM      9  C   UNL d   1     -50.495  12.583  23.692  0.00  0.00     0.000 A 
ATOM     10  C   UNL d   1     -48.840  10.323  23.159  0.00  0.00     0.000 A 
ATOM     11  C   UNL d   1     -50.414  11.778  23.558  0.00  0.00     0.000 A 
ATOM     12  C   UNL d   1     -49.586  10.659  23.293  0.00  0.00     0.000 A 
ENDROOT
BRANCH   2  13
ATOM     13  N   UNL d   1     -46.922  12.112  23.225  0.00  0.00    -0.300 N 
ATOM     14  C   UNL d   1     -46.540  11.556  23.698  0.00  0.00     0.100 A 
ATOM     15  C   UNL d   1     -45.766  11.424  23.584  0.00  0.00     0.102 A 
ATOM     16  N   UNL d   1     -45.305  11.827  22.998  0.00  0.00    -0.269 N 
ATOM     17  C   UNL d   1     -44.501  11.694  22.876  0.00  0.00     0.265 C 
ATOM     18  C   UNL d   1     -45.685  12.377  22.531  0.00  0.00     0.102 A 
ATOM     19  O   UNL d   1     -44.064  11.147  23.320  0.00  0.00    -0.267 OA
ATOM     20  C   UNL d   1     -46.534  12.527  22.650  0.00  0.00     0.100 A 
BRANCH  17  21
ATOM     21  C   UNL d   1     -44.120  12.121  22.290  0.00  0.00     0.057 A 
ATOM     22  C   UNL d   1     -44.551  12.544  21.715  0.00  0.00     0.005 A 
ATOM     23  C   UNL d   1     -44.159  12.975  21.123  0.00  0.00     0.000 A 
ATOM     24  C   UNL d   1     -43.324  12.988  21.102  0.00  0.00     0.000 A 
ATOM     25  C   UNL d   1     -42.899  12.568  21.675  0.00  0.00     0.000 A 
ATOM     26  C   UNL d   1     -43.296  12.138  22.263  0.00  0.00     0.005 A 
ENDBRANCH  17  21
ENDBRANCH   2  13
BRANCH   1  27
ATOM     27  N   UNL d   1     -48.237  13.893  23.647  0.00  0.00    -0.157 NA
BRANCH  27  28
ATOM     28  S   UNL d   1     -48.087  14.402  23.016  0.00  0.00     0.285 S 
ATOM     29  O   UNL d   1     -48.894  14.424  22.853  0.00  0.00    -0.198 OA
ATOM     30  O   UNL d   1     -47.286  14.375  23.184  0.00  0.00    -0.198 OA
BRANCH  28  31
ATOM     31  C   UNL d   1     -47.943  14.906  22.390  0.00  0.00     0.105 A 
ATOM     32  C   UNL d   1     -48.491  14.979  21.774  0.00  0.00     0.013 A 
ATOM     33  C   UNL d   1     -48.343  15.485  21.149  0.00  0.00     0.001 A 
ATOM     34  C   UNL d   1     -47.655  15.922  21.128  0.00  0.00     0.000 A 
ATOM     35  C   UNL d   1     -47.087  15.859  21.745  0.00  0.00     0.001 A 
ATOM     36  C   UNL d   1     -47.250  15.345  22.369  0.00  0.00     0.013 A 
ENDBRANCH  28  31
ENDBRANCH  27  28
ENDBRANCH   1  27
TORSDOF 5
ENDMDL
