MODEL 1
REMARK VINA RESULT:      85.5      0.000      0.000
REMARK  12 active torsions:
REMARK  status: ('A' for Active; 'I' for Inactive)
REMARK    1  A    between atoms: C_23  and  N_1 
REMARK    2  A    between atoms: S_8  and  C_2 
REMARK    3  A    between atoms: C_7  and  C_11 
REMARK       I    between atoms: N_12  and  C_7 
REMARK    4  A    between atoms: C_24  and  S_8 
REMARK    5  A    between atoms: C_25  and  N_12 
REMARK    6  A    between atoms: C_13  and  C_25 
REMARK    7  A    between atoms: C_15  and  C_24 
REMARK    8  A    between atoms: O_26  and  C_15 
REMARK    9  A    between atoms: C_28  and  C_23 
REMARK   10  A    between atoms: C_27  and  O_26 
REMARK   11  A    between atoms: C_30  and  C_28 
REMARK   12  A    between atoms: C_29  and  C_30 
ROOT
ATOM      1  N   UNL d   1      60.506  49.030  51.451  0.00  0.00    -0.253 N 
ATOM      2  C   UNL d   1      60.207  49.051  50.692  0.00  0.00     0.182 A 
ATOM      3  C   UNL d   1      60.941  48.382  51.710  0.00  0.00     0.268 A 
ATOM      4  N   UNL d   1      60.345  48.419  50.189  0.00  0.00    -0.222 NA
ATOM      5  C   UNL d   1      61.078  47.751  51.211  0.00  0.00     0.074 A 
ATOM      6  C   UNL d   1      60.778  47.765  50.437  0.00  0.00     0.088 A 
ATOM      7  C   UNL d   1      60.913  47.128  49.924  0.00  0.00     0.024 A 
ATOM      8  C   UNL d   1      61.513  47.095  51.460  0.00  0.00     0.006 A 
ATOM      9  C   UNL d   1      61.350  46.477  50.184  0.00  0.00     0.059 A 
ATOM     10  O   UNL d   1      61.241  48.369  52.484  0.00  0.00    -0.267 OA
ATOM     11  C   UNL d   1      61.650  46.462  50.957  0.00  0.00     0.005 A 
ENDROOT
BRANCH   9  12
ATOM     12  C   UNL d   1      61.488  45.836  49.672  0.00  0.00     0.279 C 
ATOM     13  N   UNL d   1      61.518  45.086  49.979  0.00  0.00    -0.204 NA
ATOM     14  O   UNL d   1      61.589  45.982  48.869  0.00  0.00    -0.265 OA
BRANCH  13  15
ATOM     15  C   UNL d   1      61.414  44.959  50.785  0.00  0.00     0.127 C 
BRANCH  15  16
ATOM     16  C   UNL d   1      61.500  44.200  51.098  0.00  0.00     0.119 A 
ATOM     17  O   UNL d   1      61.842  43.521  50.817  0.00  0.00    -0.304 OA
ATOM     18  C   UNL d   1      61.765  42.921  51.371  0.00  0.00     0.123 A 
ATOM     19  C   UNL d   1      61.358  43.254  52.014  0.00  0.00     0.029 A 
ATOM     20  C   UNL d   1      61.194  44.031  51.853  0.00  0.00     0.028 A 
ENDBRANCH  15  16
ENDBRANCH  13  15
ENDBRANCH   9  12
BRANCH   2  21
ATOM     21  S   UNL d   1      59.771  49.702  50.432  0.00  0.00    -0.044 SA
BRANCH  21  22
ATOM     22  C   UNL d   1      59.139  49.599  49.921  0.00  0.00     0.107 C 
BRANCH  22  23
ATOM     23  C   UNL d   1      58.368  49.631  50.217  0.00  0.00     0.307 C 
ATOM     24  O   UNL d   1      58.230  49.707  51.032  0.00  0.00    -0.258 OA
BRANCH  23  25
ATOM     25  O   UNL d   1      57.731  49.588  49.687  0.00  0.00    -0.271 OA
BRANCH  25  26
ATOM     26  C   UNL d   1      56.966  49.707  49.975  0.00  0.00     0.126 C 
ATOM     27  C   UNL d   1      56.338  49.548  49.482  0.00  0.00     0.029 C 
ENDBRANCH  25  26
ENDBRANCH  23  25
ENDBRANCH  22  23
ENDBRANCH  21  22
ENDBRANCH   2  21
BRANCH   1  28
ATOM     28  C   UNL d   1      60.364  49.678  51.961  0.00  0.00     0.085 C 
BRANCH  28  29
ATOM     29  C   UNL d   1      59.808  49.616  52.567  0.00  0.00     0.019 C 
BRANCH  29  30
ATOM     30  C   UNL d   1      60.014  49.343  53.305  0.00  0.00     0.002 C 
BRANCH  30  31
ATOM     31  C   UNL d   1      59.737  49.707  53.989  0.00  0.00     0.000 C 
ATOM     32  C   UNL d   1      59.026  49.505  54.306  0.00  0.00     0.000 C 
ENDBRANCH  30  31
ENDBRANCH  29  30
ENDBRANCH  28  29
ENDBRANCH   1  28
TORSDOF 12
ENDMDL
