MODEL 1
REMARK VINA RESULT:      -4.7      0.000      0.000
REMARK  4 active torsions:
REMARK  status: ('A' for Active; 'I' for Inactive)
REMARK    1  A    between atoms: C_2  and  S_1 
REMARK    2  A    between atoms: N_3  and  S_1 
REMARK    3  A    between atoms: C_12  and  N_3 
REMARK    4  A    between atoms: N_4  and  C_8 
ROOT
ATOM      1  S   UNL d   1     -41.327-122.118 -52.429  0.00  0.00     0.285 S 
ATOM      2  O   UNL d   1     -41.491-121.306 -52.647  0.00  0.00    -0.198 OA
ATOM      3  O   UNL d   1     -41.171-122.888 -52.219  0.00  0.00    -0.198 OA
ENDROOT
BRANCH   1   4
ATOM      4  C   UNL d   1     -41.514-122.330 -53.181  0.00  0.00     0.105 A 
ATOM      5  C   UNL d   1     -41.994-121.870 -53.665  0.00  0.00     0.013 A 
ATOM      6  C   UNL d   1     -42.183-122.095 -54.441  0.00  0.00     0.001 A 
ATOM      7  C   UNL d   1     -42.665-121.617 -54.903  0.00  0.00     0.000 A 
ATOM      8  C   UNL d   1     -41.883-122.797 -54.737  0.00  0.00     0.000 A 
ATOM      9  C   UNL d   1     -42.852-121.842 -55.676  0.00  0.00     0.000 A 
ATOM     10  C   UNL d   1     -42.540-122.572 -55.982  0.00  0.00     0.000 A 
ATOM     11  C   UNL d   1     -42.062-123.033 -55.504  0.00  0.00     0.000 A 
ATOM     12  C   UNL d   1     -41.394-123.275 -54.256  0.00  0.00     0.001 A 
ATOM     13  C   UNL d   1     -41.197-123.068 -53.487  0.00  0.00     0.013 A 
ENDBRANCH   1   4
BRANCH   1  14
ATOM     14  N   UNL d   1     -41.135-121.866 -51.644  0.00  0.00    -0.158 NA
BRANCH  14  15
ATOM     15  C   UNL d   1     -41.515-122.180 -51.002  0.00  0.00     0.094 A 
ATOM     16  C   UNL d   1     -42.261-121.934 -50.771  0.00  0.00     0.021 A 
ATOM     17  C   UNL d   1     -42.663-122.243 -50.119  0.00  0.00     0.019 A 
ATOM     18  C   UNL d   1     -42.278-122.848 -49.667  0.00  0.00     0.064 A 
ATOM     19  C   UNL d   1     -41.531-123.104 -49.887  0.00  0.00     0.019 A 
ATOM     20  C   UNL d   1     -41.123-122.786 -50.552  0.00  0.00     0.021 A 
BRANCH  18  21
ATOM     21  N   UNL d   1     -42.667-123.169 -49.009  0.00  0.00    -0.300 N 
ATOM     22  C   UNL d   1     -42.290-123.291 -48.279  0.00  0.00     0.107 A 
ATOM     23  C   UNL d   1     -42.684-123.607 -47.640  0.00  0.00     0.142 A 
ATOM     24  O   UNL d   1     -43.476-123.817 -47.705  0.00  0.00    -0.300 OA
ATOM     25  C   UNL d   1     -43.877-123.708 -48.418  0.00  0.00     0.142 A 
ATOM     26  C   UNL d   1     -43.477-123.383 -49.079  0.00  0.00     0.107 A 
ENDBRANCH  18  21
ENDBRANCH  14  15
ENDBRANCH   1  14
TORSDOF 4
ENDMDL
MODEL 2
REMARK VINA RESULT:      -4.3      1.316      5.438
REMARK  4 active torsions:
REMARK  status: ('A' for Active; 'I' for Inactive)
REMARK    1  A    between atoms: C_2  and  S_1 
REMARK    2  A    between atoms: N_3  and  S_1 
REMARK    3  A    between atoms: C_12  and  N_3 
REMARK    4  A    between atoms: N_4  and  C_8 
ROOT
ATOM      1  S   UNL d   1     -41.597-122.303 -50.274  0.00  0.00     0.285 S 
ATOM      2  O   UNL d   1     -42.094-121.613 -50.170  0.00  0.00    -0.198 OA
ATOM      3  O   UNL d   1     -41.123-122.955 -50.376  0.00  0.00    -0.198 OA
ENDROOT
BRANCH   1   4
ATOM      4  C   UNL d   1     -42.027-122.667 -49.703  0.00  0.00     0.105 A 
ATOM      5  C   UNL d   1     -41.823-122.639 -48.907  0.00  0.00     0.013 A 
ATOM      6  C   UNL d   1     -42.274-123.019 -48.322  0.00  0.00     0.001 A 
ATOM      7  C   UNL d   1     -42.048-122.974 -47.534  0.00  0.00     0.000 A 
ATOM      8  C   UNL d   1     -42.943-123.436 -48.542  0.00  0.00     0.000 A 
ATOM      9  C   UNL d   1     -42.497-123.353 -46.952  0.00  0.00     0.000 A 
ATOM     10  C   UNL d   1     -43.192-123.786 -47.183  0.00  0.00     0.000 A 
ATOM     11  C   UNL d   1     -43.399-123.817 -47.973  0.00  0.00     0.000 A 
ATOM     12  C   UNL d   1     -43.163-123.473 -49.348  0.00  0.00     0.001 A 
ATOM     13  C   UNL d   1     -42.730-123.104 -49.939  0.00  0.00     0.013 A 
ENDBRANCH   1   4
BRANCH   1  14
ATOM     14  N   UNL d   1     -41.161-121.893 -50.873  0.00  0.00    -0.158 NA
BRANCH  14  15
ATOM     15  C   UNL d   1     -41.309-122.022 -51.658  0.00  0.00     0.094 A 
ATOM     16  C   UNL d   1     -41.139-122.735 -52.025  0.00  0.00     0.021 A 
ATOM     17  C   UNL d   1     -41.283-122.885 -52.823  0.00  0.00     0.019 A 
ATOM     18  C   UNL d   1     -41.628-122.264 -53.286  0.00  0.00     0.064 A 
ATOM     19  C   UNL d   1     -41.804-121.545 -52.933  0.00  0.00     0.019 A 
ATOM     20  C   UNL d   1     -41.655-121.395 -52.117  0.00  0.00     0.021 A 
BRANCH  18  21
ATOM     21  N   UNL d   1     -41.780-122.397 -54.091  0.00  0.00    -0.300 N 
ATOM     22  C   UNL d   1     -41.485-123.056 -54.500  0.00  0.00     0.107 A 
ATOM     23  C   UNL d   1     -41.641-123.175 -55.290  0.00  0.00     0.142 A 
ATOM     24  O   UNL d   1     -42.103-122.638 -55.706  0.00  0.00    -0.300 OA
ATOM     25  C   UNL d   1     -42.410-121.973 -55.326  0.00  0.00     0.142 A 
ATOM     26  C   UNL d   1     -42.252-121.844 -54.512  0.00  0.00     0.107 A 
ENDBRANCH  18  21
ENDBRANCH  14  15
ENDBRANCH   1  14
TORSDOF 4
ENDMDL
