MODEL 1
REMARK VINA RESULT:      -3.3      0.000      0.000
REMARK  5 active torsions:
REMARK  status: ('A' for Active; 'I' for Inactive)
REMARK    1  A    between atoms: C_4  and  S_1 
REMARK    2  A    between atoms: N_12  and  S_1 
REMARK    3  A    between atoms: N_2  and  C_17 
REMARK    4  A    between atoms: C_16  and  N_12 
REMARK    5  A    between atoms: C_17  and  C_16 
ROOT
ATOM      1  N   UNL d   1      31.869  17.443 -23.960  0.00  0.00    -0.155 NA
ENDROOT
BRANCH   1   2
ATOM      2  S   UNL d   1      31.721  16.773 -24.415  0.00  0.00     0.285 S 
ATOM      3  O   UNL d   1      31.758  16.167 -24.972  0.00  0.00    -0.198 OA
ATOM      4  O   UNL d   1      32.414  17.104 -24.723  0.00  0.00    -0.198 OA
BRANCH   2   5
ATOM      5  C   UNL d   1      31.024  16.455 -24.091  0.00  0.00     0.105 A 
ATOM      6  C   UNL d   1      30.291  16.718 -24.363  0.00  0.00     0.012 A 
ATOM      7  C   UNL d   1      29.600  16.408 -24.047  0.00  0.00     0.001 A 
ATOM      8  C   UNL d   1      30.245  17.295 -24.956  0.00  0.00     0.001 C 
ATOM      9  C   UNL d   1      29.638  15.828 -23.452  0.00  0.00     0.000 A 
ATOM     10  C   UNL d   1      30.381  15.571 -23.185  0.00  0.00     0.001 A 
ATOM     11  C   UNL d   1      28.953  15.509 -23.127  0.00  0.00     0.000 C 
ATOM     12  C   UNL d   1      31.070  15.889 -23.510  0.00  0.00     0.012 A 
ATOM     13  C   UNL d   1      31.804  15.630 -23.242  0.00  0.00     0.001 C 
ENDBRANCH   2   5
ENDBRANCH   1   2
BRANCH   1  14
ATOM     14  C   UNL d   1      32.442  17.988 -24.196  0.00  0.00     0.131 C 
BRANCH  14  15
ATOM     15  C   UNL d   1      32.962  18.304 -23.640  0.00  0.00     0.102 C 
BRANCH  15  16
ATOM     16  N   UNL d   1      33.062  19.122 -23.590  0.00  0.00    -0.304 N 
ATOM     17  C   UNL d   1      33.160  19.639 -24.229  0.00  0.00     0.064 A 
ATOM     18  C   UNL d   1      33.241  20.402 -23.931  0.00  0.00     0.019 A 
ATOM     19  C   UNL d   1      33.173  19.427 -25.025  0.00  0.00     0.019 C 
ATOM     20  C   UNL d   1      33.195  20.364 -23.108  0.00  0.00     0.018 A 
ATOM     21  C   UNL d   1      33.084  19.574 -22.894  0.00  0.00     0.064 A 
ATOM     22  C   UNL d   1      33.237  20.938 -22.519  0.00  0.00     0.002 A 
ATOM     23  C   UNL d   1      33.017  19.358 -22.105  0.00  0.00     0.018 A 
ATOM     24  C   UNL d   1      33.059  19.929 -21.516  0.00  0.00     0.002 A 
ATOM     25  C   UNL d   1      33.171  20.733 -21.716  0.00  0.00     0.000 A 
ENDBRANCH  15  16
ENDBRANCH  14  15
ENDBRANCH   1  14
TORSDOF 5
ENDMDL
MODEL 2
REMARK VINA RESULT:      -3.0      0.907      1.631
REMARK  5 active torsions:
REMARK  status: ('A' for Active; 'I' for Inactive)
REMARK    1  A    between atoms: C_4  and  S_1 
REMARK    2  A    between atoms: N_12  and  S_1 
REMARK    3  A    between atoms: N_2  and  C_17 
REMARK    4  A    between atoms: C_16  and  N_12 
REMARK    5  A    between atoms: C_17  and  C_16 
ROOT
ATOM      1  N   UNL d   1      32.429  18.424 -23.626  0.00  0.00    -0.155 NA
ENDROOT
BRANCH   1   2
ATOM      2  S   UNL d   1      32.399  17.899 -24.260  0.00  0.00     0.285 S 
ATOM      3  O   UNL d   1      32.522  17.514 -24.979  0.00  0.00    -0.198 OA
ATOM      4  O   UNL d   1      32.953  18.477 -24.472  0.00  0.00    -0.198 OA
BRANCH   2   5
ATOM      5  C   UNL d   1      31.840  17.330 -24.029  0.00  0.00     0.105 A 
ATOM      6  C   UNL d   1      32.075  16.692 -23.562  0.00  0.00     0.012 A 
ATOM      7  C   UNL d   1      31.527  16.127 -23.332  0.00  0.00     0.001 A 
ATOM      8  C   UNL d   1      32.865  16.616 -23.323  0.00  0.00     0.001 C 
ATOM      9  C   UNL d   1      30.733  16.196 -23.568  0.00  0.00     0.000 A 
ATOM     10  C   UNL d   1      30.506  16.842 -24.038  0.00  0.00     0.001 A 
ATOM     11  C   UNL d   1      30.173  15.637 -23.344  0.00  0.00     0.000 C 
ATOM     12  C   UNL d   1      31.065  17.405 -24.265  0.00  0.00     0.012 A 
ATOM     13  C   UNL d   1      30.836  18.044 -24.731  0.00  0.00     0.001 C 
ENDBRANCH   2   5
ENDBRANCH   1   2
BRANCH   1  14
ATOM     14  C   UNL d   1      32.774  19.168 -23.716  0.00  0.00     0.131 C 
BRANCH  14  15
ATOM     15  C   UNL d   1      33.241  19.481 -23.113  0.00  0.00     0.102 C 
BRANCH  15  16
ATOM     16  N   UNL d   1      33.161  20.275 -22.902  0.00  0.00    -0.304 N 
ATOM     17  C   UNL d   1      33.161  20.918 -23.423  0.00  0.00     0.064 A 
ATOM     18  C   UNL d   1      33.067  21.606 -22.980  0.00  0.00     0.019 A 
ATOM     19  C   UNL d   1      33.241  20.877 -24.242  0.00  0.00     0.019 C 
ATOM     20  C   UNL d   1      33.009  21.396 -22.185  0.00  0.00     0.018 A 
ATOM     21  C   UNL d   1      33.066  20.573 -22.133  0.00  0.00     0.064 A 
ATOM     22  C   UNL d   1      32.911  21.836 -21.496  0.00  0.00     0.002 A 
ATOM     23  C   UNL d   1      33.027  20.194 -21.406  0.00  0.00     0.018 A 
ATOM     24  C   UNL d   1      32.929  20.632 -20.717  0.00  0.00     0.002 A 
ATOM     25  C   UNL d   1      32.869  21.465 -20.754  0.00  0.00     0.000 A 
ENDBRANCH  15  16
ENDBRANCH  14  15
ENDBRANCH   1  14
TORSDOF 5
ENDMDL
MODEL 3
REMARK VINA RESULT:      -1.8      1.289      2.292
REMARK  5 active torsions:
REMARK  status: ('A' for Active; 'I' for Inactive)
REMARK    1  A    between atoms: C_4  and  S_1 
REMARK    2  A    between atoms: N_12  and  S_1 
REMARK    3  A    between atoms: N_2  and  C_17 
REMARK    4  A    between atoms: C_16  and  N_12 
REMARK    5  A    between atoms: C_17  and  C_16 
ROOT
ATOM      1  N   UNL d   1      30.516  16.551 -24.111  0.00  0.00    -0.155 NA
ENDROOT
BRANCH   1   2
ATOM      2  S   UNL d   1      29.897  16.098 -24.409  0.00  0.00     0.285 S 
ATOM      3  O   UNL d   1      29.443  15.549 -24.824  0.00  0.00    -0.198 OA
ATOM      4  O   UNL d   1      30.581  15.820 -24.785  0.00  0.00    -0.198 OA
BRANCH   2   5
ATOM      5  C   UNL d   1      29.222  16.390 -24.022  0.00  0.00     0.105 A 
ATOM      6  C   UNL d   1      28.790  17.004 -24.361  0.00  0.00     0.012 A 
ATOM      7  C   UNL d   1      28.124  17.296 -23.983  0.00  0.00     0.001 A 
ATOM      8  C   UNL d   1      29.024  17.331 -25.087  0.00  0.00     0.001 C 
ATOM      9  C   UNL d   1      27.882  16.973 -23.256  0.00  0.00     0.000 A 
ATOM     10  C   UNL d   1      28.324  16.355 -22.922  0.00  0.00     0.001 A 
ATOM     11  C   UNL d   1      27.216  17.257 -22.866  0.00  0.00     0.000 C 
ATOM     12  C   UNL d   1      28.994  16.068 -23.311  0.00  0.00     0.012 A 
ATOM     13  C   UNL d   1      29.429  15.455 -22.976  0.00  0.00     0.001 C 
ENDBRANCH   2   5
ENDBRANCH   1   2
BRANCH   1  14
ATOM     14  C   UNL d   1      31.297  16.301 -24.199  0.00  0.00     0.131 C 
BRANCH  14  15
ATOM     15  C   UNL d   1      31.893  16.853 -24.342  0.00  0.00     0.102 C 
BRANCH  15  16
ATOM     16  N   UNL d   1      32.380  17.100 -23.724  0.00  0.00    -0.304 N 
ATOM     17  C   UNL d   1      32.844  16.609 -23.246  0.00  0.00     0.064 A 
ATOM     18  C   UNL d   1      33.241  17.083 -22.702  0.00  0.00     0.019 A 
ATOM     19  C   UNL d   1      32.899  15.789 -23.303  0.00  0.00     0.019 C 
ATOM     20  C   UNL d   1      33.027  17.868 -22.838  0.00  0.00     0.018 A 
ATOM     21  C   UNL d   1      32.495  17.881 -23.469  0.00  0.00     0.064 A 
ATOM     22  C   UNL d   1      33.241  18.577 -22.477  0.00  0.00     0.002 A 
ATOM     23  C   UNL d   1      32.180  18.591 -23.738  0.00  0.00     0.018 A 
ATOM     24  C   UNL d   1      32.392  19.299 -23.379  0.00  0.00     0.002 A 
ATOM     25  C   UNL d   1      32.930  19.301 -22.739  0.00  0.00     0.000 A 
ENDBRANCH  15  16
ENDBRANCH  14  15
ENDBRANCH   1  14
TORSDOF 5
ENDMDL
MODEL 4
REMARK VINA RESULT:      -1.6      1.341      2.397
REMARK  5 active torsions:
REMARK  status: ('A' for Active; 'I' for Inactive)
REMARK    1  A    between atoms: C_4  and  S_1 
REMARK    2  A    between atoms: N_12  and  S_1 
REMARK    3  A    between atoms: N_2  and  C_17 
REMARK    4  A    between atoms: C_16  and  N_12 
REMARK    5  A    between atoms: C_17  and  C_16 
ROOT
ATOM      1  N   UNL d   1      32.573  19.050 -23.200  0.00  0.00    -0.155 NA
ENDROOT
BRANCH   1   2
ATOM      2  S   UNL d   1      32.723  18.642 -23.899  0.00  0.00     0.285 S 
ATOM      3  O   UNL d   1      33.024  18.396 -24.626  0.00  0.00    -0.198 OA
ATOM      4  O   UNL d   1      33.240  19.289 -23.900  0.00  0.00    -0.198 OA
BRANCH   2   5
ATOM      5  C   UNL d   1      32.197  17.999 -23.879  0.00  0.00     0.105 A 
ATOM      6  C   UNL d   1      31.433  18.087 -24.176  0.00  0.00     0.012 A 
ATOM      7  C   UNL d   1      30.909  17.457 -24.158  0.00  0.00     0.001 A 
ATOM      8  C   UNL d   1      31.187  18.813 -24.493  0.00  0.00     0.001 C 
ATOM      9  C   UNL d   1      31.148  16.726 -23.841  0.00  0.00     0.000 A 
ATOM     10  C   UNL d   1      31.920  16.647 -23.544  0.00  0.00     0.001 A 
ATOM     11  C   UNL d   1      30.633  16.085 -23.818  0.00  0.00     0.000 C 
ATOM     12  C   UNL d   1      32.439  17.288 -23.567  0.00  0.00     0.012 A 
ATOM     13  C   UNL d   1      33.203  17.205 -23.271  0.00  0.00     0.001 C 
ENDBRANCH   2   5
ENDBRANCH   1   2
BRANCH   1  14
ATOM     14  C   UNL d   1      32.882  19.807 -23.084  0.00  0.00     0.131 C 
BRANCH  14  15
ATOM     15  C   UNL d   1      33.240  19.999 -22.366  0.00  0.00     0.102 C 
BRANCH  15  16
ATOM     16  N   UNL d   1      33.052  20.709 -21.990  0.00  0.00    -0.304 N 
ATOM     17  C   UNL d   1      32.821  20.793 -21.200  0.00  0.00     0.064 A 
ATOM     18  C   UNL d   1      32.687  21.592 -21.056  0.00  0.00     0.019 A 
ATOM     19  C   UNL d   1      32.741  20.183 -20.651  0.00  0.00     0.019 C 
ATOM     20  C   UNL d   1      32.832  22.008 -21.754  0.00  0.00     0.018 A 
ATOM     21  C   UNL d   1      33.058  21.465 -22.333  0.00  0.00     0.064 A 
ATOM     22  C   UNL d   1      32.791  22.808 -21.947  0.00  0.00     0.002 A 
ATOM     23  C   UNL d   1      33.240  21.713 -23.094  0.00  0.00     0.018 A 
ATOM     24  C   UNL d   1      33.200  22.511 -23.288  0.00  0.00     0.002 A 
ATOM     25  C   UNL d   1      32.974  23.072 -22.713  0.00  0.00     0.000 A 
ENDBRANCH  15  16
ENDBRANCH  14  15
ENDBRANCH   1  14
TORSDOF 5
ENDMDL
MODEL 5
REMARK VINA RESULT:      -0.9      2.860      5.484
REMARK  5 active torsions:
REMARK  status: ('A' for Active; 'I' for Inactive)
REMARK    1  A    between atoms: C_4  and  S_1 
REMARK    2  A    between atoms: N_12  and  S_1 
REMARK    3  A    between atoms: N_2  and  C_17 
REMARK    4  A    between atoms: C_16  and  N_12 
REMARK    5  A    between atoms: C_17  and  C_16 
ROOT
ATOM      1  N   UNL d   1      32.605  21.373 -21.848  0.00  0.00    -0.155 NA
ENDROOT
BRANCH   1   2
ATOM      2  S   UNL d   1      32.220  22.094 -21.744  0.00  0.00     0.285 S 
ATOM      3  O   UNL d   1      31.754  22.767 -21.842  0.00  0.00    -0.198 OA
ATOM      4  O   UNL d   1      31.981  21.816 -22.486  0.00  0.00    -0.198 OA
BRANCH   2   5
ATOM      5  C   UNL d   1      32.473  22.356 -20.997  0.00  0.00     0.105 A 
ATOM      6  C   UNL d   1      32.862  23.080 -20.927  0.00  0.00     0.012 A 
ATOM      7  C   UNL d   1      33.113  23.342 -20.192  0.00  0.00     0.001 A 
ATOM      8  C   UNL d   1      33.003  23.546 -21.598  0.00  0.00     0.001 C 
ATOM      9  C   UNL d   1      32.976  22.880 -19.515  0.00  0.00     0.000 A 
ATOM     10  C   UNL d   1      32.583  22.153 -19.595  0.00  0.00     0.001 A 
ATOM     11  C   UNL d   1      33.223  23.132 -18.772  0.00  0.00     0.000 C 
ATOM     12  C   UNL d   1      32.334  21.897 -20.340  0.00  0.00     0.012 A 
ATOM     13  C   UNL d   1      31.945  21.175 -20.414  0.00  0.00     0.001 C 
ENDBRANCH   2   5
ENDBRANCH   1   2
BRANCH   1  14
ATOM     14  C   UNL d   1      32.581  20.989 -22.577  0.00  0.00     0.131 C 
BRANCH  14  15
ATOM     15  C   UNL d   1      33.239  20.571 -22.844  0.00  0.00     0.102 C 
BRANCH  15  16
ATOM     16  N   UNL d   1      33.157  20.018 -23.452  0.00  0.00    -0.304 N 
ATOM     17  C   UNL d   1      33.152  20.185 -24.262  0.00  0.00     0.064 A 
ATOM     18  C   UNL d   1      33.057  19.476 -24.669  0.00  0.00     0.019 A 
ATOM     19  C   UNL d   1      33.230  20.932 -24.603  0.00  0.00     0.019 C 
ATOM     20  C   UNL d   1      33.002  18.866 -24.116  0.00  0.00     0.018 A 
ATOM     21  C   UNL d   1      33.063  19.198 -23.363  0.00  0.00     0.064 A 
ATOM     22  C   UNL d   1      32.905  18.052 -24.190  0.00  0.00     0.002 A 
ATOM     23  C   UNL d   1      33.028  18.727 -22.691  0.00  0.00     0.018 A 
ATOM     24  C   UNL d   1      32.931  17.914 -22.763  0.00  0.00     0.002 A 
ATOM     25  C   UNL d   1      32.867  17.563 -23.519  0.00  0.00     0.000 A 
ENDBRANCH  15  16
ENDBRANCH  14  15
ENDBRANCH   1  14
TORSDOF 5
ENDMDL
MODEL 6
REMARK VINA RESULT:      -0.5      2.126      4.941
REMARK  5 active torsions:
REMARK  status: ('A' for Active; 'I' for Inactive)
REMARK    1  A    between atoms: C_4  and  S_1 
REMARK    2  A    between atoms: N_12  and  S_1 
REMARK    3  A    between atoms: N_2  and  C_17 
REMARK    4  A    between atoms: C_16  and  N_12 
REMARK    5  A    between atoms: C_17  and  C_16 
ROOT
ATOM      1  N   UNL d   1      32.591  20.377 -22.556  0.00  0.00    -0.155 NA
ENDROOT
BRANCH   1   2
ATOM      2  S   UNL d   1      32.861  20.558 -21.799  0.00  0.00     0.285 S 
ATOM      3  O   UNL d   1      33.223  20.536 -21.059  0.00  0.00    -0.198 OA
ATOM      4  O   UNL d   1      33.154  19.802 -21.968  0.00  0.00    -0.198 OA
BRANCH   2   5
ATOM      5  C   UNL d   1      32.558  21.317 -21.648  0.00  0.00     0.105 A 
ATOM      6  C   UNL d   1      32.071  21.440 -20.994  0.00  0.00     0.012 A 
ATOM      7  C   UNL d   1      31.769  22.187 -20.841  0.00  0.00     0.001 A 
ATOM      8  C   UNL d   1      31.883  20.811 -20.487  0.00  0.00     0.001 C 
ATOM      9  C   UNL d   1      31.953  22.822 -21.344  0.00  0.00     0.000 A 
ATOM     10  C   UNL d   1      32.444  22.688 -22.001  0.00  0.00     0.001 A 
ATOM     11  C   UNL d   1      31.657  23.576 -21.202  0.00  0.00     0.000 C 
ATOM     12  C   UNL d   1      32.743  21.932 -22.146  0.00  0.00     0.012 A 
ATOM     13  C   UNL d   1      33.229  21.805 -22.798  0.00  0.00     0.001 C 
ENDBRANCH   2   5
ENDBRANCH   1   2
BRANCH   1  14
ATOM     14  C   UNL d   1      32.843  19.690 -22.936  0.00  0.00     0.131 C 
BRANCH  14  15
ATOM     15  C   UNL d   1      32.296  19.209 -23.322  0.00  0.00     0.102 C 
BRANCH  15  16
ATOM     16  N   UNL d   1      32.557  18.637 -23.856  0.00  0.00    -0.304 N 
ATOM     17  C   UNL d   1      32.991  18.780 -24.546  0.00  0.00     0.064 A 
ATOM     18  C   UNL d   1      33.134  18.057 -24.913  0.00  0.00     0.019 A 
ATOM     19  C   UNL d   1      33.238  19.518 -24.819  0.00  0.00     0.019 C 
ATOM     20  C   UNL d   1      32.791  17.462 -24.455  0.00  0.00     0.018 A 
ATOM     21  C   UNL d   1      32.434  17.818 -23.801  0.00  0.00     0.064 A 
ATOM     22  C   UNL d   1      32.752  16.644 -24.539  0.00  0.00     0.002 A 
ATOM     23  C   UNL d   1      32.043  17.366 -23.238  0.00  0.00     0.018 A 
ATOM     24  C   UNL d   1      32.003  16.549 -23.321  0.00  0.00     0.002 A 
ATOM     25  C   UNL d   1      32.360  16.175 -23.977  0.00  0.00     0.000 A 
ENDBRANCH  15  16
ENDBRANCH  14  15
ENDBRANCH   1  14
TORSDOF 5
ENDMDL
