MODEL 1
REMARK VINA RESULT:      -5.7      0.000      0.000
REMARK  6 active torsions:
REMARK  status: ('A' for Active; 'I' for Inactive)
REMARK    1  A    between atoms: N_6  and  S_1 
REMARK    2  A    between atoms: C_12  and  S_1 
REMARK    3  A    between atoms: C_2  and  N_5 
REMARK    4  A    between atoms: C_4  and  C_7 
REMARK       I    between atoms: N_5  and  C_4 
REMARK    5  A    between atoms: C_10  and  N_6 
REMARK    6  A    between atoms: C_15  and  C_8 
ROOT
ATOM      1  C   UNL d   1     -45.297  12.347  22.762  0.00  0.00     0.076 A 
ATOM      2  C   UNL d   1     -46.050  12.662  22.815  0.00  0.00     0.098 A 
ATOM      3  C   UNL d   1     -45.117  11.641  23.150  0.00  0.00     0.006 A 
ATOM      4  C   UNL d   1     -46.634  12.273  23.257  0.00  0.00     0.020 A 
ATOM      5  C   UNL d   1     -45.701  11.252  23.592  0.00  0.00     0.000 A 
ATOM      6  C   UNL d   1     -46.461  11.571  23.644  0.00  0.00     0.002 A 
ENDROOT
BRANCH   1   7
ATOM      7  C   UNL d   1     -44.716  12.733  22.323  0.00  0.00     0.282 C 
ATOM      8  N   UNL d   1     -44.070  12.318  22.041  0.00  0.00    -0.183 NA
ATOM      9  O   UNL d   1     -44.788  13.540  22.168  0.00  0.00    -0.265 OA
BRANCH   8  10
ATOM     10  C   UNL d   1     -43.486  12.707  21.599  0.00  0.00     0.197 A 
ATOM     11  N   UNL d   1     -42.829  13.064  21.902  0.00  0.00    -0.221 NA
ATOM     12  C   UNL d   1     -42.398  13.381  21.276  0.00  0.00     0.090 A 
ATOM     13  C   UNL d   1     -42.810  13.208  20.578  0.00  0.00     0.058 A 
ATOM     14  S   UNL d   1     -43.492  12.785  20.780  0.00  0.00    -0.046 SA
BRANCH  12  15
ATOM     15  C   UNL d   1     -41.688  13.803  21.243  0.00  0.00     0.018 A 
ATOM     16  C   UNL d   1     -40.996  13.482  21.577  0.00  0.00     0.004 A 
ATOM     17  C   UNL d   1     -40.288  13.906  21.543  0.00  0.00     0.030 A 
ATOM     18  C   UNL d   1     -40.278  14.645  21.177  0.00  0.00     0.140 A 
ATOM     19  C   UNL d   1     -40.960  14.961  20.848  0.00  0.00     0.030 A 
ATOM     20  F   UNL d   1     -39.574  15.069  21.141  0.00  0.00    -0.204 F 
ATOM     21  C   UNL d   1     -41.666  14.545  20.879  0.00  0.00     0.004 A 
ENDBRANCH  12  15
ENDBRANCH   8  10
ENDBRANCH   1   7
BRANCH   2  22
ATOM     22  N   UNL d   1     -46.230  13.367  22.428  0.00  0.00    -0.158 NA
BRANCH  22  23
ATOM     23  S   UNL d   1     -47.026  13.659  22.420  0.00  0.00     0.285 S 
ATOM     24  O   UNL d   1     -47.172  13.205  21.749  0.00  0.00    -0.198 OA
ATOM     25  O   UNL d   1     -46.847  14.109  23.102  0.00  0.00    -0.198 OA
BRANCH  23  26
ATOM     26  C   UNL d   1     -47.789  13.938  22.413  0.00  0.00     0.105 A 
ATOM     27  C   UNL d   1     -47.976  14.608  22.856  0.00  0.00     0.013 A 
ATOM     28  C   UNL d   1     -48.772  14.901  22.849  0.00  0.00     0.001 A 
ATOM     29  C   UNL d   1     -49.340  14.520  22.409  0.00  0.00     0.000 A 
ATOM     30  C   UNL d   1     -49.142  13.840  21.961  0.00  0.00     0.001 A 
ATOM     31  C   UNL d   1     -50.105  14.816  22.413  0.00  0.00     0.000 C 
ATOM     32  C   UNL d   1     -48.366  13.553  21.966  0.00  0.00     0.013 A 
ENDBRANCH  23  26
ENDBRANCH  22  23
ENDBRANCH   2  22
TORSDOF 6
ENDMDL
MODEL 2
REMARK VINA RESULT:      -5.2      2.833      6.729
REMARK  6 active torsions:
REMARK  status: ('A' for Active; 'I' for Inactive)
REMARK    1  A    between atoms: N_6  and  S_1 
REMARK    2  A    between atoms: C_12  and  S_1 
REMARK    3  A    between atoms: C_2  and  N_5 
REMARK    4  A    between atoms: C_4  and  C_7 
REMARK       I    between atoms: N_5  and  C_4 
REMARK    5  A    between atoms: C_10  and  N_6 
REMARK    6  A    between atoms: C_15  and  C_8 
ROOT
ATOM      1  C   UNL d   1     -41.055  14.038  21.175  0.00  0.00     0.076 A 
ATOM      2  C   UNL d   1     -40.689  14.264  20.478  0.00  0.00     0.098 A 
ATOM      3  C   UNL d   1     -40.606  13.923  21.858  0.00  0.00     0.006 A 
ATOM      4  C   UNL d   1     -39.868  14.378  20.457  0.00  0.00     0.020 A 
ATOM      5  C   UNL d   1     -39.785  14.037  21.836  0.00  0.00     0.000 A 
ATOM      6  C   UNL d   1     -39.417  14.265  21.133  0.00  0.00     0.002 A 
ENDROOT
BRANCH   1   7
ATOM      7  C   UNL d   1     -41.872  13.924  21.197  0.00  0.00     0.282 C 
ATOM      8  N   UNL d   1     -42.179  13.195  21.403  0.00  0.00    -0.183 NA
ATOM      9  O   UNL d   1     -42.377  14.548  21.010  0.00  0.00    -0.265 OA
BRANCH   8  10
ATOM     10  C   UNL d   1     -43.000  13.081  21.424  0.00  0.00     0.197 A 
ATOM     11  N   UNL d   1     -43.489  13.307  22.025  0.00  0.00    -0.221 NA
ATOM     12  C   UNL d   1     -44.258  13.090  21.825  0.00  0.00     0.090 A 
ATOM     13  C   UNL d   1     -44.227  12.723  21.082  0.00  0.00     0.058 A 
ATOM     14  S   UNL d   1     -43.439  12.717  20.830  0.00  0.00    -0.046 SA
BRANCH  12  15
ATOM     15  C   UNL d   1     -44.982  13.175  22.214  0.00  0.00     0.018 A 
ATOM     16  C   UNL d   1     -45.346  13.923  22.261  0.00  0.00     0.004 A 
ATOM     17  C   UNL d   1     -46.069  14.005  22.651  0.00  0.00     0.030 A 
ATOM     18  C   UNL d   1     -46.422  13.341  22.990  0.00  0.00     0.140 A 
ATOM     19  C   UNL d   1     -46.063  12.604  22.943  0.00  0.00     0.030 A 
ATOM     20  F   UNL d   1     -47.142  13.419  23.379  0.00  0.00    -0.204 F 
ATOM     21  C   UNL d   1     -45.345  12.516  22.558  0.00  0.00     0.004 A 
ENDBRANCH  12  15
ENDBRANCH   8  10
ENDBRANCH   1   7
BRANCH   2  22
ATOM     22  N   UNL d   1     -41.138  14.378  19.796  0.00  0.00    -0.158 NA
BRANCH  22  23
ATOM     23  S   UNL d   1     -40.759  14.583  19.066  0.00  0.00     0.285 S 
ATOM     24  O   UNL d   1     -40.754  13.786  18.860  0.00  0.00    -0.198 OA
ATOM     25  O   UNL d   1     -40.779  15.385  19.303  0.00  0.00    -0.198 OA
BRANCH  23  26
ATOM     26  C   UNL d   1     -40.396  14.780  18.366  0.00  0.00     0.105 A 
ATOM     27  C   UNL d   1     -40.011  14.194  17.933  0.00  0.00     0.013 A 
ATOM     28  C   UNL d   1     -39.631  14.397  17.203  0.00  0.00     0.001 A 
ATOM     29  C   UNL d   1     -39.650  15.167  16.938  0.00  0.00     0.000 A 
ATOM     30  C   UNL d   1     -40.044  15.757  17.383  0.00  0.00     0.001 A 
ATOM     31  C   UNL d   1     -39.279  15.348  16.230  0.00  0.00     0.000 C 
ATOM     32  C   UNL d   1     -40.415  15.560  18.097  0.00  0.00     0.013 A 
ENDBRANCH  23  26
ENDBRANCH  22  23
ENDBRANCH   2  22
TORSDOF 6
ENDMDL
MODEL 3
REMARK VINA RESULT:      -5.1      1.590      2.214
REMARK  6 active torsions:
REMARK  status: ('A' for Active; 'I' for Inactive)
REMARK    1  A    between atoms: N_6  and  S_1 
REMARK    2  A    between atoms: C_12  and  S_1 
REMARK    3  A    between atoms: C_2  and  N_5 
REMARK    4  A    between atoms: C_4  and  C_7 
REMARK       I    between atoms: N_5  and  C_4 
REMARK    5  A    between atoms: C_10  and  N_6 
REMARK    6  A    between atoms: C_15  and  C_8 
ROOT
ATOM      1  C   UNL d   1     -43.444  12.277  21.975  0.00  0.00     0.076 A 
ATOM      2  C   UNL d   1     -44.224  12.443  22.161  0.00  0.00     0.098 A 
ATOM      3  C   UNL d   1     -43.070  11.623  22.311  0.00  0.00     0.006 A 
ATOM      4  C   UNL d   1     -44.639  11.956  22.687  0.00  0.00     0.020 A 
ATOM      5  C   UNL d   1     -43.486  11.136  22.837  0.00  0.00     0.000 A 
ATOM      6  C   UNL d   1     -44.273  11.304  23.025  0.00  0.00     0.002 A 
ENDROOT
BRANCH   1   7
ATOM      7  C   UNL d   1     -43.031  12.762  21.451  0.00  0.00     0.282 C 
ATOM      8  N   UNL d   1     -42.361  13.160  21.702  0.00  0.00    -0.183 NA
ATOM      9  O   UNL d   1     -43.294  12.845  20.674  0.00  0.00    -0.265 OA
BRANCH   8  10
ATOM     10  C   UNL d   1     -41.946  13.648  21.176  0.00  0.00     0.197 A 
ATOM     11  N   UNL d   1     -41.467  13.392  20.578  0.00  0.00    -0.221 NA
ATOM     12  C   UNL d   1     -41.165  14.054  20.191  0.00  0.00     0.090 A 
ATOM     13  C   UNL d   1     -41.472  14.724  20.570  0.00  0.00     0.058 A 
ATOM     14  S   UNL d   1     -41.962  14.470  21.187  0.00  0.00    -0.046 SA
BRANCH  12  15
ATOM     15  C   UNL d   1     -40.653  14.139  19.548  0.00  0.00     0.018 A 
ATOM     16  C   UNL d   1     -40.960  14.280  18.787  0.00  0.00     0.004 A 
ATOM     17  C   UNL d   1     -40.446  14.366  18.146  0.00  0.00     0.030 A 
ATOM     18  C   UNL d   1     -39.633  14.310  18.271  0.00  0.00     0.140 A 
ATOM     19  C   UNL d   1     -39.330  14.171  19.022  0.00  0.00     0.030 A 
ATOM     20  F   UNL d   1     -39.118  14.394  17.635  0.00  0.00    -0.204 F 
ATOM     21  C   UNL d   1     -39.836  14.085  19.662  0.00  0.00     0.004 A 
ENDBRANCH  12  15
ENDBRANCH   8  10
ENDBRANCH   1   7
BRANCH   2  22
ATOM     22  N   UNL d   1     -44.597  13.097  21.824  0.00  0.00    -0.158 NA
BRANCH  22  23
ATOM     23  S   UNL d   1     -45.391  13.295  22.046  0.00  0.00     0.285 S 
ATOM     24  O   UNL d   1     -45.091  13.738  22.672  0.00  0.00    -0.198 OA
ATOM     25  O   UNL d   1     -45.665  12.838  21.402  0.00  0.00    -0.198 OA
BRANCH  23  26
ATOM     26  C   UNL d   1     -46.152  13.485  22.258  0.00  0.00     0.105 A 
ATOM     27  C   UNL d   1     -46.286  14.151  22.726  0.00  0.00     0.013 A 
ATOM     28  C   UNL d   1     -47.079  14.350  22.948  0.00  0.00     0.001 A 
ATOM     29  C   UNL d   1     -47.699  13.885  22.698  0.00  0.00     0.000 A 
ATOM     30  C   UNL d   1     -47.555  13.209  22.223  0.00  0.00     0.001 A 
ATOM     31  C   UNL d   1     -48.461  14.090  22.921  0.00  0.00     0.000 C 
ATOM     32  C   UNL d   1     -46.780  13.014  22.006  0.00  0.00     0.013 A 
ENDBRANCH  23  26
ENDBRANCH  22  23
ENDBRANCH   2  22
TORSDOF 6
ENDMDL
MODEL 4
REMARK VINA RESULT:      -4.4      6.549      8.379
REMARK  6 active torsions:
REMARK  status: ('A' for Active; 'I' for Inactive)
REMARK    1  A    between atoms: N_6  and  S_1 
REMARK    2  A    between atoms: C_12  and  S_1 
REMARK    3  A    between atoms: C_2  and  N_5 
REMARK    4  A    between atoms: C_4  and  C_7 
REMARK       I    between atoms: N_5  and  C_4 
REMARK    5  A    between atoms: C_10  and  N_6 
REMARK    6  A    between atoms: C_15  and  C_8 
ROOT
ATOM      1  C   UNL d   1     -40.476  15.623  18.015  0.00  0.00     0.076 A 
ATOM      2  C   UNL d   1     -40.148  15.495  17.276  0.00  0.00     0.098 A 
ATOM      3  C   UNL d   1     -41.283  15.777  18.086  0.00  0.00     0.006 A 
ATOM      4  C   UNL d   1     -40.625  15.521  16.598  0.00  0.00     0.020 A 
ATOM      5  C   UNL d   1     -41.760  15.802  17.409  0.00  0.00     0.000 A 
ATOM      6  C   UNL d   1     -41.428  15.673  16.663  0.00  0.00     0.002 A 
ENDROOT
BRANCH   1   7
ATOM      7  C   UNL d   1     -40.001  15.598  18.689  0.00  0.00     0.282 C 
ATOM      8  N   UNL d   1     -40.289  15.273  19.382  0.00  0.00    -0.183 NA
ATOM      9  O   UNL d   1     -39.235  15.901  18.662  0.00  0.00    -0.265 OA
BRANCH   8  10
ATOM     10  C   UNL d   1     -39.812  15.247  20.059  0.00  0.00     0.197 A 
ATOM     11  N   UNL d   1     -39.699  14.601  20.529  0.00  0.00    -0.221 NA
ATOM     12  C   UNL d   1     -39.188  14.814  21.139  0.00  0.00     0.090 A 
ATOM     13  C   UNL d   1     -38.989  15.611  21.029  0.00  0.00     0.058 A 
ATOM     14  S   UNL d   1     -39.380  15.883  20.352  0.00  0.00    -0.046 SA
BRANCH  12  15
ATOM     15  C   UNL d   1     -38.875  14.394  21.778  0.00  0.00     0.018 A 
ATOM     16  C   UNL d   1     -38.904  13.561  21.785  0.00  0.00     0.004 A 
ATOM     17  C   UNL d   1     -38.591  13.144  22.425  0.00  0.00     0.030 A 
ATOM     18  C   UNL d   1     -38.253  13.561  23.051  0.00  0.00     0.140 A 
ATOM     19  C   UNL d   1     -38.224  14.381  23.044  0.00  0.00     0.030 A 
ATOM     20  F   UNL d   1     -37.940  13.148  23.690  0.00  0.00    -0.204 F 
ATOM     21  C   UNL d   1     -38.533  14.801  22.411  0.00  0.00     0.004 A 
ENDBRANCH  12  15
ENDBRANCH   8  10
ENDBRANCH   1   7
BRANCH   2  22
ATOM     22  N   UNL d   1     -39.341  15.341  17.204  0.00  0.00    -0.158 NA
BRANCH  22  23
ATOM     23  S   UNL d   1     -39.052  14.867  16.563  0.00  0.00     0.285 S 
ATOM     24  O   UNL d   1     -38.658  15.528  16.269  0.00  0.00    -0.198 OA
ATOM     25  O   UNL d   1     -39.463  14.215  16.886  0.00  0.00    -0.198 OA
BRANCH  23  26
ATOM     26  C   UNL d   1     -38.776  14.412  15.949  0.00  0.00     0.105 A 
ATOM     27  C   UNL d   1     -38.918  14.653  15.174  0.00  0.00     0.013 A 
ATOM     28  C   UNL d   1     -38.631  14.180  14.532  0.00  0.00     0.001 A 
ATOM     29  C   UNL d   1     -38.219  13.495  14.687  0.00  0.00     0.000 A 
ATOM     30  C   UNL d   1     -38.079  13.256  15.477  0.00  0.00     0.001 A 
ATOM     31  C   UNL d   1     -37.948  13.047  14.055  0.00  0.00     0.000 C 
ATOM     32  C   UNL d   1     -38.359  13.718  16.105  0.00  0.00     0.013 A 
ENDBRANCH  23  26
ENDBRANCH  22  23
ENDBRANCH   2  22
TORSDOF 6
ENDMDL
MODEL 5
REMARK VINA RESULT:      -4.3      2.212      6.041
REMARK  6 active torsions:
REMARK  status: ('A' for Active; 'I' for Inactive)
REMARK    1  A    between atoms: N_6  and  S_1 
REMARK    2  A    between atoms: C_12  and  S_1 
REMARK    3  A    between atoms: C_2  and  N_5 
REMARK    4  A    between atoms: C_4  and  C_7 
REMARK       I    between atoms: N_5  and  C_4 
REMARK    5  A    between atoms: C_10  and  N_6 
REMARK    6  A    between atoms: C_15  and  C_8 
ROOT
ATOM      1  C   UNL d   1     -44.472  12.149  22.391  0.00  0.00     0.076 A 
ATOM      2  C   UNL d   1     -43.774  12.344  22.010  0.00  0.00     0.098 A 
ATOM      3  C   UNL d   1     -44.492  11.513  22.915  0.00  0.00     0.006 A 
ATOM      4  C   UNL d   1     -43.087  11.902  22.149  0.00  0.00     0.020 A 
ATOM      5  C   UNL d   1     -43.804  11.071  23.055  0.00  0.00     0.000 A 
ATOM      6  C   UNL d   1     -43.100  11.268  22.670  0.00  0.00     0.002 A 
ENDROOT
BRANCH   1   7
ATOM      7  C   UNL d   1     -45.157  12.588  22.252  0.00  0.00     0.282 C 
ATOM      8  N   UNL d   1     -45.626  12.826  22.879  0.00  0.00    -0.183 NA
ATOM      9  O   UNL d   1     -45.366  12.787  21.480  0.00  0.00    -0.265 OA
BRANCH   8  10
ATOM     10  C   UNL d   1     -46.313  13.267  22.739  0.00  0.00     0.197 A 
ATOM     11  N   UNL d   1     -47.005  12.976  22.441  0.00  0.00    -0.221 NA
ATOM     12  C   UNL d   1     -47.544  13.597  22.391  0.00  0.00     0.090 A 
ATOM     13  C   UNL d   1     -47.162  14.279  22.667  0.00  0.00     0.058 A 
ATOM     14  S   UNL d   1     -46.391  14.073  22.885  0.00  0.00    -0.046 SA
BRANCH  12  15
ATOM     15  C   UNL d   1     -48.327  13.637  22.132  0.00  0.00     0.018 A 
ATOM     16  C   UNL d   1     -48.630  13.051  21.624  0.00  0.00     0.004 A 
ATOM     17  C   UNL d   1     -49.413  13.094  21.367  0.00  0.00     0.030 A 
ATOM     18  C   UNL d   1     -49.887  13.720  21.620  0.00  0.00     0.140 A 
ATOM     19  C   UNL d   1     -49.589  14.298  22.121  0.00  0.00     0.030 A 
ATOM     20  F   UNL d   1     -50.668  13.765  21.365  0.00  0.00    -0.204 F 
ATOM     21  C   UNL d   1     -48.811  14.261  22.379  0.00  0.00     0.004 A 
ENDBRANCH  12  15
ENDBRANCH   8  10
ENDBRANCH   1   7
BRANCH   2  22
ATOM     22  N   UNL d   1     -43.755  12.980  21.485  0.00  0.00    -0.158 NA
BRANCH  22  23
ATOM     23  S   UNL d   1     -43.012  13.289  21.217  0.00  0.00     0.285 S 
ATOM     24  O   UNL d   1     -43.036  13.841  21.827  0.00  0.00    -0.198 OA
ATOM     25  O   UNL d   1     -43.017  12.716  20.607  0.00  0.00    -0.198 OA
BRANCH  23  26
ATOM     26  C   UNL d   1     -42.300  13.584  20.959  0.00  0.00     0.105 A 
ATOM     27  C   UNL d   1     -42.088  13.490  20.169  0.00  0.00     0.013 A 
ATOM     28  C   UNL d   1     -41.346  13.797  19.898  0.00  0.00     0.001 A 
ATOM     29  C   UNL d   1     -40.852  14.182  20.420  0.00  0.00     0.000 A 
ATOM     30  C   UNL d   1     -41.076  14.274  21.222  0.00  0.00     0.001 A 
ATOM     31  C   UNL d   1     -40.138  14.474  20.143  0.00  0.00     0.000 C 
ATOM     32  C   UNL d   1     -41.800  13.974  21.487  0.00  0.00     0.013 A 
ENDBRANCH  23  26
ENDBRANCH  22  23
ENDBRANCH   2  22
TORSDOF 6
ENDMDL
MODEL 6
REMARK VINA RESULT:      -4.1      4.066      6.662
REMARK  6 active torsions:
REMARK  status: ('A' for Active; 'I' for Inactive)
REMARK    1  A    between atoms: N_6  and  S_1 
REMARK    2  A    between atoms: C_12  and  S_1 
REMARK    3  A    between atoms: C_2  and  N_5 
REMARK    4  A    between atoms: C_4  and  C_7 
REMARK       I    between atoms: N_5  and  C_4 
REMARK    5  A    between atoms: C_10  and  N_6 
REMARK    6  A    between atoms: C_15  and  C_8 
ROOT
ATOM      1  C   UNL d   1     -39.175  15.460  20.658  0.00  0.00     0.076 A 
ATOM      2  C   UNL d   1     -39.856  15.100  20.936  0.00  0.00     0.098 A 
ATOM      3  C   UNL d   1     -38.627  15.771  21.190  0.00  0.00     0.006 A 
ATOM      4  C   UNL d   1     -39.996  15.048  21.752  0.00  0.00     0.020 A 
ATOM      5  C   UNL d   1     -38.767  15.719  22.006  0.00  0.00     0.000 A 
ATOM      6  C   UNL d   1     -39.454  15.356  22.285  0.00  0.00     0.002 A 
ENDROOT
BRANCH   1   7
ATOM      7  C   UNL d   1     -39.035  15.512  19.847  0.00  0.00     0.282 C 
ATOM      8  N   UNL d   1     -38.374  15.158  19.521  0.00  0.00    -0.183 NA
ATOM      9  O   UNL d   1     -39.564  15.922  19.366  0.00  0.00    -0.265 OA
BRANCH   8  10
ATOM     10  C   UNL d   1     -38.234  15.210  18.705  0.00  0.00     0.197 A 
ATOM     11  N   UNL d   1     -38.283  14.598  18.181  0.00  0.00    -0.221 NA
ATOM     12  C   UNL d   1     -38.103  14.888  17.432  0.00  0.00     0.090 A 
ATOM     13  C   UNL d   1     -37.941  15.697  17.511  0.00  0.00     0.058 A 
ATOM     14  S   UNL d   1     -38.023  15.899  18.309  0.00  0.00    -0.046 SA
BRANCH  12  15
ATOM     15  C   UNL d   1     -38.063  14.529  16.688  0.00  0.00     0.018 A 
ATOM     16  C   UNL d   1     -38.008  14.997  16.001  0.00  0.00     0.004 A 
ATOM     17  C   UNL d   1     -37.968  14.635  15.260  0.00  0.00     0.030 A 
ATOM     18  C   UNL d   1     -37.984  13.812  15.211  0.00  0.00     0.140 A 
ATOM     19  C   UNL d   1     -38.038  13.351  15.889  0.00  0.00     0.030 A 
ATOM     20  F   UNL d   1     -37.944  13.449  14.474  0.00  0.00    -0.204 F 
ATOM     21  C   UNL d   1     -38.077  13.704  16.628  0.00  0.00     0.004 A 
ENDBRANCH  12  15
ENDBRANCH   8  10
ENDBRANCH   1   7
BRANCH   2  22
ATOM     22  N   UNL d   1     -40.404  14.789  20.404  0.00  0.00    -0.158 NA
BRANCH  22  23
ATOM     23  S   UNL d   1     -41.062  14.335  20.687  0.00  0.00     0.285 S 
ATOM     24  O   UNL d   1     -40.683  13.651  20.432  0.00  0.00    -0.198 OA
ATOM     25  O   UNL d   1     -41.422  15.048  20.936  0.00  0.00    -0.198 OA
BRANCH  23  26
ATOM     26  C   UNL d   1     -41.693  13.901  20.958  0.00  0.00     0.105 A 
ATOM     27  C   UNL d   1     -42.417  14.276  21.079  0.00  0.00     0.013 A 
ATOM     28  C   UNL d   1     -43.076  13.824  21.362  0.00  0.00     0.001 A 
ATOM     29  C   UNL d   1     -42.989  13.029  21.511  0.00  0.00     0.000 A 
ATOM     30  C   UNL d   1     -42.249  12.655  21.385  0.00  0.00     0.001 A 
ATOM     31  C   UNL d   1     -43.636  12.605  21.784  0.00  0.00     0.000 C 
ATOM     32  C   UNL d   1     -41.604  13.095  21.109  0.00  0.00     0.013 A 
ENDBRANCH  23  26
ENDBRANCH  22  23
ENDBRANCH   2  22
TORSDOF 6
ENDMDL
