MODEL 1
REMARK VINA RESULT:       2.7      0.000      0.000
REMARK  6 active torsions:
REMARK  status: ('A' for Active; 'I' for Inactive)
REMARK    1  A    between atoms: C_11  and  C_3 
REMARK    2  A    between atoms: C_12  and  C_4 
REMARK    3  A    between atoms: C_13  and  C_7 
REMARK    4  A    between atoms: N_15  and  C_11 
REMARK    5  A    between atoms: N_14  and  C_12 
REMARK    6  A    between atoms: O_24  and  C_21 
ROOT
ATOM      1  C   UNL d   1      31.114  18.105 -24.742  0.00  0.00     0.101 A 
ATOM      2  C   UNL d   1      31.649  17.483 -24.655  0.00  0.00     0.111 A 
ATOM      3  C   UNL d   1      31.386  16.701 -24.693  0.00  0.00     0.080 A 
ATOM      4  C   UNL d   1      30.056  17.173 -24.904  0.00  0.00     0.096 A 
ATOM      5  C   UNL d   1      31.386  18.889 -24.702  0.00  0.00     0.203 A 
ATOM      6  C   UNL d   1      30.316  17.945 -24.866  0.00  0.00     0.205 A 
ATOM      7  C   UNL d   1      32.187  19.047 -24.577  0.00  0.00     0.064 A 
ATOM      8  C   UNL d   1      30.592  16.550 -24.817  0.00  0.00     0.203 A 
ATOM      9  O   UNL d   1      32.458  17.631 -24.529  0.00  0.00    -0.305 OA
ATOM     10  C   UNL d   1      32.729  18.417 -24.490  0.00  0.00     0.126 A 
ATOM     11  O   UNL d   1      30.856  19.506 -24.788  0.00  0.00    -0.286 OA
ATOM     12  O   UNL d   1      29.780  18.568 -24.953  0.00  0.00    -0.286 OA
ATOM     13  O   UNL d   1      30.322  15.763 -24.856  0.00  0.00    -0.286 OA
ENDROOT
BRANCH   7  14
ATOM     14  C   UNL d   1      32.450  19.828 -24.539  0.00  0.00     0.005 A 
ATOM     15  C   UNL d   1      32.175  20.376 -25.096  0.00  0.00     0.002 A 
ATOM     16  C   UNL d   1      32.438  21.157 -25.059  0.00  0.00     0.024 A 
ATOM     17  C   UNL d   1      32.971  21.391 -24.472  0.00  0.00     0.094 A 
ATOM     18  C   UNL d   1      33.241  20.840 -23.921  0.00  0.00     0.024 A 
ATOM     19  C   UNL d   1      32.983  20.057 -23.951  0.00  0.00     0.002 A 
BRANCH  17  20
ATOM     20  O   UNL d   1      33.234  22.172 -24.434  0.00  0.00    -0.328 OA
ATOM     21  C   UNL d   1      33.088  22.621 -23.755  0.00  0.00     0.181 C 
ENDBRANCH  17  20
ENDBRANCH   7  14
BRANCH   3  22
ATOM     22  C   UNL d   1      31.929  16.085 -24.605  0.00  0.00     0.085 C 
BRANCH  22  23
ATOM     23  N   UNL d   1      32.182  15.873 -23.841  0.00  0.00    -0.302 N 
ATOM     24  C   UNL d   1      31.623  15.719 -23.250  0.00  0.00     0.080 A 
ATOM     25  C   UNL d   1      31.876  15.510 -22.498  0.00  0.00     0.019 A 
ATOM     26  C   UNL d   1      32.688  15.453 -22.330  0.00  0.00     0.003 A 
ATOM     27  C   UNL d   1      33.240  15.606 -22.920  0.00  0.00     0.019 A 
ATOM     28  C   UNL d   1      32.993  15.817 -23.679  0.00  0.00     0.080 A 
ENDBRANCH  22  23
ENDBRANCH   3  22
BRANCH   4  29
ATOM     29  C   UNL d   1      29.256  17.016 -25.029  0.00  0.00     0.087 C 
BRANCH  29  30
ATOM     30  N   UNL d   1      28.776  16.784 -24.398  0.00  0.00    -0.302 N 
ATOM     31  C   UNL d   1      28.636  15.983 -24.256  0.00  0.00     0.080 A 
ATOM     32  C   UNL d   1      28.156  15.752 -23.625  0.00  0.00     0.019 A 
ATOM     33  C   UNL d   1      27.814  16.324 -23.133  0.00  0.00     0.003 A 
ATOM     34  C   UNL d   1      27.953  17.125 -23.275  0.00  0.00     0.019 A 
ATOM     35  C   UNL d   1      28.433  17.357 -23.906  0.00  0.00     0.080 A 
ENDBRANCH  29  30
ENDBRANCH   4  29
TORSDOF 6
ENDMDL
MODEL 2
REMARK VINA RESULT:       3.5      1.703      2.256
REMARK  6 active torsions:
REMARK  status: ('A' for Active; 'I' for Inactive)
REMARK    1  A    between atoms: C_11  and  C_3 
REMARK    2  A    between atoms: C_12  and  C_4 
REMARK    3  A    between atoms: C_13  and  C_7 
REMARK    4  A    between atoms: N_15  and  C_11 
REMARK    5  A    between atoms: N_14  and  C_12 
REMARK    6  A    between atoms: O_24  and  C_21 
ROOT
ATOM      1  C   UNL d   1      31.912  19.218 -23.494  0.00  0.00     0.101 A 
ATOM      2  C   UNL d   1      32.572  18.724 -23.542  0.00  0.00     0.111 A 
ATOM      3  C   UNL d   1      32.576  18.087 -24.067  0.00  0.00     0.080 A 
ATOM      4  C   UNL d   1      31.262  18.444 -24.491  0.00  0.00     0.096 A 
ATOM      5  C   UNL d   1      31.915  19.857 -22.963  0.00  0.00     0.203 A 
ATOM      6  C   UNL d   1      31.257  19.074 -23.972  0.00  0.00     0.205 A 
ATOM      7  C   UNL d   1      32.573  19.998 -22.485  0.00  0.00     0.064 A 
ATOM      8  C   UNL d   1      31.922  17.951 -24.538  0.00  0.00     0.203 A 
ATOM      9  O   UNL d   1      33.240  18.858 -23.065  0.00  0.00    -0.305 OA
ATOM     10  C   UNL d   1      33.241  19.499 -22.533  0.00  0.00     0.126 A 
ATOM     11  O   UNL d   1      31.261  20.346 -22.916  0.00  0.00    -0.286 OA
ATOM     12  O   UNL d   1      30.597  19.568 -23.924  0.00  0.00    -0.286 OA
ATOM     13  O   UNL d   1      31.922  17.309 -25.070  0.00  0.00    -0.286 OA
ENDROOT
BRANCH   7  14
ATOM     14  C   UNL d   1      32.569  20.635 -21.960  0.00  0.00     0.005 A 
ATOM     15  C   UNL d   1      32.982  21.326 -22.157  0.00  0.00     0.002 A 
ATOM     16  C   UNL d   1      32.979  21.962 -21.633  0.00  0.00     0.024 A 
ATOM     17  C   UNL d   1      32.567  21.913 -20.917  0.00  0.00     0.094 A 
ATOM     18  C   UNL d   1      32.159  21.222 -20.728  0.00  0.00     0.024 A 
ATOM     19  C   UNL d   1      32.157  20.581 -21.246  0.00  0.00     0.002 A 
BRANCH  17  20
ATOM     20  O   UNL d   1      32.564  22.549 -20.393  0.00  0.00    -0.328 OA
ATOM     21  C   UNL d   1      32.151  23.238 -20.588  0.00  0.00     0.181 C 
ENDBRANCH  17  20
ENDBRANCH   7  14
BRANCH   3  22
ATOM     22  C   UNL d   1      33.241  17.598 -24.108  0.00  0.00     0.085 C 
BRANCH  22  23
ATOM     23  N   UNL d   1      33.241  16.877 -23.692  0.00  0.00    -0.302 N 
ATOM     24  C   UNL d   1      33.240  16.162 -24.108  0.00  0.00     0.080 A 
ATOM     25  C   UNL d   1      33.240  15.453 -23.695  0.00  0.00     0.019 A 
ATOM     26  C   UNL d   1      33.240  15.453 -22.864  0.00  0.00     0.003 A 
ATOM     27  C   UNL d   1      33.240  16.165 -22.454  0.00  0.00     0.019 A 
ATOM     28  C   UNL d   1      33.241  16.882 -22.862  0.00  0.00     0.080 A 
ENDBRANCH  22  23
ENDBRANCH   3  22
BRANCH   4  29
ATOM     29  C   UNL d   1      30.604  18.303 -24.968  0.00  0.00     0.087 C 
BRANCH  29  30
ATOM     30  N   UNL d   1      30.028  17.761 -24.730  0.00  0.00    -0.302 N 
ATOM     31  C   UNL d   1      30.090  16.968 -24.948  0.00  0.00     0.080 A 
ATOM     32  C   UNL d   1      29.514  16.426 -24.710  0.00  0.00     0.019 A 
ATOM     33  C   UNL d   1      28.872  16.679 -24.251  0.00  0.00     0.003 A 
ATOM     34  C   UNL d   1      28.810  17.473 -24.032  0.00  0.00     0.019 A 
ATOM     35  C   UNL d   1      29.386  18.015 -24.271  0.00  0.00     0.080 A 
ENDBRANCH  29  30
ENDBRANCH   4  29
TORSDOF 6
ENDMDL
MODEL 3
REMARK VINA RESULT:       5.0      3.693      6.514
REMARK  6 active torsions:
REMARK  status: ('A' for Active; 'I' for Inactive)
REMARK    1  A    between atoms: C_11  and  C_3 
REMARK    2  A    between atoms: C_12  and  C_4 
REMARK    3  A    between atoms: C_13  and  C_7 
REMARK    4  A    between atoms: N_15  and  C_11 
REMARK    5  A    between atoms: N_14  and  C_12 
REMARK    6  A    between atoms: O_24  and  C_21 
ROOT
ATOM      1  C   UNL d   1      32.985  22.134 -21.364  0.00  0.00     0.101 A 
ATOM      2  C   UNL d   1      32.984  22.795 -21.860  0.00  0.00     0.111 A 
ATOM      3  C   UNL d   1      33.069  22.701 -22.675  0.00  0.00     0.080 A 
ATOM      4  C   UNL d   1      33.154  21.289 -22.492  0.00  0.00     0.096 A 
ATOM      5  C   UNL d   1      32.899  22.236 -20.544  0.00  0.00     0.203 A 
ATOM      6  C   UNL d   1      33.070  21.381 -21.686  0.00  0.00     0.205 A 
ATOM      7  C   UNL d   1      32.813  22.993 -20.225  0.00  0.00     0.064 A 
ATOM      8  C   UNL d   1      33.154  21.950 -22.987  0.00  0.00     0.203 A 
ATOM      9  O   UNL d   1      32.899  23.561 -21.548  0.00  0.00    -0.305 OA
ATOM     10  C   UNL d   1      32.813  23.661 -20.726  0.00  0.00     0.126 A 
ATOM     11  O   UNL d   1      32.899  21.582 -20.053  0.00  0.00    -0.286 OA
ATOM     12  O   UNL d   1      33.071  20.720 -21.190  0.00  0.00    -0.286 OA
ATOM     13  O   UNL d   1      33.240  21.851 -23.810  0.00  0.00    -0.286 OA
ENDROOT
BRANCH   7  14
ATOM     14  C   UNL d   1      32.728  23.086 -19.409  0.00  0.00     0.005 A 
ATOM     15  C   UNL d   1      32.153  23.608 -19.119  0.00  0.00     0.002 A 
ATOM     16  C   UNL d   1      32.067  23.702 -18.304  0.00  0.00     0.024 A 
ATOM     17  C   UNL d   1      32.550  23.281 -17.781  0.00  0.00     0.094 A 
ATOM     18  C   UNL d   1      33.120  22.764 -18.078  0.00  0.00     0.024 A 
ATOM     19  C   UNL d   1      33.212  22.663 -18.891  0.00  0.00     0.002 A 
BRANCH  17  20
ATOM     20  O   UNL d   1      32.464  23.375 -16.967  0.00  0.00    -0.328 OA
ATOM     21  C   UNL d   1      32.944  22.941 -16.452  0.00  0.00     0.181 C 
ENDBRANCH  17  20
ENDBRANCH   7  14
BRANCH   3  22
ATOM     22  C   UNL d   1      33.068  23.367 -23.163  0.00  0.00     0.085 C 
BRANCH  22  23
ATOM     23  N   UNL d   1      32.461  23.456 -23.728  0.00  0.00    -0.302 N 
ATOM     24  C   UNL d   1      32.645  23.442 -24.534  0.00  0.00     0.080 A 
ATOM     25  C   UNL d   1      32.045  23.530 -25.087  0.00  0.00     0.019 A 
ATOM     26  C   UNL d   1      31.258  23.632 -24.839  0.00  0.00     0.003 A 
ATOM     27  C   UNL d   1      31.080  23.645 -24.037  0.00  0.00     0.019 A 
ATOM     28  C   UNL d   1      31.678  23.557 -23.475  0.00  0.00     0.080 A 
ENDBRANCH  22  23
ENDBRANCH   3  22
BRANCH   4  29
ATOM     29  C   UNL d   1      33.240  20.533 -22.811  0.00  0.00     0.087 C 
BRANCH  29  30
ATOM     30  N   UNL d   1      32.655  20.223 -23.306  0.00  0.00    -0.302 N 
ATOM     31  C   UNL d   1      32.813  20.100 -24.106  0.00  0.00     0.080 A 
ATOM     32  C   UNL d   1      32.229  19.790 -24.601  0.00  0.00     0.019 A 
ATOM     33  C   UNL d   1      31.483  19.603 -24.293  0.00  0.00     0.003 A 
ATOM     34  C   UNL d   1      31.325  19.726 -23.492  0.00  0.00     0.019 A 
ATOM     35  C   UNL d   1      31.909  20.036 -22.998  0.00  0.00     0.080 A 
ENDBRANCH  29  30
ENDBRANCH   4  29
TORSDOF 6
ENDMDL
