MODEL 1
REMARK VINA RESULT:      24.7      0.000      0.000
REMARK  6 active torsions:
REMARK  status: ('A' for Active; 'I' for Inactive)
REMARK    1  A    between atoms: C_10  and  C_2 
REMARK    2  A    between atoms: S_12  and  C_7 
REMARK    3  A    between atoms: C_11  and  C_14 
REMARK    4  A    between atoms: O_15  and  C_11 
REMARK    5  A    between atoms: C_14  and  S_12 
REMARK    6  A    between atoms: C_18  and  O_15 
ROOT
ATOM      1  N   UNL d   1      14.629  13.292  -1.095  0.00  0.00    -0.191 N 
ATOM      2  C   UNL d   1      15.026  13.861  -0.659  0.00  0.00     0.187 A 
ATOM      3  N   UNL d   1      15.405  13.481  -0.039  0.00  0.00    -0.127 NA
ATOM      4  C   UNL d   1      14.754  12.557  -0.757  0.00  0.00     0.187 A 
ATOM      5  N   UNL d   1      14.152  13.352  -1.783  0.00  0.00    -0.156 NA
ATOM      6  N   UNL d   1      15.242  12.673  -0.092  0.00  0.00    -0.127 NA
ATOM      7  C   UNL d   1      13.814  12.675  -2.113  0.00  0.00     0.131 A 
ATOM      8  C   UNL d   1      14.417  11.880  -1.087  0.00  0.00     0.043 A 
ATOM      9  C   UNL d   1      13.947  11.939  -1.764  0.00  0.00     0.031 A 
ENDROOT
BRANCH   7  10
ATOM     10  S   UNL d   1      13.344  12.734  -2.790  0.00  0.00    -0.060 SA
BRANCH  10  11
ATOM     11  C   UNL d   1      13.371  12.141  -3.360  0.00  0.00     0.105 C 
BRANCH  11  12
ATOM     12  C   UNL d   1      13.171  12.309  -4.132  0.00  0.00     0.307 C 
ATOM     13  O   UNL d   1      12.770  13.008  -4.315  0.00  0.00    -0.258 OA
BRANCH  12  14
ATOM     14  O   UNL d   1      13.372  11.779  -4.728  0.00  0.00    -0.271 OA
BRANCH  14  15
ATOM     15  C   UNL d   1      13.373  12.029  -5.522  0.00  0.00     0.126 C 
ATOM     16  C   UNL d   1      13.969  11.783  -6.021  0.00  0.00     0.029 C 
ENDBRANCH  14  15
ENDBRANCH  12  14
ENDBRANCH  11  12
ENDBRANCH  10  11
ENDBRANCH   7  10
BRANCH   2  17
ATOM     17  C   UNL d   1      15.045  14.667  -0.807  0.00  0.00     0.038 A 
ATOM     18  C   UNL d   1      14.978  14.949  -1.573  0.00  0.00     0.003 A 
ATOM     19  C   UNL d   1      14.997  15.762  -1.725  0.00  0.00     0.000 A 
ATOM     20  C   UNL d   1      15.086  16.290  -1.094  0.00  0.00     0.000 A 
ATOM     21  C   UNL d   1      15.154  16.010  -0.321  0.00  0.00     0.000 A 
ATOM     22  C   UNL d   1      15.134  15.194  -0.175  0.00  0.00     0.003 A 
ENDBRANCH   2  17
TORSDOF 6
ENDMDL
