MODEL 1
REMARK VINA RESULT:      -8.8      0.000      0.000
REMARK  4 active torsions:
REMARK  status: ('A' for Active; 'I' for Inactive)
REMARK    1  A    between atoms: C_7  and  C_2 
REMARK    2  A    between atoms: C_12  and  C_4 
REMARK    3  A    between atoms: C_11  and  C_7 
REMARK    4  A    between atoms: N_18  and  C_12 
ROOT
ATOM      1  C   UNL d   1     -48.106  13.547  23.068  0.00  0.00     0.108 A 
ATOM      2  C   UNL d   1     -48.500  14.784  22.733  0.00  0.00     0.141 A 
ATOM      3  C   UNL d   1     -47.434  13.986  22.877  0.00  0.00     0.064 A 
ATOM      4  C   UNL d   1     -48.034  12.761  23.297  0.00  0.00     0.079 A 
ATOM      5  O   UNL d   1     -48.768  14.039  22.980  0.00  0.00    -0.304 OA
ATOM      6  C   UNL d   1     -47.678  14.749  22.670  0.00  0.00     0.220 A 
ATOM      7  C   UNL d   1     -46.686  13.639  22.913  0.00  0.00     0.008 A 
ATOM      8  C   UNL d   1     -47.289  12.411  23.335  0.00  0.00     0.199 A 
ATOM      9  C   UNL d   1     -46.614  12.851  23.143  0.00  0.00     0.042 A 
ATOM     10  O   UNL d   1     -47.184  15.373  22.439  0.00  0.00    -0.284 OA
ATOM     11  O   UNL d   1     -47.214  11.626  23.563  0.00  0.00    -0.286 OA
ATOM     12  C   UNL d   1     -46.014  14.077  22.722  0.00  0.00     0.000 C 
ENDROOT
BRANCH   2  13
ATOM     13  C   UNL d   1     -48.973  15.442  22.579  0.00  0.00     0.053 C 
BRANCH  13  14
ATOM     14  C   UNL d   1     -49.745  15.477  22.884  0.00  0.00     0.102 A 
ATOM     15  O   UNL d   1     -50.426  15.213  22.505  0.00  0.00    -0.305 OA
ATOM     16  C   UNL d   1     -51.063  15.355  23.008  0.00  0.00     0.123 A 
ATOM     17  C   UNL d   1     -50.773  15.706  23.693  0.00  0.00     0.029 A 
ATOM     18  C   UNL d   1     -49.952  15.780  23.612  0.00  0.00     0.027 A 
ENDBRANCH  13  14
ENDBRANCH   2  13
BRANCH   4  19
ATOM     19  C   UNL d   1     -48.705  12.319  23.489  0.00  0.00     0.086 C 
BRANCH  19  20
ATOM     20  N   UNL d   1     -49.085  11.876  22.911  0.00  0.00    -0.300 N 
ATOM     21  C   UNL d   1     -48.647  11.457  22.351  0.00  0.00     0.100 C 
ATOM     22  C   UNL d   1     -49.915  11.845  22.884  0.00  0.00     0.100 C 
ENDBRANCH  19  20
ENDBRANCH   4  19
TORSDOF 4
ENDMDL
MODEL 2
REMARK VINA RESULT:      -8.0      1.220      3.833
REMARK  4 active torsions:
REMARK  status: ('A' for Active; 'I' for Inactive)
REMARK    1  A    between atoms: C_7  and  C_2 
REMARK    2  A    between atoms: C_12  and  C_4 
REMARK    3  A    between atoms: C_11  and  C_7 
REMARK    4  A    between atoms: N_18  and  C_12 
ROOT
ATOM      1  C   UNL d   1     -49.101  13.194  22.821  0.00  0.00     0.108 A 
ATOM      2  C   UNL d   1     -47.968  12.623  23.253  0.00  0.00     0.141 A 
ATOM      3  C   UNL d   1     -49.288  12.441  23.103  0.00  0.00     0.064 A 
ATOM      4  C   UNL d   1     -49.693  13.678  22.518  0.00  0.00     0.079 A 
ATOM      5  O   UNL d   1     -48.285  13.309  22.913  0.00  0.00    -0.304 OA
ATOM      6  C   UNL d   1     -48.587  12.089  23.370  0.00  0.00     0.220 A 
ATOM      7  C   UNL d   1     -50.066  12.169  23.084  0.00  0.00     0.008 A 
ATOM      8  C   UNL d   1     -50.472  13.411  22.497  0.00  0.00     0.199 A 
ATOM      9  C   UNL d   1     -50.659  12.655  22.780  0.00  0.00     0.042 A 
ATOM     10  O   UNL d   1     -48.517  11.331  23.698  0.00  0.00    -0.284 OA
ATOM     11  O   UNL d   1     -51.064  13.892  22.195  0.00  0.00    -0.286 OA
ATOM     12  C   UNL d   1     -50.252  11.417  23.366  0.00  0.00     0.000 C 
ENDROOT
BRANCH   2  13
ATOM     13  C   UNL d   1     -47.175  12.497  23.441  0.00  0.00     0.053 C 
BRANCH  13  14
ATOM     14  C   UNL d   1     -46.585  12.947  23.066  0.00  0.00     0.102 A 
ATOM     15  O   UNL d   1     -46.353  13.708  23.274  0.00  0.00    -0.305 OA
ATOM     16  C   UNL d   1     -45.756  13.937  22.756  0.00  0.00     0.123 A 
ATOM     17  C   UNL d   1     -45.622  13.317  22.231  0.00  0.00     0.029 A 
ATOM     18  C   UNL d   1     -46.140  12.703  22.427  0.00  0.00     0.027 A 
ENDBRANCH  13  14
ENDBRANCH   2  13
BRANCH   4  19
ATOM     19  C   UNL d   1     -49.511  14.432  22.235  0.00  0.00     0.086 C 
BRANCH  19  20
ATOM     20  N   UNL d   1     -49.618  15.090  22.716  0.00  0.00    -0.300 N 
ATOM     21  C   UNL d   1     -50.344  15.223  23.083  0.00  0.00     0.100 C 
ATOM     22  C   UNL d   1     -48.997  15.628  22.837  0.00  0.00     0.100 C 
ENDBRANCH  19  20
ENDBRANCH   4  19
TORSDOF 4
ENDMDL
MODEL 3
REMARK VINA RESULT:      -7.9      1.502      2.656
REMARK  4 active torsions:
REMARK  status: ('A' for Active; 'I' for Inactive)
REMARK    1  A    between atoms: C_7  and  C_2 
REMARK    2  A    between atoms: C_12  and  C_4 
REMARK    3  A    between atoms: C_11  and  C_7 
REMARK    4  A    between atoms: N_18  and  C_12 
ROOT
ATOM      1  C   UNL d   1     -47.966  12.846  23.371  0.00  0.00     0.108 A 
ATOM      2  C   UNL d   1     -49.270  12.553  23.271  0.00  0.00     0.141 A 
ATOM      3  C   UNL d   1     -48.051  12.031  23.468  0.00  0.00     0.064 A 
ATOM      4  C   UNL d   1     -47.219  13.188  23.405  0.00  0.00     0.079 A 
ATOM      5  O   UNL d   1     -48.718  13.171  23.248  0.00  0.00    -0.304 OA
ATOM      6  C   UNL d   1     -48.857  11.851  23.406  0.00  0.00     0.220 A 
ATOM      7  C   UNL d   1     -47.390  11.555  23.600  0.00  0.00     0.008 A 
ATOM      8  C   UNL d   1     -46.556  12.717  23.537  0.00  0.00     0.199 A 
ATOM      9  C   UNL d   1     -46.642  11.899  23.635  0.00  0.00     0.042 A 
ATOM     10  O   UNL d   1     -49.194  11.096  23.469  0.00  0.00    -0.284 OA
ATOM     11  O   UNL d   1     -45.809  13.056  23.571  0.00  0.00    -0.286 OA
ATOM     12  C   UNL d   1     -47.476  10.740  23.698  0.00  0.00     0.000 C 
ENDROOT
BRANCH   2  13
ATOM     13  C   UNL d   1     -50.086  12.627  23.175  0.00  0.00     0.053 C 
BRANCH  13  14
ATOM     14  C   UNL d   1     -50.390  13.195  22.650  0.00  0.00     0.102 A 
ATOM     15  O   UNL d   1     -50.577  13.974  22.838  0.00  0.00    -0.305 OA
ATOM     16  C   UNL d   1     -50.859  14.335  22.153  0.00  0.00     0.123 A 
ATOM     17  C   UNL d   1     -50.844  13.778  21.548  0.00  0.00     0.029 A 
ATOM     18  C   UNL d   1     -50.552  13.070  21.860  0.00  0.00     0.027 A 
ENDBRANCH  13  14
ENDBRANCH   2  13
BRANCH   4  19
ATOM     19  C   UNL d   1     -47.129  14.004  23.308  0.00  0.00     0.086 C 
BRANCH  19  20
ATOM     20  N   UNL d   1     -46.872  14.307  22.589  0.00  0.00    -0.300 N 
ATOM     21  C   UNL d   1     -46.202  13.995  22.221  0.00  0.00     0.100 C 
ATOM     22  C   UNL d   1     -47.282  14.930  22.224  0.00  0.00     0.100 C 
ENDBRANCH  19  20
ENDBRANCH   4  19
TORSDOF 4
ENDMDL
MODEL 4
REMARK VINA RESULT:      -7.4      1.171      3.272
REMARK  4 active torsions:
REMARK  status: ('A' for Active; 'I' for Inactive)
REMARK    1  A    between atoms: C_7  and  C_2 
REMARK    2  A    between atoms: C_12  and  C_4 
REMARK    3  A    between atoms: C_11  and  C_7 
REMARK    4  A    between atoms: N_18  and  C_12 
ROOT
ATOM      1  C   UNL d   1     -48.695  13.429  22.565  0.00  0.00     0.108 A 
ATOM      2  C   UNL d   1     -47.497  13.975  22.817  0.00  0.00     0.141 A 
ATOM      3  C   UNL d   1     -48.765  14.247  22.477  0.00  0.00     0.064 A 
ATOM      4  C   UNL d   1     -49.349  12.945  22.443  0.00  0.00     0.079 A 
ATOM      5  O   UNL d   1     -47.911  13.258  22.775  0.00  0.00    -0.304 OA
ATOM      6  C   UNL d   1     -48.024  14.583  22.633  0.00  0.00     0.220 A 
ATOM      7  C   UNL d   1     -49.488  14.584  22.268  0.00  0.00     0.008 A 
ATOM      8  C   UNL d   1     -50.073  13.277  22.235  0.00  0.00     0.199 A 
ATOM      9  C   UNL d   1     -50.143  14.098  22.147  0.00  0.00     0.042 A 
ATOM     10  O   UNL d   1     -47.841  15.391  22.610  0.00  0.00    -0.284 OA
ATOM     11  O   UNL d   1     -50.727  12.796  22.113  0.00  0.00    -0.286 OA
ATOM     12  C   UNL d   1     -49.558  15.401  22.181  0.00  0.00     0.000 C 
ENDROOT
BRANCH   2  13
ATOM     13  C   UNL d   1     -46.699  14.063  23.008  0.00  0.00     0.053 C 
BRANCH  13  14
ATOM     14  C   UNL d   1     -46.165  13.449  22.842  0.00  0.00     0.102 A 
ATOM     15  O   UNL d   1     -45.985  12.818  23.339  0.00  0.00    -0.305 OA
ATOM     16  C   UNL d   1     -45.431  12.347  22.953  0.00  0.00     0.123 A 
ATOM     17  C   UNL d   1     -45.271  12.688  22.222  0.00  0.00     0.029 A 
ATOM     18  C   UNL d   1     -45.730  13.374  22.156  0.00  0.00     0.027 A 
ENDBRANCH  13  14
ENDBRANCH   2  13
BRANCH   4  19
ATOM     19  C   UNL d   1     -49.283  12.126  22.530  0.00  0.00     0.086 C 
BRANCH  19  20
ATOM     20  N   UNL d   1     -49.519  11.766  23.230  0.00  0.00    -0.300 N 
ATOM     21  C   UNL d   1     -48.971  11.366  23.698  0.00  0.00     0.100 C 
ATOM     22  C   UNL d   1     -50.313  11.801  23.474  0.00  0.00     0.100 C 
ENDBRANCH  19  20
ENDBRANCH   4  19
TORSDOF 4
ENDMDL
