MODEL 1
REMARK VINA RESULT:      51.6      0.000      0.000
REMARK  9 active torsions:
REMARK  status: ('A' for Active; 'I' for Inactive)
REMARK    1  A    between atoms: N_9  and  C_3 
REMARK    2  A    between atoms: S_14  and  C_6 
REMARK       I    between atoms: C_11  and  N_9 
REMARK    3  A    between atoms: C_18  and  C_11 
REMARK    4  A    between atoms: C_12  and  C_15 
REMARK    5  A    between atoms: O_25  and  C_12 
REMARK    6  A    between atoms: C_13  and  C_23 
REMARK       I    between atoms: N_16  and  C_13 
REMARK    7  A    between atoms: C_23  and  S_14 
REMARK    8  A    between atoms: C_24  and  N_16 
REMARK    9  A    between atoms: C_32  and  O_25 
ROOT
ATOM      1  C   UNL d   1      45.314 -15.550  37.404  0.00  0.00     0.079 A 
ATOM      2  C   UNL d   1      46.048 -15.695  37.776  0.00  0.00     0.187 A 
ATOM      3  C   UNL d   1      44.665 -16.002  37.605  0.00  0.00     0.171 A 
ATOM      4  N   UNL d   1      46.118 -16.288  38.342  0.00  0.00    -0.197 NA
ATOM      5  N   UNL d   1      44.719 -16.601  38.170  0.00  0.00    -0.202 NA
ATOM      6  C   UNL d   1      45.452 -16.745  38.542  0.00  0.00     0.198 A 
ATOM      7  C   UNL d   1      45.423 -14.929  36.872  0.00  0.00     0.029 A 
ATOM      8  O   UNL d   1      46.604 -15.158  37.468  0.00  0.00    -0.289 OA
ATOM      9  C   UNL d   1      46.212 -14.686  36.907  0.00  0.00     0.102 A 
ATOM     10  C   UNL d   1      44.840 -14.603  36.383  0.00  0.00     0.002 C 
ATOM     11  C   UNL d   1      46.556 -14.079  36.466  0.00  0.00     0.027 C 
ENDROOT
BRANCH   6  12
ATOM     12  S   UNL d   1      45.519 -17.346  39.112  0.00  0.00    -0.043 SA
BRANCH  12  13
ATOM     13  C   UNL d   1      46.242 -17.497  39.468  0.00  0.00     0.101 C 
BRANCH  13  14
ATOM     14  C   UNL d   1      46.272 -17.745  40.255  0.00  0.00     0.286 C 
ATOM     15  N   UNL d   1      46.060 -18.514  40.447  0.00  0.00    -0.208 NA
ATOM     16  O   UNL d   1      46.513 -17.224  40.847  0.00  0.00    -0.265 OA
BRANCH  15  17
ATOM     17  C   UNL d   1      46.086 -18.773  41.230  0.00  0.00     0.085 A 
ATOM     18  C   UNL d   1      45.692 -18.356  41.815  0.00  0.00     0.019 A 
ATOM     19  C   UNL d   1      45.724 -18.622  42.595  0.00  0.00     0.007 A 
ATOM     20  C   UNL d   1      46.150 -19.303  42.785  0.00  0.00     0.064 A 
ATOM     21  C   UNL d   1      46.549 -19.722  42.187  0.00  0.00     0.007 A 
ATOM     22  C   UNL d   1      46.517 -19.458  41.412  0.00  0.00     0.019 A 
BRANCH  20  23
ATOM     23  C   UNL d   1      46.181 -19.569  43.570  0.00  0.00     0.300 C 
ATOM     24  O   UNL d   1      46.456 -20.329  43.739  0.00  0.00    -0.259 OA
BRANCH  23  25
ATOM     25  O   UNL d   1      45.938 -19.073  44.182  0.00  0.00    -0.271 OA
BRANCH  25  26
ATOM     26  C   UNL d   1      46.283 -18.332  44.280  0.00  0.00     0.126 C 
ATOM     27  C   UNL d   1      46.114 -17.885  44.947  0.00  0.00     0.029 C 
ENDBRANCH  25  26
ENDBRANCH  23  25
ENDBRANCH  20  23
ENDBRANCH  15  17
ENDBRANCH  13  14
ENDBRANCH  12  13
ENDBRANCH   6  12
BRANCH   3  28
ATOM     28  N   UNL d   1      43.941 -15.859  37.237  0.00  0.00    -0.189 NA
ATOM     29  C   UNL d   1      43.335 -15.473  37.654  0.00  0.00     0.281 C 
ATOM     30  O   UNL d   1      43.457 -15.233  38.434  0.00  0.00    -0.265 OA
BRANCH  29  31
ATOM     31  C   UNL d   1      42.612 -15.333  37.282  0.00  0.00     0.058 A 
ATOM     32  C   UNL d   1      42.352 -14.562  37.176  0.00  0.00     0.005 A 
ATOM     33  C   UNL d   1      41.634 -14.417  36.807  0.00  0.00     0.000 A 
ATOM     34  C   UNL d   1      41.168 -15.042  36.540  0.00  0.00     0.000 A 
ATOM     35  C   UNL d   1      41.433 -15.819  36.648  0.00  0.00     0.000 A 
ATOM     36  C   UNL d   1      42.159 -15.965  37.021  0.00  0.00     0.005 A 
ENDBRANCH  29  31
ENDBRANCH   3  28
TORSDOF 9
ENDMDL
