MODEL 1
REMARK VINA RESULT:      -4.0      0.000      0.000
REMARK  5 active torsions:
REMARK  status: ('A' for Active; 'I' for Inactive)
REMARK    1  A    between atoms: N_2  and  S_1 
REMARK    2  A    between atoms: C_4  and  S_1 
REMARK    3  A    between atoms: C_5  and  N_3 
REMARK    4  A    between atoms: C_11  and  C_4 
REMARK    5  A    between atoms: C_15  and  C_11 
ROOT
ATOM      1  N   UNL d   1      57.604   0.294  31.308  0.00  0.00    -0.226 N 
ATOM      2  N   UNL d   1      58.715  -0.092  30.165  0.00  0.00    -0.301 N 
ATOM      3  C   UNL d   1      57.433  -0.284  30.755  0.00  0.00     0.111 A 
ATOM      4  C   UNL d   1      58.331   0.680  31.291  0.00  0.00     0.111 A 
ATOM      5  C   UNL d   1      58.880   0.485  30.721  0.00  0.00     0.100 A 
ATOM      6  C   UNL d   1      57.988  -0.478  30.182  0.00  0.00     0.100 A 
ENDROOT
BRANCH   1   7
ATOM      7  S   UNL d   1      57.034   0.489  31.891  0.00  0.00     0.272 S 
ATOM      8  O   UNL d   1      57.648   0.648  32.435  0.00  0.00    -0.200 OA
ATOM      9  O   UNL d   1      56.429   0.330  31.349  0.00  0.00    -0.200 OA
BRANCH   7  10
ATOM     10  C   UNL d   1      56.474   0.682  32.468  0.00  0.00     0.116 C 
BRANCH  10  11
ATOM     11  C   UNL d   1      56.160   0.081  32.957  0.00  0.00     0.014 C 
BRANCH  11  12
ATOM     12  C   UNL d   1      55.667   0.280  33.593  0.00  0.00     0.001 A 
ATOM     13  C   UNL d   1      55.985   0.321  34.366  0.00  0.00     0.000 A 
ATOM     14  C   UNL d   1      55.493   0.522  35.009  0.00  0.00     0.000 A 
ATOM     15  C   UNL d   1      54.690   0.679  34.882  0.00  0.00     0.000 A 
ATOM     16  C   UNL d   1      54.364   0.640  34.109  0.00  0.00     0.000 A 
ATOM     17  C   UNL d   1      54.856   0.439  33.464  0.00  0.00     0.000 A 
ENDBRANCH  11  12
ENDBRANCH  10  11
ENDBRANCH   7  10
ENDBRANCH   1   7
BRANCH   2  18
ATOM     18  C   UNL d   1      59.270  -0.282  29.597  0.00  0.00     0.065 A 
ATOM     19  C   UNL d   1      59.470  -1.063  29.474  0.00  0.00     0.029 A 
ATOM     20  C   UNL d   1      60.023  -1.255  28.909  0.00  0.00     0.059 A 
ATOM     21 CL   UNL d   1      60.228  -2.049  28.782  0.00  0.00    -0.082 Cl
ATOM     22  C   UNL d   1      60.380  -0.663  28.462  0.00  0.00     0.011 A 
ATOM     23  C   UNL d   1      60.175   0.118  28.590  0.00  0.00     0.002 A 
ATOM     24  C   UNL d   1      59.621   0.308  29.156  0.00  0.00     0.018 A 
ENDBRANCH   2  18
TORSDOF 5
ENDMDL
MODEL 2
REMARK VINA RESULT:      -4.0      1.995      5.651
REMARK  5 active torsions:
REMARK  status: ('A' for Active; 'I' for Inactive)
REMARK    1  A    between atoms: N_2  and  S_1 
REMARK    2  A    between atoms: C_4  and  S_1 
REMARK    3  A    between atoms: C_5  and  N_3 
REMARK    4  A    between atoms: C_11  and  C_4 
REMARK    5  A    between atoms: C_15  and  C_11 
ROOT
ATOM      1  N   UNL d   1      56.922  -0.291  31.659  0.00  0.00    -0.226 N 
ATOM      2  N   UNL d   1      56.030   0.096  32.980  0.00  0.00    -0.301 N 
ATOM      3  C   UNL d   1      56.668  -0.882  32.164  0.00  0.00     0.111 A 
ATOM      4  C   UNL d   1      56.730   0.495  31.814  0.00  0.00     0.111 A 
ATOM      5  C   UNL d   1      56.287   0.682  32.471  0.00  0.00     0.100 A 
ATOM      6  C   UNL d   1      56.221  -0.690  32.826  0.00  0.00     0.100 A 
ENDROOT
BRANCH   1   7
ATOM      7  S   UNL d   1      57.378  -0.492  30.984  0.00  0.00     0.272 S 
ATOM      8  O   UNL d   1      57.365   0.307  30.741  0.00  0.00    -0.200 OA
ATOM      9  O   UNL d   1      57.387  -1.283  31.230  0.00  0.00    -0.200 OA
BRANCH   7  10
ATOM     10  C   UNL d   1      57.827  -0.687  30.319  0.00  0.00     0.116 C 
BRANCH  10  11
ATOM     11  C   UNL d   1      58.661  -0.708  30.374  0.00  0.00     0.014 C 
BRANCH  11  12
ATOM     12  C   UNL d   1      59.111  -0.998  29.740  0.00  0.00     0.001 A 
ATOM     13  C   UNL d   1      59.554  -0.466  29.271  0.00  0.00     0.000 A 
ATOM     14  C   UNL d   1      60.008  -0.754  28.632  0.00  0.00     0.000 A 
ATOM     15  C   UNL d   1      60.020  -1.565  28.464  0.00  0.00     0.000 A 
ATOM     16  C   UNL d   1      59.576  -2.104  28.932  0.00  0.00     0.000 A 
ATOM     17  C   UNL d   1      59.122  -1.816  29.572  0.00  0.00     0.000 A 
ENDBRANCH  11  12
ENDBRANCH  10  11
ENDBRANCH   7  10
ENDBRANCH   1   7
BRANCH   2  18
ATOM     18  C   UNL d   1      55.586   0.291  33.636  0.00  0.00     0.065 A 
ATOM     19  C   UNL d   1      55.951   0.363  34.363  0.00  0.00     0.029 A 
ATOM     20  C   UNL d   1      55.511   0.558  35.019  0.00  0.00     0.059 A 
ATOM     21 CL   UNL d   1      55.879   0.631  35.759  0.00  0.00    -0.082 Cl
ATOM     22  C   UNL d   1      54.700   0.682  34.951  0.00  0.00     0.011 A 
ATOM     23  C   UNL d   1      54.340   0.608  34.220  0.00  0.00     0.002 A 
ATOM     24  C   UNL d   1      54.783   0.413  33.564  0.00  0.00     0.018 A 
ENDBRANCH   2  18
TORSDOF 5
ENDMDL
MODEL 3
REMARK VINA RESULT:      -1.7      9.511     10.558
REMARK  5 active torsions:
REMARK  status: ('A' for Active; 'I' for Inactive)
REMARK    1  A    between atoms: N_2  and  S_1 
REMARK    2  A    between atoms: C_4  and  S_1 
REMARK    3  A    between atoms: C_5  and  N_3 
REMARK    4  A    between atoms: C_11  and  C_4 
REMARK    5  A    between atoms: C_15  and  C_11 
ROOT
ATOM      1  N   UNL d   1      58.974  -9.495  32.586  0.00  0.00    -0.226 N 
ATOM      2  N   UNL d   1      59.562  -9.179  34.084  0.00  0.00    -0.301 N 
ATOM      3  C   UNL d   1      59.781  -9.510  32.715  0.00  0.00     0.111 A 
ATOM      4  C   UNL d   1      58.458  -9.322  33.205  0.00  0.00     0.111 A 
ATOM      5  C   UNL d   1      58.756  -9.166  33.947  0.00  0.00     0.100 A 
ATOM      6  C   UNL d   1      60.077  -9.352  33.465  0.00  0.00     0.100 A 
ENDROOT
BRANCH   1   7
ATOM      7  S   UNL d   1      58.675  -9.658  31.819  0.00  0.00     0.272 S 
ATOM      8  O   UNL d   1      59.442  -9.556  31.501  0.00  0.00    -0.200 OA
ATOM      9  O   UNL d   1      57.918  -9.758  32.138  0.00  0.00    -0.200 OA
BRANCH   7  10
ATOM     10  C   UNL d   1      58.384  -9.818  31.062  0.00  0.00     0.116 C 
BRANCH  10  11
ATOM     11  C   UNL d   1      58.318  -9.198  30.505  0.00  0.00     0.014 C 
BRANCH  11  12
ATOM     12  C   UNL d   1      57.818  -9.283  29.849  0.00  0.00     0.001 A 
ATOM     13  C   UNL d   1      57.110  -9.723  29.921  0.00  0.00     0.000 A 
ATOM     14  C   UNL d   1      56.604  -9.810  29.263  0.00  0.00     0.000 A 
ATOM     15  C   UNL d   1      56.803  -9.462  28.539  0.00  0.00     0.000 A 
ATOM     16  C   UNL d   1      57.513  -9.018  28.459  0.00  0.00     0.000 A 
ATOM     17  C   UNL d   1      58.020  -8.930  29.118  0.00  0.00     0.000 A 
ENDBRANCH  11  12
ENDBRANCH  10  11
ENDBRANCH   7  10
ENDBRANCH   1   7
BRANCH   2  18
ATOM     18  C   UNL d   1      59.852  -9.021  34.829  0.00  0.00     0.065 A 
ATOM     19  C   UNL d   1      59.680  -8.307  35.187  0.00  0.00     0.029 A 
ATOM     20  C   UNL d   1      59.968  -8.147  35.930  0.00  0.00     0.059 A 
ATOM     21 CL   UNL d   1      59.795  -7.423  36.296  0.00  0.00    -0.082 Cl
ATOM     22  C   UNL d   1      60.432  -8.703  36.323  0.00  0.00     0.011 A 
ATOM     23  C   UNL d   1      60.601  -9.416  35.959  0.00  0.00     0.002 A 
ATOM     24  C   UNL d   1      60.311  -9.574  35.214  0.00  0.00     0.018 A 
ENDBRANCH   2  18
TORSDOF 5
ENDMDL
