MODEL 1
REMARK VINA RESULT:       3.6      0.000      0.000
REMARK  4 active torsions:
REMARK  status: ('A' for Active; 'I' for Inactive)
REMARK    1  A    between atoms: C_2  and  C_1 
REMARK       I    between atoms: N_7  and  C_2 
REMARK    2  A    between atoms: C_12  and  N_7 
REMARK    3  A    between atoms: C_13  and  N_7 
REMARK    4  A    between atoms: O_14  and  C_11 
ROOT
ATOM      1  C   UNL d   1     -41.693-122.510 -49.961  0.00  0.00     0.120 A 
ATOM      2  C   UNL d   1     -41.367-123.181 -50.314  0.00  0.00     0.305 A 
ATOM      3  O   UNL d   1     -41.288-123.208 -51.140  0.00  0.00    -0.271 OA
ATOM      4  C   UNL d   1     -41.939-121.871 -50.426  0.00  0.00     0.012 A 
ATOM      5  C   UNL d   1     -41.531-122.573 -51.606  0.00  0.00     0.125 A 
ATOM      6  C   UNL d   1     -41.860-121.899 -51.244  0.00  0.00     0.025 A 
ATOM      7  O   UNL d   1     -41.123-123.817 -49.847  0.00  0.00    -0.259 OA
ATOM      8  C   UNL d   1     -41.453-122.600 -52.420  0.00  0.00     0.117 A 
ATOM      9  C   UNL d   1     -42.104-121.264 -51.706  0.00  0.00     0.002 A 
ATOM     10  C   UNL d   1     -42.025-121.292 -52.524  0.00  0.00     0.002 A 
ATOM     11  C   UNL d   1     -41.697-121.966 -52.886  0.00  0.00     0.026 A 
ENDROOT
BRANCH   1  12
ATOM     12  C   UNL d   1     -41.773-122.479 -49.138  0.00  0.00     0.270 C 
ATOM     13  N   UNL d   1     -42.507-122.650 -48.792  0.00  0.00    -0.273 N 
ATOM     14  O   UNL d   1     -41.128-122.280 -48.664  0.00  0.00    -0.266 OA
BRANCH  13  15
ATOM     15  C   UNL d   1     -43.153-122.850 -49.270  0.00  0.00     0.067 A 
ATOM     16  C   UNL d   1     -43.232-123.619 -49.547  0.00  0.00     0.018 A 
ATOM     17  C   UNL d   1     -43.877-123.815 -50.023  0.00  0.00     0.002 A 
ATOM     18  C   UNL d   1     -44.442-123.244 -50.221  0.00  0.00     0.000 A 
ATOM     19  C   UNL d   1     -44.356-122.467 -49.937  0.00  0.00     0.002 A 
ATOM     20  C   UNL d   1     -43.715-122.268 -49.462  0.00  0.00     0.018 A 
ENDBRANCH  13  15
BRANCH  13  21
ATOM     21  C   UNL d   1     -42.595-122.621 -47.969  0.00  0.00     0.083 C 
ATOM     22  C   UNL d   1     -42.286-123.225 -47.501  0.00  0.00     0.021 C 
ENDBRANCH  13  21
ENDBRANCH   1  12
BRANCH   8  23
ATOM     23  O   UNL d   1     -41.125-123.275 -52.782  0.00  0.00    -0.326 OA
ATOM     24  C   UNL d   1     -41.321-123.457 -53.563  0.00  0.00     0.181 C 
ENDBRANCH   8  23
TORSDOF 4
ENDMDL
