MODEL 1
REMARK VINA RESULT:      55.5      0.000      0.000
REMARK  3 active torsions:
REMARK  status: ('A' for Active; 'I' for Inactive)
REMARK    1  A    between atoms: C_6  and  C_1 
REMARK       I    between atoms: N_10  and  C_6 
REMARK    2  A    between atoms: C_23  and  N_10 
REMARK    3  A    between atoms: C_22  and  C_23 
ROOT
ATOM      1  C   UNL d   1      14.696  14.563  -0.578  0.00  0.00     0.266 C 
ATOM      2  N   UNL d   1      14.564  14.800  -1.351  0.00  0.00    -0.210 NA
ATOM      3  O   UNL d   1      14.908  15.213  -0.133  0.00  0.00    -0.269 OA
ENDROOT
BRANCH   1   4
ATOM      4  C   UNL d   1      14.593  13.769  -0.425  0.00  0.00     0.150 A 
ATOM      5  C   UNL d   1      14.158  12.417  -0.178  0.00  0.00     0.028 A 
ATOM      6  C   UNL d   1      14.586  12.981  -0.269  0.00  0.00     0.078 A 
ATOM      7  C   UNL d   1      13.469  11.960  -0.121  0.00  0.00     0.002 C 
ATOM      8  C   UNL d   1      14.660  11.779  -0.027  0.00  0.00     0.002 C 
ATOM      9  C   UNL d   1      15.083  12.337  -0.118  0.00  0.00     0.012 C 
ATOM     10  C   UNL d   1      14.085  13.557  -0.408  0.00  0.00    -0.023 A 
ATOM     11  C   UNL d   1      15.391  12.879  -0.210  0.00  0.00     0.211 A 
ATOM     12  C   UNL d   1      14.050  14.250  -0.547  0.00  0.00    -0.015 A 
ATOM     13  C   UNL d   1      15.366  13.662  -0.367  0.00  0.00     0.219 A 
ATOM     14  O   UNL d   1      15.896  12.239  -0.059  0.00  0.00    -0.288 OA
ATOM     15  O   UNL d   1      16.174  13.570  -0.309  0.00  0.00    -0.287 OA
ENDBRANCH   1   4
BRANCH   2  16
ATOM     16  C   UNL d   1      14.654  15.595  -1.561  0.00  0.00     0.102 C 
BRANCH  16  17
ATOM     17  C   UNL d   1      14.913  16.115  -2.142  0.00  0.00     0.021 A 
ATOM     18  C   UNL d   1      14.864  15.895  -2.940  0.00  0.00     0.028 A 
ATOM     19  C   UNL d   1      15.126  16.420  -3.534  0.00  0.00     0.119 A 
ATOM     20  O   UNL d   1      15.148  16.361  -4.350  0.00  0.00    -0.300 OA
ATOM     21  C   UNL d   1      15.434  17.162  -3.320  0.00  0.00     0.119 A 
ATOM     22  C   UNL d   1      15.466  17.055  -4.652  0.00  0.00     0.304 A 
ATOM     23  O   UNL d   1      15.644  17.553  -4.015  0.00  0.00    -0.300 OA
ATOM     24  C   UNL d   1      15.478  17.372  -2.521  0.00  0.00     0.026 A 
ATOM     25  C   UNL d   1      15.219  16.852  -1.934  0.00  0.00     0.004 A 
ENDBRANCH  16  17
ENDBRANCH   2  16
TORSDOF 3
ENDMDL
