MODEL 1
REMARK VINA RESULT:      -4.3      0.000      0.000
REMARK  5 active torsions:
REMARK  status: ('A' for Active; 'I' for Inactive)
REMARK    1  A    between atoms: C_7  and  C_1 
REMARK    2  A    between atoms: N_6  and  C_3 
REMARK       I    between atoms: C_8  and  N_6 
REMARK    3  A    between atoms: C_9  and  C_8 
REMARK    4  A    between atoms: C_11  and  C_9 
REMARK    5  A    between atoms: C_16  and  C_11 
ROOT
ATOM      1  N   UNL d   1      57.411  -0.438  31.858  0.00  0.00    -0.165 NA
ATOM      2  C   UNL d   1      57.436  -0.027  31.156  0.00  0.00     0.282 C 
ATOM      3  O   UNL d   1      56.759   0.340  30.861  0.00  0.00    -0.265 OA
ENDROOT
BRANCH   1   4
ATOM      4  C   UNL d   1      56.708  -0.493  32.282  0.00  0.00     0.297 A 
ATOM      5  O   UNL d   1      56.478   0.012  32.889  0.00  0.00    -0.252 OA
ATOM      6  C   UNL d   1      55.740  -0.239  33.161  0.00  0.00     0.229 A 
ATOM      7  N   UNL d   1      55.523  -0.892  32.719  0.00  0.00    -0.117 NA
ATOM      8  N   UNL d   1      56.119  -1.048  32.178  0.00  0.00    -0.101 NA
BRANCH   6   9
ATOM      9  C   UNL d   1      55.307   0.114  33.769  0.00  0.00     0.143 A 
ATOM     10  O   UNL d   1      54.505   0.278  33.758  0.00  0.00    -0.301 OA
ATOM     11  C   UNL d   1      54.308   0.628  34.475  0.00  0.00     0.123 A 
ATOM     12  C   UNL d   1      54.993   0.680  34.933  0.00  0.00     0.029 A 
ATOM     13  C   UNL d   1      55.611   0.363  34.498  0.00  0.00     0.030 A 
ENDBRANCH   6   9
ENDBRANCH   1   4
BRANCH   2  14
ATOM     14  C   UNL d   1      58.142   0.027  30.732  0.00  0.00     0.063 C 
BRANCH  14  15
ATOM     15  C   UNL d   1      58.165  -0.231  29.957  0.00  0.00     0.005 C 
BRANCH  15  16
ATOM     16  C   UNL d   1      58.882  -0.215  29.540  0.00  0.00     0.000 A 
ATOM     17  C   UNL d   1      59.160  -0.906  29.184  0.00  0.00     0.000 A 
ATOM     18  C   UNL d   1      59.873  -0.890  28.769  0.00  0.00     0.000 A 
ATOM     19  C   UNL d   1      60.303  -0.186  28.712  0.00  0.00     0.000 A 
ATOM     20  C   UNL d   1      60.012   0.491  29.071  0.00  0.00     0.000 A 
ATOM     21  C   UNL d   1      59.308   0.480  29.482  0.00  0.00     0.000 A 
ENDBRANCH  15  16
ENDBRANCH  14  15
ENDBRANCH   2  14
TORSDOF 5
ENDMDL
MODEL 2
REMARK VINA RESULT:      -4.1      1.353      1.881
REMARK  5 active torsions:
REMARK  status: ('A' for Active; 'I' for Inactive)
REMARK    1  A    between atoms: C_7  and  C_1 
REMARK    2  A    between atoms: N_6  and  C_3 
REMARK       I    between atoms: C_8  and  N_6 
REMARK    3  A    between atoms: C_9  and  C_8 
REMARK    4  A    between atoms: C_11  and  C_9 
REMARK    5  A    between atoms: C_16  and  C_11 
ROOT
ATOM      1  N   UNL d   1      57.321  -1.149  30.990  0.00  0.00    -0.165 NA
ATOM      2  C   UNL d   1      57.844  -0.984  30.389  0.00  0.00     0.282 C 
ATOM      3  O   UNL d   1      58.068  -0.207  30.229  0.00  0.00    -0.265 OA
ENDROOT
BRANCH   1   4
ATOM      4  C   UNL d   1      57.009  -0.540  31.447  0.00  0.00     0.297 A 
ATOM      5  O   UNL d   1      56.650  -0.632  32.181  0.00  0.00    -0.252 OA
ATOM      6  C   UNL d   1      56.418   0.116  32.444  0.00  0.00     0.229 A 
ATOM      7  N   UNL d   1      56.635   0.658  31.872  0.00  0.00    -0.117 NA
ATOM      8  N   UNL d   1      57.000   0.254  31.257  0.00  0.00    -0.101 NA
BRANCH   6   9
ATOM      9  C   UNL d   1      56.035   0.276  33.158  0.00  0.00     0.143 A 
ATOM     10  O   UNL d   1      56.369   0.632  33.815  0.00  0.00    -0.301 OA
ATOM     11  C   UNL d   1      55.791   0.682  34.397  0.00  0.00     0.123 A 
ATOM     12  C   UNL d   1      55.095   0.354  34.097  0.00  0.00     0.029 A 
ATOM     13  C   UNL d   1      55.244   0.103  33.332  0.00  0.00     0.030 A 
ENDBRANCH   6   9
ENDBRANCH   1   4
BRANCH   2  14
ATOM     14  C   UNL d   1      58.157  -1.596  29.931  0.00  0.00     0.063 C 
BRANCH  14  15
ATOM     15  C   UNL d   1      58.875  -1.491  29.556  0.00  0.00     0.005 C 
BRANCH  15  16
ATOM     16  C   UNL d   1      59.250  -2.137  29.196  0.00  0.00     0.000 A 
ATOM     17  C   UNL d   1      58.794  -2.741  28.868  0.00  0.00     0.000 A 
ATOM     18  C   UNL d   1      59.168  -3.384  28.510  0.00  0.00     0.000 A 
ATOM     19  C   UNL d   1      59.993  -3.420  28.483  0.00  0.00     0.000 A 
ATOM     20  C   UNL d   1      60.431  -2.811  28.815  0.00  0.00     0.000 A 
ATOM     21  C   UNL d   1      60.067  -2.174  29.169  0.00  0.00     0.000 A 
ENDBRANCH  15  16
ENDBRANCH  14  15
ENDBRANCH   2  14
TORSDOF 5
ENDMDL
MODEL 3
REMARK VINA RESULT:      -3.1      9.077      9.599
REMARK  5 active torsions:
REMARK  status: ('A' for Active; 'I' for Inactive)
REMARK    1  A    between atoms: C_7  and  C_1 
REMARK    2  A    between atoms: N_6  and  C_3 
REMARK       I    between atoms: C_8  and  N_6 
REMARK    3  A    between atoms: C_9  and  C_8 
REMARK    4  A    between atoms: C_11  and  C_9 
REMARK    5  A    between atoms: C_16  and  C_11 
ROOT
ATOM      1  N   UNL d   1      58.844  -9.365  33.451  0.00  0.00    -0.165 NA
ATOM      2  C   UNL d   1      59.239  -9.576  32.771  0.00  0.00     0.282 C 
ATOM      3  O   UNL d   1      60.063  -9.551  32.740  0.00  0.00    -0.265 OA
ENDROOT
BRANCH   1   4
ATOM      4  C   UNL d   1      59.264  -9.126  34.117  0.00  0.00     0.297 A 
ATOM      5  O   UNL d   1      59.346  -8.349  34.373  0.00  0.00    -0.252 OA
ATOM      6  C   UNL d   1      59.807  -8.355  35.058  0.00  0.00     0.229 A 
ATOM      7  N   UNL d   1      60.002  -9.133  35.217  0.00  0.00    -0.117 NA
ATOM      8  N   UNL d   1      59.668  -9.608  34.637  0.00  0.00    -0.101 NA
BRANCH   6   9
ATOM      9  C   UNL d   1      60.025  -7.691  35.496  0.00  0.00     0.143 A 
ATOM     10  O   UNL d   1      60.790  -7.455  35.667  0.00  0.00    -0.301 OA
ATOM     11  C   UNL d   1      60.750  -6.767  36.115  0.00  0.00     0.123 A 
ATOM     12  C   UNL d   1      59.953  -6.576  36.222  0.00  0.00     0.029 A 
ATOM     13  C   UNL d   1      59.504  -7.146  35.841  0.00  0.00     0.030 A 
ENDBRANCH   6   9
ENDBRANCH   1   4
BRANCH   2  14
ATOM     14  C   UNL d   1      58.818  -9.816  32.103  0.00  0.00     0.063 C 
BRANCH  14  15
ATOM     15  C   UNL d   1      59.122  -9.664  31.360  0.00  0.00     0.005 C 
BRANCH  15  16
ATOM     16  C   UNL d   1      58.627  -9.710  30.696  0.00  0.00     0.000 A 
ATOM     17  C   UNL d   1      58.961  -9.767  29.944  0.00  0.00     0.000 A 
ATOM     18  C   UNL d   1      58.469  -9.813  29.283  0.00  0.00     0.000 A 
ATOM     19  C   UNL d   1      57.648  -9.803  29.378  0.00  0.00     0.000 A 
ATOM     20  C   UNL d   1      57.333  -9.747  30.133  0.00  0.00     0.000 A 
ATOM     21  C   UNL d   1      57.815  -9.701  30.788  0.00  0.00     0.000 A 
ENDBRANCH  15  16
ENDBRANCH  14  15
ENDBRANCH   2  14
TORSDOF 5
ENDMDL
MODEL 4
REMARK VINA RESULT:      -2.4      9.605     10.568
REMARK  5 active torsions:
REMARK  status: ('A' for Active; 'I' for Inactive)
REMARK    1  A    between atoms: C_7  and  C_1 
REMARK    2  A    between atoms: N_6  and  C_3 
REMARK       I    between atoms: C_8  and  N_6 
REMARK    3  A    between atoms: C_9  and  C_8 
REMARK    4  A    between atoms: C_11  and  C_9 
REMARK    5  A    between atoms: C_16  and  C_11 
ROOT
ATOM      1  N   UNL d   1      58.827  -9.818  32.677  0.00  0.00    -0.165 NA
ATOM      2  C   UNL d   1      58.622  -9.496  33.396  0.00  0.00     0.282 C 
ATOM      3  O   UNL d   1      57.878  -9.156  33.506  0.00  0.00    -0.265 OA
ENDROOT
BRANCH   1   4
ATOM      4  C   UNL d   1      58.294  -9.808  32.051  0.00  0.00     0.297 A 
ATOM      5  O   UNL d   1      58.497  -9.811  31.254  0.00  0.00    -0.252 OA
ATOM      6  C   UNL d   1      57.798  -9.798  30.815  0.00  0.00     0.229 A 
ATOM      7  N   UNL d   1      57.174  -9.786  31.343  0.00  0.00    -0.117 NA
ATOM      8  N   UNL d   1      57.480  -9.792  32.105  0.00  0.00    -0.101 NA
BRANCH   6   9
ATOM      9  C   UNL d   1      57.748  -9.797  29.991  0.00  0.00     0.143 A 
ATOM     10  O   UNL d   1      58.379  -9.778  29.469  0.00  0.00    -0.301 OA
ATOM     11  C   UNL d   1      58.076  -9.784  28.705  0.00  0.00     0.123 A 
ATOM     12  C   UNL d   1      57.251  -9.806  28.755  0.00  0.00     0.029 A 
ATOM     13  C   UNL d   1      57.048  -9.814  29.548  0.00  0.00     0.030 A 
ENDBRANCH   6   9
ENDBRANCH   1   4
BRANCH   2  14
ATOM     14  C   UNL d   1      59.157  -9.507  34.024  0.00  0.00     0.063 C 
BRANCH  14  15
ATOM     15  C   UNL d   1      59.044  -9.003  34.657  0.00  0.00     0.005 C 
BRANCH  15  16
ATOM     16  C   UNL d   1      59.664  -8.867  35.191  0.00  0.00     0.000 A 
ATOM     17  C   UNL d   1      60.059  -8.143  35.180  0.00  0.00     0.000 A 
ATOM     18  C   UNL d   1      60.676  -8.008  35.711  0.00  0.00     0.000 A 
ATOM     19  C   UNL d   1      60.893  -8.596  36.249  0.00  0.00     0.000 A 
ATOM     20  C   UNL d   1      60.490  -9.310  36.247  0.00  0.00     0.000 A 
ATOM     21  C   UNL d   1      59.880  -9.448  35.724  0.00  0.00     0.000 A 
ENDBRANCH  15  16
ENDBRANCH  14  15
ENDBRANCH   2  14
TORSDOF 5
ENDMDL
