MODEL 1
REMARK VINA RESULT:     -11.8      0.000      0.000
REMARK  2 active torsions:
REMARK  status: ('A' for Active; 'I' for Inactive)
REMARK    1  A    between atoms: C_7  and  C_1 
REMARK    2  A    between atoms: C_9  and  C_1 
ROOT
ATOM      1  C   UNL d   1      53.965  33.112  54.428  0.00  0.00     0.240 A 
ATOM      2  S   UNL d   1      53.327  32.956  53.930  0.00  0.00    -0.043 SA
ATOM      3  N   UNL d   1      54.088  33.875  54.716  0.00  0.00    -0.199 NA
ATOM      4  C   UNL d   1      52.816  33.563  53.723  0.00  0.00     0.181 A 
ATOM      5  N   UNL d   1      52.932  34.342  54.009  0.00  0.00    -0.236 N 
ATOM      6  C   UNL d   1      53.573  34.483  54.506  0.00  0.00     0.352 A 
ATOM      7  N   UNL d   1      52.137  33.572  53.239  0.00  0.00    -0.219 NA
ATOM      8  O   UNL d   1      53.701  35.245  54.797  0.00  0.00    -0.244 OA
ATOM      9  C   UNL d   1      52.331  34.816  53.703  0.00  0.00     0.107 A 
ATOM     10  C   UNL d   1      51.843  34.344  53.230  0.00  0.00     0.120 A 
ENDROOT
BRANCH   1  11
ATOM     11  C   UNL d   1      54.602  33.267  54.926  0.00  0.00     0.429 C 
ATOM     12  F   UNL d   1      55.187  33.409  55.378  0.00  0.00    -0.167 F 
ATOM     13  F   UNL d   1      54.653  33.207  55.776  0.00  0.00    -0.167 F 
ATOM     14  F   UNL d   1      55.394  33.531  54.718  0.00  0.00    -0.167 F 
ENDBRANCH   1  11
BRANCH   1  15
ATOM     15  C   UNL d   1      53.835  32.351  54.136  0.00  0.00     0.016 A 
ATOM     16  C   UNL d   1      54.132  32.142  53.402  0.00  0.00    -0.001 A 
ATOM     17  C   UNL d   1      54.002  31.381  53.110  0.00  0.00    -0.000 A 
ATOM     18  C   UNL d   1      53.575  30.830  53.554  0.00  0.00    -0.000 A 
ATOM     19  C   UNL d   1      53.280  31.050  54.293  0.00  0.00    -0.000 A 
ATOM     20  C   UNL d   1      53.445  30.069  53.262  0.00  0.00    -0.000 C 
ATOM     21  C   UNL d   1      53.408  31.802  54.581  0.00  0.00    -0.001 A 
ENDBRANCH   1  15
TORSDOF 2
ENDMDL
MODEL 2
REMARK VINA RESULT:     -11.5      1.864      2.683
REMARK  2 active torsions:
REMARK  status: ('A' for Active; 'I' for Inactive)
REMARK    1  A    between atoms: C_7  and  C_1 
REMARK    2  A    between atoms: C_9  and  C_1 
ROOT
ATOM      1  C   UNL d   1      53.594  32.098  53.739  0.00  0.00     0.240 A 
ATOM      2  S   UNL d   1      53.436  32.905  53.780  0.00  0.00    -0.043 SA
ATOM      3  N   UNL d   1      53.104  31.602  53.297  0.00  0.00    -0.199 NA
ATOM      4  C   UNL d   1      52.790  33.213  53.379  0.00  0.00     0.181 A 
ATOM      5  N   UNL d   1      52.287  32.720  52.927  0.00  0.00    -0.236 N 
ATOM      6  C   UNL d   1      52.457  31.914  52.896  0.00  0.00     0.352 A 
ATOM      7  N   UNL d   1      52.499  33.993  53.319  0.00  0.00    -0.219 NA
ATOM      8  O   UNL d   1      51.970  31.415  52.455  0.00  0.00    -0.244 OA
ATOM      9  C   UNL d   1      51.698  33.193  52.598  0.00  0.00     0.107 A 
ATOM     10  C   UNL d   1      51.828  33.974  52.838  0.00  0.00     0.120 A 
ENDROOT
BRANCH   1  11
ATOM     11  C   UNL d   1      53.752  31.291  53.699  0.00  0.00     0.429 C 
ATOM     12  F   UNL d   1      53.895  30.553  53.665  0.00  0.00    -0.167 F 
ATOM     13  F   UNL d   1      54.238  30.861  53.144  0.00  0.00    -0.167 F 
ATOM     14  F   UNL d   1      53.468  30.661  54.211  0.00  0.00    -0.167 F 
ENDBRANCH   1  11
BRANCH   1  15
ATOM     15  C   UNL d   1      54.079  32.599  54.179  0.00  0.00     0.016 A 
ATOM     16  C   UNL d   1      54.713  32.972  53.817  0.00  0.00    -0.001 A 
ATOM     17  C   UNL d   1      55.198  33.473  54.258  0.00  0.00    -0.000 A 
ATOM     18  C   UNL d   1      55.048  33.603  55.061  0.00  0.00    -0.000 A 
ATOM     19  C   UNL d   1      54.407  33.223  55.416  0.00  0.00    -0.000 A 
ATOM     20  C   UNL d   1      55.533  34.104  55.501  0.00  0.00    -0.000 C 
ATOM     21  C   UNL d   1      53.927  32.727  54.981  0.00  0.00    -0.001 A 
ENDBRANCH   1  15
TORSDOF 2
ENDMDL
MODEL 3
REMARK VINA RESULT:     -11.2      1.495      2.932
REMARK  2 active torsions:
REMARK  status: ('A' for Active; 'I' for Inactive)
REMARK    1  A    between atoms: C_7  and  C_1 
REMARK    2  A    between atoms: C_9  and  C_1 
ROOT
ATOM      1  C   UNL d   1      52.745  33.689  53.810  0.00  0.00     0.240 A 
ATOM      2  S   UNL d   1      52.430  33.115  53.310  0.00  0.00    -0.043 SA
ATOM      3  N   UNL d   1      53.414  33.522  54.263  0.00  0.00    -0.199 NA
ATOM      4  C   UNL d   1      52.786  32.378  53.264  0.00  0.00     0.181 A 
ATOM      5  N   UNL d   1      53.465  32.197  53.719  0.00  0.00    -0.236 N 
ATOM      6  C   UNL d   1      53.769  32.780  54.215  0.00  0.00     0.352 A 
ATOM      7  N   UNL d   1      52.595  31.701  52.816  0.00  0.00    -0.219 NA
ATOM      8  O   UNL d   1      54.438  32.618  54.669  0.00  0.00    -0.244 OA
ATOM      9  C   UNL d   1      53.684  31.421  53.549  0.00  0.00     0.107 A 
ATOM     10  C   UNL d   1      53.150  31.116  52.995  0.00  0.00     0.120 A 
ENDROOT
BRANCH   1  11
ATOM     11  C   UNL d   1      53.058  34.264  54.310  0.00  0.00     0.429 C 
ATOM     12  F   UNL d   1      53.343  34.787  54.769  0.00  0.00    -0.167 F 
ATOM     13  F   UNL d   1      53.629  34.875  54.142  0.00  0.00    -0.167 F 
ATOM     14  F   UNL d   1      52.892  34.400  55.143  0.00  0.00    -0.167 F 
ENDBRANCH   1  11
BRANCH   1  15
ATOM     15  C   UNL d   1      52.076  33.849  53.355  0.00  0.00     0.016 A 
ATOM     16  C   UNL d   1      52.161  34.184  52.612  0.00  0.00    -0.001 A 
ATOM     17  C   UNL d   1      51.492  34.344  52.156  0.00  0.00    -0.000 A 
ATOM     18  C   UNL d   1      50.737  34.169  52.445  0.00  0.00    -0.000 A 
ATOM     19  C   UNL d   1      50.661  33.832  53.195  0.00  0.00    -0.000 A 
ATOM     20  C   UNL d   1      50.068  34.329  51.989  0.00  0.00    -0.000 C 
ATOM     21  C   UNL d   1      51.323  33.674  53.645  0.00  0.00    -0.001 A 
ENDBRANCH   1  15
TORSDOF 2
ENDMDL
MODEL 4
REMARK VINA RESULT:     -11.1      2.078      3.312
REMARK  2 active torsions:
REMARK  status: ('A' for Active; 'I' for Inactive)
REMARK    1  A    between atoms: C_7  and  C_1 
REMARK    2  A    between atoms: C_9  and  C_1 
ROOT
ATOM      1  C   UNL d   1      52.554  32.522  53.218  0.00  0.00     0.240 A 
ATOM      2  S   UNL d   1      52.545  33.257  53.590  0.00  0.00    -0.043 SA
ATOM      3  N   UNL d   1      53.163  31.988  53.373  0.00  0.00    -0.199 NA
ATOM      4  C   UNL d   1      53.143  33.454  54.114  0.00  0.00     0.181 A 
ATOM      5  N   UNL d   1      53.766  32.920  54.279  0.00  0.00    -0.236 N 
ATOM      6  C   UNL d   1      53.762  32.188  53.900  0.00  0.00     0.352 A 
ATOM      7  N   UNL d   1      53.277  34.144  54.564  0.00  0.00    -0.219 NA
ATOM      8  O   UNL d   1      54.369  31.651  54.052  0.00  0.00    -0.244 OA
ATOM      9  C   UNL d   1      54.271  33.280  54.822  0.00  0.00     0.107 A 
ATOM     10  C   UNL d   1      53.972  34.031  54.997  0.00  0.00     0.120 A 
ENDROOT
BRANCH   1  11
ATOM     11  C   UNL d   1      52.562  31.788  52.845  0.00  0.00     0.429 C 
ATOM     12  F   UNL d   1      52.568  31.116  52.507  0.00  0.00    -0.167 F 
ATOM     13  F   UNL d   1      52.933  31.556  52.113  0.00  0.00    -0.167 F 
ATOM     14  F   UNL d   1      52.195  31.053  53.099  0.00  0.00    -0.167 F 
ENDBRANCH   1  11
BRANCH   1  15
ATOM     15  C   UNL d   1      51.948  33.062  53.067  0.00  0.00     0.016 A 
ATOM     16  C   UNL d   1      51.253  33.024  53.501  0.00  0.00    -0.001 A 
ATOM     17  C   UNL d   1      50.648  33.564  53.350  0.00  0.00    -0.000 A 
ATOM     18  C   UNL d   1      50.737  34.142  52.766  0.00  0.00    -0.000 A 
ATOM     19  C   UNL d   1      51.441  34.172  52.335  0.00  0.00    -0.000 A 
ATOM     20  C   UNL d   1      50.132  34.682  52.616  0.00  0.00    -0.000 C 
ATOM     21  C   UNL d   1      52.040  33.638  52.484  0.00  0.00    -0.001 A 
ENDBRANCH   1  15
TORSDOF 2
ENDMDL
MODEL 5
REMARK VINA RESULT:     -10.4      1.992      3.087
REMARK  2 active torsions:
REMARK  status: ('A' for Active; 'I' for Inactive)
REMARK    1  A    between atoms: C_7  and  C_1 
REMARK    2  A    between atoms: C_9  and  C_1 
ROOT
ATOM      1  C   UNL d   1      53.045  33.257  53.539  0.00  0.00     0.240 A 
ATOM      2  S   UNL d   1      53.514  32.634  53.803  0.00  0.00    -0.043 SA
ATOM      3  N   UNL d   1      52.405  33.110  53.040  0.00  0.00    -0.199 NA
ATOM      4  C   UNL d   1      53.342  31.868  53.566  0.00  0.00     0.181 A 
ATOM      5  N   UNL d   1      52.695  31.707  53.060  0.00  0.00    -0.236 N 
ATOM      6  C   UNL d   1      52.234  32.340  52.804  0.00  0.00     0.352 A 
ATOM      7  N   UNL d   1      53.712  31.140  53.740  0.00  0.00    -0.219 NA
ATOM      8  O   UNL d   1      51.593  32.198  52.304  0.00  0.00    -0.244 OA
ATOM      9  C   UNL d   1      52.673  30.894  52.928  0.00  0.00     0.107 A 
ATOM     10  C   UNL d   1      53.297  30.546  53.346  0.00  0.00     0.120 A 
ENDROOT
BRANCH   1  11
ATOM     11  C   UNL d   1      52.576  33.881  53.276  0.00  0.00     0.429 C 
ATOM     12  F   UNL d   1      52.145  34.450  53.038  0.00  0.00    -0.167 F 
ATOM     13  F   UNL d   1      52.672  34.379  52.590  0.00  0.00    -0.167 F 
ATOM     14  F   UNL d   1      51.858  34.199  53.627  0.00  0.00    -0.167 F 
ENDBRANCH   1  11
BRANCH   1  15
ATOM     15  C   UNL d   1      53.686  33.396  54.039  0.00  0.00     0.016 A 
ATOM     16  C   UNL d   1      54.436  33.486  53.721  0.00  0.00    -0.001 A 
ATOM     17  C   UNL d   1      55.078  33.625  54.221  0.00  0.00    -0.000 A 
ATOM     18  C   UNL d   1      54.969  33.674  55.039  0.00  0.00    -0.000 A 
ATOM     19  C   UNL d   1      54.209  33.582  55.350  0.00  0.00    -0.000 A 
ATOM     20  C   UNL d   1      55.610  33.813  55.539  0.00  0.00    -0.000 C 
ATOM     21  C   UNL d   1      53.575  33.445  54.855  0.00  0.00    -0.001 A 
ENDBRANCH   1  15
TORSDOF 2
ENDMDL
MODEL 6
REMARK VINA RESULT:     -10.0      1.774      2.379
REMARK  2 active torsions:
REMARK  status: ('A' for Active; 'I' for Inactive)
REMARK    1  A    between atoms: C_7  and  C_1 
REMARK    2  A    between atoms: C_9  and  C_1 
ROOT
ATOM      1  C   UNL d   1      52.740  33.697  53.504  0.00  0.00     0.240 A 
ATOM      2  S   UNL d   1      53.200  33.167  53.935  0.00  0.00    -0.043 SA
ATOM      3  N   UNL d   1      52.757  34.502  53.686  0.00  0.00    -0.199 NA
ATOM      4  C   UNL d   1      53.673  33.442  54.545  0.00  0.00     0.181 A 
ATOM      5  N   UNL d   1      53.698  34.256  54.738  0.00  0.00    -0.236 N 
ATOM      6  C   UNL d   1      53.233  34.776  54.299  0.00  0.00     0.352 A 
ATOM      7  N   UNL d   1      54.188  33.044  55.067  0.00  0.00    -0.219 NA
ATOM      8  O   UNL d   1      53.247  35.581  54.478  0.00  0.00    -0.244 OA
ATOM      9  C   UNL d   1      54.220  34.351  55.369  0.00  0.00     0.107 A 
ATOM     10  C   UNL d   1      54.522  33.607  55.571  0.00  0.00     0.120 A 
ENDROOT
BRANCH   1  11
ATOM     11  C   UNL d   1      52.280  34.227  53.073  0.00  0.00     0.429 C 
ATOM     12  F   UNL d   1      51.862  34.711  52.677  0.00  0.00    -0.167 F 
ATOM     13  F   UNL d   1      51.476  34.479  53.206  0.00  0.00    -0.167 F 
ATOM     14  F   UNL d   1      52.491  34.671  52.367  0.00  0.00    -0.167 F 
ENDBRANCH   1  11
BRANCH   1  15
ATOM     15  C   UNL d   1      52.729  32.891  53.328  0.00  0.00     0.016 A 
ATOM     16  C   UNL d   1      52.094  32.432  53.568  0.00  0.00    -0.001 A 
ATOM     17  C   UNL d   1      52.083  31.626  53.392  0.00  0.00    -0.000 A 
ATOM     18  C   UNL d   1      52.707  31.280  52.975  0.00  0.00    -0.000 A 
ATOM     19  C   UNL d   1      53.342  31.751  52.737  0.00  0.00    -0.000 A 
ATOM     20  C   UNL d   1      52.696  30.474  52.799  0.00  0.00    -0.000 C 
ATOM     21  C   UNL d   1      53.353  32.548  52.912  0.00  0.00    -0.001 A 
ENDBRANCH   1  15
TORSDOF 2
ENDMDL
