MODEL 1
REMARK VINA RESULT:      42.4      0.000      0.000
REMARK  4 active torsions:
REMARK  status: ('A' for Active; 'I' for Inactive)
REMARK    1  A    between atoms: C_6  and  N_1 
REMARK    2  A    between atoms: N_7  and  C_5 
REMARK    3  A    between atoms: C_8  and  C_6 
REMARK    4  A    between atoms: C_12  and  N_7 
ROOT
ATOM      1  N   UNL d   1      59.796  49.621  50.986  0.00  0.00    -0.227 N 
ATOM      2  C   UNL d   1      59.524  49.658  50.209  0.00  0.00     0.300 A 
ATOM      3  S   UNL d   1      58.718  49.648  50.054  0.00  0.00    -0.003 SA
ATOM      4  C   UNL d   1      58.452  49.564  51.454  0.00  0.00     0.292 A 
ATOM      5  C   UNL d   1      58.179  49.601  50.678  0.00  0.00     0.172 A 
ATOM      6  O   UNL d   1      60.061  49.705  49.586  0.00  0.00    -0.259 OA
ATOM      7  O   UNL d   1      58.061  49.510  52.265  0.00  0.00    -0.264 OA
ENDROOT
BRANCH   5   8
ATOM      8  N   UNL d   1      57.369  49.591  50.525  0.00  0.00    -0.234 NA
BRANCH   8   9
ATOM      9  C   UNL d   1      57.037  48.965  50.103  0.00  0.00     0.082 A 
ATOM     10  C   UNL d   1      56.937  48.225  50.474  0.00  0.00     0.019 A 
ATOM     11  C   UNL d   1      56.608  47.602  50.055  0.00  0.00     0.002 A 
ATOM     12  C   UNL d   1      56.374  47.707  49.267  0.00  0.00     0.000 A 
ATOM     13  C   UNL d   1      56.475  48.449  48.900  0.00  0.00     0.002 A 
ATOM     14  C   UNL d   1      56.042  47.086  48.839  0.00  0.00     0.000 C 
ATOM     15  C   UNL d   1      56.808  49.071  49.329  0.00  0.00     0.019 A 
ENDBRANCH   8   9
ENDBRANCH   5   8
BRANCH   1  16
ATOM     16  C   UNL d   1      60.615  49.618  51.374  0.00  0.00     0.157 C 
BRANCH  16  17
ATOM     17  C   UNL d   1      60.746  49.170  52.166  0.00  0.00     0.230 C 
ATOM     18  O   UNL d   1      60.726  48.262  52.166  0.00  0.00    -0.643 OA
ATOM     19  O   UNL d   1      60.892  49.629  52.923  0.00  0.00    -0.643 OA
ENDBRANCH  16  17
ENDBRANCH   1  16
TORSDOF 4
ENDMDL
MODEL 2
REMARK VINA RESULT:      42.5      1.648      3.791
REMARK  4 active torsions:
REMARK  status: ('A' for Active; 'I' for Inactive)
REMARK    1  A    between atoms: C_6  and  N_1 
REMARK    2  A    between atoms: N_7  and  C_5 
REMARK    3  A    between atoms: C_8  and  C_6 
REMARK    4  A    between atoms: C_12  and  N_7 
ROOT
ATOM      1  N   UNL d   1      57.772  49.698  50.351  0.00  0.00    -0.227 N 
ATOM      2  C   UNL d   1      58.346  49.698  49.760  0.00  0.00     0.300 A 
ATOM      3  S   UNL d   1      59.143  49.699  49.959  0.00  0.00    -0.003 SA
ATOM      4  C   UNL d   1      58.794  49.702  51.344  0.00  0.00     0.292 A 
ATOM      5  C   UNL d   1      59.368  49.702  50.753  0.00  0.00     0.172 A 
ATOM      6  O   UNL d   1      58.121  49.695  48.967  0.00  0.00    -0.259 OA
ATOM      7  O   UNL d   1      58.807  49.704  52.245  0.00  0.00    -0.264 OA
ENDROOT
BRANCH   5   8
ATOM      8  N   UNL d   1      60.168  49.703  50.956  0.00  0.00    -0.234 NA
BRANCH   8   9
ATOM      9  C   UNL d   1      60.635  49.043  50.795  0.00  0.00     0.082 A 
ATOM     10  C   UNL d   1      60.677  48.423  51.351  0.00  0.00     0.019 A 
ATOM     11  C   UNL d   1      61.142  47.766  51.192  0.00  0.00     0.002 A 
ATOM     12  C   UNL d   1      61.566  47.718  50.483  0.00  0.00     0.000 A 
ATOM     13  C   UNL d   1      61.521  48.341  49.929  0.00  0.00     0.002 A 
ATOM     14  C   UNL d   1      62.035  47.062  50.315  0.00  0.00     0.000 C 
ATOM     15  C   UNL d   1      61.052  48.998  50.097  0.00  0.00     0.019 A 
ENDBRANCH   8   9
ENDBRANCH   5   8
BRANCH   1  16
ATOM     16  C   UNL d   1      56.866  49.696  50.358  0.00  0.00     0.157 C 
BRANCH  16  17
ATOM     17  C   UNL d   1      56.408  48.900  50.383  0.00  0.00     0.230 C 
ATOM     18  O   UNL d   1      56.343  48.406  49.623  0.00  0.00    -0.643 OA
ATOM     19  O   UNL d   1      56.034  48.619  51.148  0.00  0.00    -0.643 OA
ENDBRANCH  16  17
ENDBRANCH   1  16
TORSDOF 4
ENDMDL
