MODEL 1
REMARK VINA RESULT:      76.3      0.000      0.000
REMARK  3 active torsions:
REMARK  status: ('A' for Active; 'I' for Inactive)
REMARK    1  A    between atoms: C_4  and  C_1 
REMARK    2  A    between atoms: C_8  and  C_3 
REMARK    3  A    between atoms: O_20  and  C_16 
ROOT
ATOM      1  C   UNL d   1      60.019  49.472  50.262  0.00  0.00     0.107 A 
ATOM      2  N   UNL d   1      60.427  49.452  49.545  0.00  0.00    -0.148 NA
ATOM      3  C   UNL d   1      60.572  49.438  50.865  0.00  0.00     0.039 A 
ATOM      4  N   UNL d   1      61.241  49.405  49.708  0.00  0.00    -0.148 NA
ATOM      5  C   UNL d   1      61.347  49.395  50.523  0.00  0.00     0.104 A 
ATOM      6  C   UNL d   1      62.070  49.352  50.918  0.00  0.00     0.023 C 
ENDROOT
BRANCH   1   7
ATOM      7  C   UNL d   1      59.200  49.518  50.314  0.00  0.00     0.059 A 
ATOM      8  C   UNL d   1      58.742  49.471  49.636  0.00  0.00     0.200 A 
ATOM      9  C   UNL d   1      57.923  49.517  49.686  0.00  0.00     0.084 A 
ATOM     10  O   UNL d   1      59.112  49.374  48.873  0.00  0.00    -0.286 OA
ATOM     11  C   UNL d   1      57.565  49.613  50.438  0.00  0.00     0.199 A 
ATOM     12  C   UNL d   1      58.022  49.660  51.115  0.00  0.00     0.042 A 
ATOM     13  O   UNL d   1      56.717  49.663  50.512  0.00  0.00    -0.286 OA
ATOM     14  C   UNL d   1      58.849  49.611  51.042  0.00  0.00     0.008 A 
ENDBRANCH   1   7
BRANCH   3  15
ATOM     15  C   UNL d   1      60.314  49.449  51.678  0.00  0.00     0.003 A 
ATOM     16  C   UNL d   1      60.852  49.358  52.293  0.00  0.00     0.002 A 
ATOM     17  C   UNL d   1      60.580  49.371  53.090  0.00  0.00     0.024 A 
ATOM     18  C   UNL d   1      59.781  49.475  53.236  0.00  0.00     0.094 A 
ATOM     19  C   UNL d   1      59.222  49.568  52.622  0.00  0.00     0.024 A 
ATOM     20  C   UNL d   1      59.495  49.555  51.826  0.00  0.00     0.002 A 
BRANCH  18  21
ATOM     21  O   UNL d   1      59.509  49.488  54.033  0.00  0.00    -0.328 OA
ATOM     22  C   UNL d   1      58.740  49.204  54.199  0.00  0.00     0.181 C 
ENDBRANCH  18  21
ENDBRANCH   3  15
TORSDOF 3
ENDMDL
MODEL 2
REMARK VINA RESULT:      77.3      2.094      3.596
REMARK  3 active torsions:
REMARK  status: ('A' for Active; 'I' for Inactive)
REMARK    1  A    between atoms: C_4  and  C_1 
REMARK    2  A    between atoms: C_8  and  C_3 
REMARK    3  A    between atoms: O_20  and  C_16 
ROOT
ATOM      1  C   UNL d   1      61.291  48.054  51.624  0.00  0.00     0.107 A 
ATOM      2  N   UNL d   1      61.700  47.941  52.331  0.00  0.00    -0.148 NA
ATOM      3  C   UNL d   1      60.825  48.722  51.709  0.00  0.00     0.039 A 
ATOM      4  N   UNL d   1      61.485  48.547  52.858  0.00  0.00    -0.148 NA
ATOM      5  C   UNL d   1      60.942  49.040  52.487  0.00  0.00     0.104 A 
ATOM      6  C   UNL d   1      60.588  49.708  52.816  0.00  0.00     0.023 C 
ENDROOT
BRANCH   1   7
ATOM      7  C   UNL d   1      61.368  47.557  50.973  0.00  0.00     0.059 A 
ATOM      8  C   UNL d   1      61.123  46.776  51.022  0.00  0.00     0.200 A 
ATOM      9  C   UNL d   1      61.199  46.278  50.373  0.00  0.00     0.084 A 
ATOM     10  O   UNL d   1      60.787  46.474  51.746  0.00  0.00    -0.286 OA
ATOM     11  C   UNL d   1      61.529  46.580  49.664  0.00  0.00     0.199 A 
ATOM     12  C   UNL d   1      61.773  47.359  49.616  0.00  0.00     0.042 A 
ATOM     13  O   UNL d   1      61.617  46.079  48.979  0.00  0.00    -0.286 OA
ATOM     14  C   UNL d   1      61.687  47.846  50.284  0.00  0.00     0.008 A 
ENDBRANCH   1   7
BRANCH   3  15
ATOM     15  C   UNL d   1      60.332  48.980  51.062  0.00  0.00     0.003 A 
ATOM     16  C   UNL d   1      60.637  49.453  50.462  0.00  0.00     0.002 A 
ATOM     17  C   UNL d   1      60.137  49.699  49.831  0.00  0.00     0.024 A 
ATOM     18  C   UNL d   1      59.354  49.462  49.829  0.00  0.00     0.094 A 
ATOM     19  C   UNL d   1      59.029  48.982  50.430  0.00  0.00     0.024 A 
ATOM     20  C   UNL d   1      59.530  48.736  51.061  0.00  0.00     0.002 A 
BRANCH  18  21
ATOM     21  O   UNL d   1      58.853  49.708  49.197  0.00  0.00    -0.328 OA
ATOM     22  C   UNL d   1      58.032  49.556  49.253  0.00  0.00     0.181 C 
ENDBRANCH  18  21
ENDBRANCH   3  15
TORSDOF 3
ENDMDL
