MODEL 1
REMARK VINA RESULT:      27.0      0.000      0.000
REMARK  4 active torsions:
REMARK  status: ('A' for Active; 'I' for Inactive)
REMARK    1  A    between atoms: N_2  and  S_1 
REMARK    2  A    between atoms: C_3  and  S_1 
REMARK    3  A    between atoms: O_15  and  C_7 
REMARK    4  A    between atoms: C_18  and  O_15 
ROOT
ATOM      1  C   UNL d   1     -52.513  25.804  33.315  0.00  0.00     0.106 A 
ATOM      2  C   UNL d   1     -52.474  24.980  33.325  0.00  0.00     0.040 A 
ATOM      3  C   UNL d   1     -53.163  24.537  33.326  0.00  0.00     0.128 A 
ATOM      4  C   UNL d   1     -53.897  24.914  33.316  0.00  0.00     0.163 A 
ATOM      5  C   UNL d   1     -53.247  26.181  33.306  0.00  0.00     0.015 A 
ATOM      6  C   UNL d   1     -53.936  25.738  33.306  0.00  0.00     0.032 A 
ATOM      7  F   UNL d   1     -54.592  24.466  33.317  0.00  0.00    -0.202 F 
ENDROOT
BRANCH   1   8
ATOM      8  S   UNL d   1     -51.818  26.251  33.315  0.00  0.00     0.272 S 
ATOM      9  O   UNL d   1     -52.265  26.947  33.307  0.00  0.00    -0.200 OA
ATOM     10  O   UNL d   1     -51.371  25.557  33.322  0.00  0.00    -0.200 OA
BRANCH   8  11
ATOM     11  N   UNL d   1     -51.123  26.698  33.314  0.00  0.00    -0.225 N 
ATOM     12  C   UNL d   1     -51.162  27.523  33.315  0.00  0.00     0.118 A 
ATOM     13  C   UNL d   1     -50.467  27.970  33.314  0.00  0.00     0.142 A 
ATOM     14  O   UNL d   1     -49.732  27.593  33.313  0.00  0.00    -0.300 OA
ATOM     15  C   UNL d   1     -49.694  26.769  33.312  0.00  0.00     0.142 A 
ATOM     16  C   UNL d   1     -50.389  26.322  33.313  0.00  0.00     0.118 A 
ENDBRANCH   8  11
ENDBRANCH   1   8
BRANCH   3  17
ATOM     17  O   UNL d   1     -53.119  23.705  33.336  0.00  0.00    -0.303 OA
BRANCH  17  18
ATOM     18  C   UNL d   1     -53.745  23.260  33.636  0.00  0.00     0.123 C 
ATOM     19  C   UNL d   1     -53.849  23.190  34.454  0.00  0.00     0.029 C 
ENDBRANCH  17  18
ENDBRANCH   3  17
TORSDOF 4
ENDMDL
MODEL 2
REMARK VINA RESULT:      29.5      1.609      2.084
REMARK  4 active torsions:
REMARK  status: ('A' for Active; 'I' for Inactive)
REMARK    1  A    between atoms: N_2  and  S_1 
REMARK    2  A    between atoms: C_3  and  S_1 
REMARK    3  A    between atoms: O_15  and  C_7 
REMARK    4  A    between atoms: C_18  and  O_15 
ROOT
ATOM      1  C   UNL d   1     -51.186  25.422  33.498  0.00  0.00     0.106 A 
ATOM      2  C   UNL d   1     -50.743  24.752  33.685  0.00  0.00     0.040 A 
ATOM      3  C   UNL d   1     -51.097  24.013  33.688  0.00  0.00     0.128 A 
ATOM      4  C   UNL d   1     -51.898  23.939  33.503  0.00  0.00     0.163 A 
ATOM      5  C   UNL d   1     -51.987  25.347  33.314  0.00  0.00     0.015 A 
ATOM      6  C   UNL d   1     -52.341  24.609  33.316  0.00  0.00     0.032 A 
ATOM      7  F   UNL d   1     -52.256  23.193  33.506  0.00  0.00    -0.202 F 
ENDROOT
BRANCH   1   8
ATOM      8  S   UNL d   1     -50.828  26.167  33.495  0.00  0.00     0.272 S 
ATOM      9  O   UNL d   1     -50.103  25.819  33.306  0.00  0.00    -0.200 OA
ATOM     10  O   UNL d   1     -51.553  26.516  33.684  0.00  0.00    -0.200 OA
BRANCH   8  11
ATOM     11  N   UNL d   1     -50.471  26.912  33.493  0.00  0.00    -0.225 N 
ATOM     12  C   UNL d   1     -50.924  27.588  33.354  0.00  0.00     0.118 A 
ATOM     13  C   UNL d   1     -50.566  28.333  33.351  0.00  0.00     0.142 A 
ATOM     14  O   UNL d   1     -49.755  28.403  33.487  0.00  0.00    -0.300 OA
ATOM     15  C   UNL d   1     -49.303  27.727  33.626  0.00  0.00     0.142 A 
ATOM     16  C   UNL d   1     -49.660  26.983  33.629  0.00  0.00     0.118 A 
ENDBRANCH   8  11
ENDBRANCH   1   8
BRANCH   3  17
ATOM     17  O   UNL d   1     -50.646  23.340  33.877  0.00  0.00    -0.303 OA
BRANCH  17  18
ATOM     18  C   UNL d   1     -49.934  23.194  33.488  0.00  0.00     0.123 C 
ATOM     19  C   UNL d   1     -49.219  23.234  33.904  0.00  0.00     0.029 C 
ENDBRANCH  17  18
ENDBRANCH   3  17
TORSDOF 4
ENDMDL
