MODEL 1
REMARK VINA RESULT:      -6.6      0.000      0.000
REMARK  4 active torsions:
REMARK  status: ('A' for Active; 'I' for Inactive)
REMARK    1  A    between atoms: C_5  and  C_3 
REMARK    2  A    between atoms: S_7  and  C_4 
REMARK    3  A    between atoms: C_10  and  S_7 
REMARK    4  A    between atoms: C_11  and  C_10 
ROOT
ATOM      1  N   UNL d   1     -46.260  13.805  23.122  0.00  0.00    -0.146 NA
ATOM      2  N   UNL d   1     -47.015  14.090  23.294  0.00  0.00    -0.141 NA
ATOM      3  C   UNL d   1     -46.162  13.194  22.570  0.00  0.00     0.121 A 
ATOM      4  C   UNL d   1     -47.674  13.775  22.923  0.00  0.00     0.132 A 
ATOM      5  C   UNL d   1     -46.826  12.875  22.193  0.00  0.00     0.025 A 
ATOM      6  C   UNL d   1     -47.577  13.161  22.367  0.00  0.00     0.029 A 
ENDROOT
BRANCH   4   7
ATOM      7  S   UNL d   1     -48.429  14.060  23.095  0.00  0.00    -0.066 SA
BRANCH   7   8
ATOM      8  C   UNL d   1     -48.730  14.708  22.691  0.00  0.00     0.037 C 
BRANCH   8   9
ATOM      9  C   UNL d   1     -49.483  14.992  22.879  0.00  0.00     0.006 A 
ATOM     10  C   UNL d   1     -49.566  15.568  23.440  0.00  0.00     0.001 A 
ATOM     11  C   UNL d   1     -50.317  15.854  23.631  0.00  0.00     0.000 A 
ATOM     12  C   UNL d   1     -50.978  15.556  23.254  0.00  0.00     0.000 A 
ATOM     13  C   UNL d   1     -50.892  14.963  22.676  0.00  0.00     0.000 A 
ATOM     14  C   UNL d   1     -50.144  14.687  22.495  0.00  0.00     0.001 A 
ENDBRANCH   8   9
ENDBRANCH   7   8
ENDBRANCH   4   7
BRANCH   3  15
ATOM     15  C   UNL d   1     -45.407  12.910  22.398  0.00  0.00     0.101 A 
ATOM     16  N   UNL d   1     -45.109  12.279  22.818  0.00  0.00    -0.242 NA
ATOM     17  C   UNL d   1     -44.361  11.993  22.651  0.00  0.00     0.099 A 
ATOM     18  C   UNL d   1     -43.906  12.349  22.051  0.00  0.00     0.021 A 
ATOM     19  C   UNL d   1     -44.210  12.982  21.632  0.00  0.00     0.003 A 
ATOM     20  C   UNL d   1     -44.965  13.274  21.797  0.00  0.00     0.021 A 
ENDBRANCH   3  15
TORSDOF 4
ENDMDL
MODEL 2
REMARK VINA RESULT:      -6.0      1.459      5.190
REMARK  4 active torsions:
REMARK  status: ('A' for Active; 'I' for Inactive)
REMARK    1  A    between atoms: C_5  and  C_3 
REMARK    2  A    between atoms: S_7  and  C_4 
REMARK    3  A    between atoms: C_10  and  S_7 
REMARK    4  A    between atoms: C_11  and  C_10 
ROOT
ATOM      1  N   UNL d   1     -48.277  12.936  23.311  0.00  0.00    -0.146 NA
ATOM      2  N   UNL d   1     -47.569  12.528  23.423  0.00  0.00    -0.141 NA
ATOM      3  C   UNL d   1     -48.278  13.668  22.921  0.00  0.00     0.121 A 
ATOM      4  C   UNL d   1     -46.861  12.839  23.153  0.00  0.00     0.132 A 
ATOM      5  C   UNL d   1     -47.565  13.984  22.647  0.00  0.00     0.025 A 
ATOM      6  C   UNL d   1     -46.860  13.575  22.761  0.00  0.00     0.029 A 
ENDROOT
BRANCH   4   7
ATOM      7  S   UNL d   1     -46.153  12.431  23.265  0.00  0.00    -0.066 SA
BRANCH   7   8
ATOM      8  C   UNL d   1     -46.152  11.613  23.333  0.00  0.00     0.037 C 
BRANCH   8   9
ATOM      9  C   UNL d   1     -45.432  11.204  23.329  0.00  0.00     0.006 A 
ATOM     10  C   UNL d   1     -44.788  11.530  22.967  0.00  0.00     0.001 A 
ATOM     11  C   UNL d   1     -44.068  11.126  22.961  0.00  0.00     0.000 A 
ATOM     12  C   UNL d   1     -44.005  10.394  23.320  0.00  0.00     0.000 A 
ATOM     13  C   UNL d   1     -44.670  10.059  23.693  0.00  0.00     0.000 A 
ATOM     14  C   UNL d   1     -45.378  10.469  23.693  0.00  0.00     0.001 A 
ENDBRANCH   8   9
ENDBRANCH   7   8
ENDBRANCH   4   7
BRANCH   3  15
ATOM     15  C   UNL d   1     -48.986  14.076  22.809  0.00  0.00     0.101 A 
ATOM     16  N   UNL d   1     -49.235  14.613  23.368  0.00  0.00    -0.242 NA
ATOM     17  C   UNL d   1     -49.937  15.020  23.261  0.00  0.00     0.099 A 
ATOM     18  C   UNL d   1     -50.394  14.883  22.580  0.00  0.00     0.021 A 
ATOM     19  C   UNL d   1     -50.140  14.342  22.021  0.00  0.00     0.003 A 
ATOM     20  C   UNL d   1     -49.432  13.929  22.125  0.00  0.00     0.021 A 
ENDBRANCH   3  15
TORSDOF 4
ENDMDL
MODEL 3
REMARK VINA RESULT:      -5.4      8.011      8.738
REMARK  4 active torsions:
REMARK  status: ('A' for Active; 'I' for Inactive)
REMARK    1  A    between atoms: C_5  and  C_3 
REMARK    2  A    between atoms: S_7  and  C_4 
REMARK    3  A    between atoms: C_10  and  S_7 
REMARK    4  A    between atoms: C_11  and  C_10 
ROOT
ATOM      1  N   UNL d   1     -38.763  14.810  20.914  0.00  0.00    -0.146 NA
ATOM      2  N   UNL d   1     -39.052  15.072  20.187  0.00  0.00    -0.141 NA
ATOM      3  C   UNL d   1     -39.289  14.628  21.529  0.00  0.00     0.121 A 
ATOM      4  C   UNL d   1     -39.857  15.157  20.064  0.00  0.00     0.132 A 
ATOM      5  C   UNL d   1     -40.103  14.713  21.407  0.00  0.00     0.025 A 
ATOM      6  C   UNL d   1     -40.387  14.975  20.681  0.00  0.00     0.029 A 
ENDROOT
BRANCH   4   7
ATOM      7  S   UNL d   1     -40.145  15.419  19.337  0.00  0.00    -0.066 SA
BRANCH   7   8
ATOM      8  C   UNL d   1     -40.388  14.881  18.767  0.00  0.00     0.037 C 
BRANCH   8   9
ATOM      9  C   UNL d   1     -40.546  15.143  17.999  0.00  0.00     0.006 A 
ATOM     10  C   UNL d   1     -41.154  15.658  17.869  0.00  0.00     0.001 A 
ATOM     11  C   UNL d   1     -41.316  15.922  17.103  0.00  0.00     0.000 A 
ATOM     12  C   UNL d   1     -40.861  15.662  16.475  0.00  0.00     0.000 A 
ATOM     13  C   UNL d   1     -40.234  15.131  16.610  0.00  0.00     0.000 A 
ATOM     14  C   UNL d   1     -40.084  14.877  17.373  0.00  0.00     0.001 A 
ENDBRANCH   8   9
ENDBRANCH   7   8
ENDBRANCH   4   7
BRANCH   3  15
ATOM     15  C   UNL d   1     -39.001  14.366  22.256  0.00  0.00     0.101 A 
ATOM     16  N   UNL d   1     -38.730  14.906  22.801  0.00  0.00    -0.242 NA
ATOM     17  C   UNL d   1     -38.443  14.650  23.523  0.00  0.00     0.099 A 
ATOM     18  C   UNL d   1     -38.430  13.836  23.698  0.00  0.00     0.021 A 
ATOM     19  C   UNL d   1     -38.703  13.297  23.147  0.00  0.00     0.003 A 
ATOM     20  C   UNL d   1     -38.993  13.551  22.416  0.00  0.00     0.021 A 
ENDBRANCH   3  15
TORSDOF 4
ENDMDL
MODEL 4
REMARK VINA RESULT:      -5.4      8.221      9.069
REMARK  4 active torsions:
REMARK  status: ('A' for Active; 'I' for Inactive)
REMARK    1  A    between atoms: C_5  and  C_3 
REMARK    2  A    between atoms: S_7  and  C_4 
REMARK    3  A    between atoms: C_10  and  S_7 
REMARK    4  A    between atoms: C_11  and  C_10 
ROOT
ATOM      1  N   UNL d   1     -40.540  14.550  19.113  0.00  0.00    -0.146 NA
ATOM      2  N   UNL d   1     -40.342  14.402  19.900  0.00  0.00    -0.141 NA
ATOM      3  C   UNL d   1     -40.383  15.293  18.777  0.00  0.00     0.121 A 
ATOM      4  C   UNL d   1     -39.991  14.983  20.358  0.00  0.00     0.132 A 
ATOM      5  C   UNL d   1     -40.028  15.881  19.237  0.00  0.00     0.025 A 
ATOM      6  C   UNL d   1     -39.833  15.730  20.022  0.00  0.00     0.029 A 
ENDROOT
BRANCH   4   7
ATOM      7  S   UNL d   1     -39.793  14.835  21.145  0.00  0.00    -0.066 SA
BRANCH   7   8
ATOM      8  C   UNL d   1     -39.102  14.434  21.331  0.00  0.00     0.037 C 
BRANCH   8   9
ATOM      9  C   UNL d   1     -38.933  14.256  22.121  0.00  0.00     0.006 A 
ATOM     10  C   UNL d   1     -38.848  13.486  22.349  0.00  0.00     0.001 A 
ATOM     11  C   UNL d   1     -38.679  13.304  23.137  0.00  0.00     0.000 A 
ATOM     12  C   UNL d   1     -38.599  13.903  23.688  0.00  0.00     0.000 A 
ATOM     13  C   UNL d   1     -38.688  14.696  23.452  0.00  0.00     0.000 A 
ATOM     14  C   UNL d   1     -38.854  14.864  22.669  0.00  0.00     0.001 A 
ENDBRANCH   8   9
ENDBRANCH   7   8
ENDBRANCH   4   7
BRANCH   3  15
ATOM     15  C   UNL d   1     -40.581  15.441  17.990  0.00  0.00     0.101 A 
ATOM     16  N   UNL d   1     -41.302  15.773  17.811  0.00  0.00    -0.242 NA
ATOM     17  C   UNL d   1     -41.502  15.922  17.032  0.00  0.00     0.099 A 
ATOM     18  C   UNL d   1     -40.966  15.732  16.424  0.00  0.00     0.021 A 
ATOM     19  C   UNL d   1     -40.243  15.398  16.609  0.00  0.00     0.003 A 
ATOM     20  C   UNL d   1     -40.037  15.246  17.394  0.00  0.00     0.021 A 
ENDBRANCH   3  15
TORSDOF 4
ENDMDL
MODEL 5
REMARK VINA RESULT:      -4.5      9.158      9.935
REMARK  4 active torsions:
REMARK  status: ('A' for Active; 'I' for Inactive)
REMARK    1  A    between atoms: C_5  and  C_3 
REMARK    2  A    between atoms: S_7  and  C_4 
REMARK    3  A    between atoms: C_10  and  S_7 
REMARK    4  A    between atoms: C_11  and  C_10 
ROOT
ATOM      1  N   UNL d   1     -37.962  14.308  18.705  0.00  0.00    -0.146 NA
ATOM      2  N   UNL d   1     -38.057  14.365  19.522  0.00  0.00    -0.141 NA
ATOM      3  C   UNL d   1     -38.606  14.103  18.225  0.00  0.00     0.121 A 
ATOM      4  C   UNL d   1     -38.785  14.222  19.868  0.00  0.00     0.132 A 
ATOM      5  C   UNL d   1     -39.343  13.958  18.571  0.00  0.00     0.025 A 
ATOM      6  C   UNL d   1     -39.434  14.016  19.387  0.00  0.00     0.029 A 
ENDROOT
BRANCH   4   7
ATOM      7  S   UNL d   1     -38.880  14.279  20.685  0.00  0.00    -0.066 SA
BRANCH   7   8
ATOM      8  C   UNL d   1     -38.332  13.938  21.192  0.00  0.00     0.037 C 
BRANCH   8   9
ATOM      9  C   UNL d   1     -38.460  13.963  22.009  0.00  0.00     0.006 A 
ATOM     10  C   UNL d   1     -38.560  13.276  22.421  0.00  0.00     0.001 A 
ATOM     11  C   UNL d   1     -38.688  13.297  23.236  0.00  0.00     0.000 A 
ATOM     12  C   UNL d   1     -38.714  14.014  23.629  0.00  0.00     0.000 A 
ATOM     13  C   UNL d   1     -38.611  14.722  23.204  0.00  0.00     0.000 A 
ATOM     14  C   UNL d   1     -38.485  14.689  22.397  0.00  0.00     0.001 A 
ENDBRANCH   8   9
ENDBRANCH   7   8
ENDBRANCH   4   7
BRANCH   3  15
ATOM     15  C   UNL d   1     -38.511  14.046  17.407  0.00  0.00     0.101 A 
ATOM     16  N   UNL d   1     -38.191  13.370  17.085  0.00  0.00    -0.242 NA
ATOM     17  C   UNL d   1     -38.095  13.309  16.274  0.00  0.00     0.099 A 
ATOM     18  C   UNL d   1     -38.325  13.939  15.782  0.00  0.00     0.021 A 
ATOM     19  C   UNL d   1     -38.646  14.616  16.110  0.00  0.00     0.003 A 
ATOM     20  C   UNL d   1     -38.745  14.682  16.928  0.00  0.00     0.021 A 
ENDBRANCH   3  15
TORSDOF 4
ENDMDL
