MODEL 1
REMARK VINA RESULT:      -2.3      0.000      0.000
REMARK  2 active torsions:
REMARK  status: ('A' for Active; 'I' for Inactive)
REMARK       I    between atoms: N_2  and  C_1 
REMARK       I    between atoms: N_3  and  C_1 
REMARK    1  A    between atoms: C_12  and  N_3 
REMARK    2  A    between atoms: C_5  and  N_4 
ROOT
ATOM      1  C   UNL d   1      32.866  18.284 -22.944  0.00  0.00     0.339 C 
ATOM      2  N   UNL d   1      32.868  19.039 -22.613  0.00  0.00    -0.254 N 
ATOM      3  N   UNL d   1      32.495  18.147 -23.669  0.00  0.00    -0.257 N 
ATOM      4  N   UNL d   1      32.873  20.562 -21.945  0.00  0.00    -0.286 N 
ATOM      5  O   UNL d   1      33.241  17.664 -22.539  0.00  0.00    -0.245 OA
ATOM      6  C   UNL d   1      33.239  19.179 -21.887  0.00  0.00     0.104 A 
ATOM      7  C   UNL d   1      32.495  19.673 -23.008  0.00  0.00     0.104 A 
ATOM      8  C   UNL d   1      33.241  19.935 -21.555  0.00  0.00     0.101 A 
ATOM      9  C   UNL d   1      32.497  20.432 -22.675  0.00  0.00     0.101 A 
ATOM     10  C   UNL d   1      32.126  18.764 -24.063  0.00  0.00     0.104 C 
ENDROOT
BRANCH   3  11
ATOM     11  C   UNL d   1      32.494  17.383 -24.000  0.00  0.00     0.068 A 
ATOM     12  C   UNL d   1      31.935  16.822 -23.751  0.00  0.00     0.018 A 
ATOM     13  C   UNL d   1      31.945  16.068 -24.086  0.00  0.00     0.002 A 
ATOM     14  C   UNL d   1      32.503  15.872 -24.664  0.00  0.00     0.000 A 
ATOM     15  C   UNL d   1      33.055  16.443 -24.903  0.00  0.00     0.002 A 
ATOM     16  C   UNL d   1      33.049  17.198 -24.570  0.00  0.00     0.018 A 
ENDBRANCH   3  11
BRANCH   4  17
ATOM     17  C   UNL d   1      32.875  21.318 -21.613  0.00  0.00     0.148 A 
ATOM     18  N   UNL d   1      32.508  21.440 -20.893  0.00  0.00    -0.227 NA
ATOM     19  C   UNL d   1      32.510  22.192 -20.564  0.00  0.00     0.101 A 
ATOM     20  C   UNL d   1      32.873  22.809 -20.948  0.00  0.00     0.021 A 
ATOM     21  C   UNL d   1      33.240  22.676 -21.672  0.00  0.00     0.005 A 
ATOM     22  C   UNL d   1      33.238  21.931 -21.999  0.00  0.00     0.037 A 
ENDBRANCH   4  17
TORSDOF 2
ENDMDL
MODEL 2
REMARK VINA RESULT:      -2.2      1.224      5.118
REMARK  2 active torsions:
REMARK  status: ('A' for Active; 'I' for Inactive)
REMARK       I    between atoms: N_2  and  C_1 
REMARK       I    between atoms: N_3  and  C_1 
REMARK    1  A    between atoms: C_12  and  N_3 
REMARK    2  A    between atoms: C_5  and  N_4 
ROOT
ATOM      1  C   UNL d   1      33.041  21.160 -22.183  0.00  0.00     0.339 C 
ATOM      2  N   UNL d   1      33.057  20.424 -22.556  0.00  0.00    -0.254 N 
ATOM      3  N   UNL d   1      32.873  21.215 -21.376  0.00  0.00    -0.257 N 
ATOM      4  N   UNL d   1      33.089  18.940 -23.307  0.00  0.00    -0.286 N 
ATOM      5  O   UNL d   1      33.196  21.842 -22.630  0.00  0.00    -0.245 OA
ATOM      6  C   UNL d   1      33.225  20.364 -23.364  0.00  0.00     0.104 A 
ATOM      7  C   UNL d   1      32.904  19.728 -22.120  0.00  0.00     0.104 A 
ATOM      8  C   UNL d   1      33.241  19.628 -23.736  0.00  0.00     0.101 A 
ATOM      9  C   UNL d   1      32.920  18.988 -22.495  0.00  0.00     0.101 A 
ATOM     10  C   UNL d   1      32.721  20.538 -20.942  0.00  0.00     0.104 C 
ENDROOT
BRANCH   3  11
ATOM     11  C   UNL d   1      32.858  21.960 -21.004  0.00  0.00     0.068 A 
ATOM     12  C   UNL d   1      32.458  22.595 -21.360  0.00  0.00     0.018 A 
ATOM     13  C   UNL d   1      32.450  23.328 -20.982  0.00  0.00     0.002 A 
ATOM     14  C   UNL d   1      32.834  23.431 -20.257  0.00  0.00     0.000 A 
ATOM     15  C   UNL d   1      33.229  22.788 -19.913  0.00  0.00     0.002 A 
ATOM     16  C   UNL d   1      33.240  22.053 -20.288  0.00  0.00     0.018 A 
ENDBRANCH   3  11
BRANCH   4  17
ATOM     17  C   UNL d   1      33.105  18.204 -23.679  0.00  0.00     0.148 A 
ATOM     18  N   UNL d   1      33.225  18.167 -24.487  0.00  0.00    -0.227 NA
ATOM     19  C   UNL d   1      33.241  17.435 -24.858  0.00  0.00     0.101 A 
ATOM     20  C   UNL d   1      33.139  16.753 -24.428  0.00  0.00     0.021 A 
ATOM     21  C   UNL d   1      33.019  16.801 -23.615  0.00  0.00     0.005 A 
ATOM     22  C   UNL d   1      33.003  17.526 -23.248  0.00  0.00     0.037 A 
ENDBRANCH   4  17
TORSDOF 2
ENDMDL
MODEL 3
REMARK VINA RESULT:      -1.5      1.518      5.305
REMARK  2 active torsions:
REMARK  status: ('A' for Active; 'I' for Inactive)
REMARK       I    between atoms: N_2  and  C_1 
REMARK       I    between atoms: N_3  and  C_1 
REMARK    1  A    between atoms: C_12  and  N_3 
REMARK    2  A    between atoms: C_5  and  N_4 
ROOT
ATOM      1  C   UNL d   1      32.778  21.321 -20.635  0.00  0.00     0.339 C 
ATOM      2  N   UNL d   1      32.855  20.853 -21.309  0.00  0.00    -0.254 N 
ATOM      3  N   UNL d   1      32.842  22.143 -20.689  0.00  0.00    -0.257 N 
ATOM      4  N   UNL d   1      33.011  19.908 -22.669  0.00  0.00    -0.286 N 
ATOM      5  O   UNL d   1      32.636  20.956 -19.903  0.00  0.00    -0.245 OA
ATOM      6  C   UNL d   1      32.792  20.029 -21.260  0.00  0.00     0.104 A 
ATOM      7  C   UNL d   1      32.999  21.205 -22.053  0.00  0.00     0.104 A 
ATOM      8  C   UNL d   1      32.869  19.561 -21.934  0.00  0.00     0.101 A 
ATOM      9  C   UNL d   1      33.076  20.734 -22.730  0.00  0.00     0.101 A 
ATOM     10  C   UNL d   1      32.983  22.497 -21.414  0.00  0.00     0.104 C 
ENDROOT
BRANCH   3  11
ATOM     11  C   UNL d   1      32.764  22.613 -20.005  0.00  0.00     0.068 A 
ATOM     12  C   UNL d   1      33.241  22.465 -19.342  0.00  0.00     0.018 A 
ATOM     13  C   UNL d   1      33.155  22.936 -18.671  0.00  0.00     0.002 A 
ATOM     14  C   UNL d   1      32.600  23.550 -18.657  0.00  0.00     0.000 A 
ATOM     15  C   UNL d   1      32.131  23.687 -19.327  0.00  0.00     0.002 A 
ATOM     16  C   UNL d   1      32.214  23.217 -20.000  0.00  0.00     0.018 A 
ENDBRANCH   3  11
BRANCH   4  17
ATOM     17  C   UNL d   1      33.088  19.439 -23.344  0.00  0.00     0.148 A 
ATOM     18  N   UNL d   1      33.132  19.798 -24.077  0.00  0.00    -0.227 NA
ATOM     19  C   UNL d   1      33.209  19.331 -24.748  0.00  0.00     0.101 A 
ATOM     20  C   UNL d   1      33.240  18.522 -24.686  0.00  0.00     0.021 A 
ATOM     21  C   UNL d   1      33.195  18.170 -23.943  0.00  0.00     0.005 A 
ATOM     22  C   UNL d   1      33.119  18.632 -23.278  0.00  0.00     0.037 A 
ENDBRANCH   4  17
TORSDOF 2
ENDMDL
MODEL 4
REMARK VINA RESULT:      -1.4      1.216      2.183
REMARK  2 active torsions:
REMARK  status: ('A' for Active; 'I' for Inactive)
REMARK       I    between atoms: N_2  and  C_1 
REMARK       I    between atoms: N_3  and  C_1 
REMARK    1  A    between atoms: C_12  and  N_3 
REMARK    2  A    between atoms: C_5  and  N_4 
ROOT
ATOM      1  C   UNL d   1      32.806  20.120 -22.442  0.00  0.00     0.339 C 
ATOM      2  N   UNL d   1      32.875  20.677 -21.837  0.00  0.00    -0.254 N 
ATOM      3  N   UNL d   1      32.989  19.327 -22.301  0.00  0.00    -0.257 N 
ATOM      4  N   UNL d   1      33.015  21.800 -20.619  0.00  0.00    -0.286 N 
ATOM      5  O   UNL d   1      32.550  20.368 -23.192  0.00  0.00    -0.245 OA
ATOM      6  C   UNL d   1      32.693  21.472 -21.974  0.00  0.00     0.104 A 
ATOM      7  C   UNL d   1      33.131  20.444 -21.078  0.00  0.00     0.104 A 
ATOM      8  C   UNL d   1      32.762  22.029 -21.370  0.00  0.00     0.101 A 
ATOM      9  C   UNL d   1      33.201  21.004 -20.470  0.00  0.00     0.101 A 
ATOM     10  C   UNL d   1      33.241  19.090 -21.559  0.00  0.00     0.104 C 
ENDROOT
BRANCH   3  11
ATOM     11  C   UNL d   1      32.918  18.768 -22.914  0.00  0.00     0.068 A 
ATOM     12  C   UNL d   1      33.241  18.928 -23.662  0.00  0.00     0.018 A 
ATOM     13  C   UNL d   1      33.164  18.366 -24.262  0.00  0.00     0.002 A 
ATOM     14  C   UNL d   1      32.771  17.652 -24.121  0.00  0.00     0.000 A 
ATOM     15  C   UNL d   1      32.453  17.506 -23.369  0.00  0.00     0.002 A 
ATOM     16  C   UNL d   1      32.528  18.066 -22.767  0.00  0.00     0.018 A 
ENDBRANCH   3  11
BRANCH   4  17
ATOM     17  C   UNL d   1      33.084  22.357 -20.014  0.00  0.00     0.148 A 
ATOM     18  N   UNL d   1      33.089  22.105 -19.236  0.00  0.00    -0.227 NA
ATOM     19  C   UNL d   1      33.158  22.659 -18.635  0.00  0.00     0.101 A 
ATOM     20  C   UNL d   1      33.221  23.450 -18.809  0.00  0.00     0.021 A 
ATOM     21  C   UNL d   1      33.215  23.694 -19.595  0.00  0.00     0.005 A 
ATOM     22  C   UNL d   1      33.147  23.146 -20.191  0.00  0.00     0.037 A 
ENDBRANCH   4  17
TORSDOF 2
ENDMDL
MODEL 5
REMARK VINA RESULT:      -0.2      3.629      4.781
REMARK  2 active torsions:
REMARK  status: ('A' for Active; 'I' for Inactive)
REMARK       I    between atoms: N_2  and  C_1 
REMARK       I    between atoms: N_3  and  C_1 
REMARK    1  A    between atoms: C_12  and  N_3 
REMARK    2  A    between atoms: C_5  and  N_4 
ROOT
ATOM      1  C   UNL d   1      32.976  22.293 -21.470  0.00  0.00     0.339 C 
ATOM      2  N   UNL d   1      32.998  22.426 -20.657  0.00  0.00    -0.254 N 
ATOM      3  N   UNL d   1      32.999  22.928 -21.998  0.00  0.00    -0.257 N 
ATOM      4  N   UNL d   1      33.042  22.694 -19.016  0.00  0.00    -0.286 N 
ATOM      5  O   UNL d   1      32.931  21.513 -21.751  0.00  0.00    -0.245 OA
ATOM      6  C   UNL d   1      32.975  21.792 -20.126  0.00  0.00     0.104 A 
ATOM      7  C   UNL d   1      33.043  23.205 -20.358  0.00  0.00     0.104 A 
ATOM      8  C   UNL d   1      32.997  21.925 -19.312  0.00  0.00     0.101 A 
ATOM      9  C   UNL d   1      33.065  23.338 -19.541  0.00  0.00     0.101 A 
ATOM     10  C   UNL d   1      33.044  23.695 -21.714  0.00  0.00     0.104 C 
ENDROOT
BRANCH   3  11
ATOM     11  C   UNL d   1      32.977  22.790 -22.819  0.00  0.00     0.068 A 
ATOM     12  C   UNL d   1      33.139  22.032 -23.117  0.00  0.00     0.018 A 
ATOM     13  C   UNL d   1      33.115  21.907 -23.932  0.00  0.00     0.002 A 
ATOM     14  C   UNL d   1      32.930  22.527 -24.447  0.00  0.00     0.000 A 
ATOM     15  C   UNL d   1      32.771  23.279 -24.135  0.00  0.00     0.002 A 
ATOM     16  C   UNL d   1      32.794  23.408 -23.320  0.00  0.00     0.018 A 
ENDBRANCH   3  11
BRANCH   4  17
ATOM     17  C   UNL d   1      33.063  22.827 -18.202  0.00  0.00     0.148 A 
ATOM     18  N   UNL d   1      32.940  22.202 -17.691  0.00  0.00    -0.227 NA
ATOM     19  C   UNL d   1      32.961  22.334 -16.881  0.00  0.00     0.101 A 
ATOM     20  C   UNL d   1      33.104  23.078 -16.589  0.00  0.00     0.021 A 
ATOM     21  C   UNL d   1      33.228  23.702 -17.112  0.00  0.00     0.005 A 
ATOM     22  C   UNL d   1      33.206  23.571 -17.914  0.00  0.00     0.037 A 
ENDBRANCH   4  17
TORSDOF 2
ENDMDL
