MODEL 1
REMARK VINA RESULT:      21.2      0.000      0.000
REMARK  3 active torsions:
REMARK  status: ('A' for Active; 'I' for Inactive)
REMARK    1  A    between atoms: C_2  and  C_1 
REMARK    2  A    between atoms: N_12  and  C_6 
REMARK    3  A    between atoms: C_15  and  N_12 
ROOT
ATOM      1  C   UNL d   1      46.271 -18.140  43.679  0.00  0.00     0.082 A 
ATOM      2  C   UNL d   1      46.337 -18.839  44.120  0.00  0.00     0.302 A 
ATOM      3  C   UNL d   1      46.312 -18.158  42.844  0.00  0.00     0.009 A 
ATOM      4  O   UNL d   1      46.445 -19.564  43.726  0.00  0.00    -0.273 OA
ATOM      5  C   UNL d   1      46.420 -18.890  42.470  0.00  0.00     0.025 A 
ATOM      6  C   UNL d   1      46.486 -19.585  42.909  0.00  0.00     0.103 A 
ATOM      7  O   UNL d   1      46.297 -18.819  44.938  0.00  0.00    -0.259 OA
ATOM      8  C   UNL d   1      46.461 -18.914  41.645  0.00  0.00     0.026 A 
ATOM      9  C   UNL d   1      46.593 -20.307  42.512  0.00  0.00     0.027 A 
ATOM     10  C   UNL d   1      46.567 -19.630  41.260  0.00  0.00     0.094 A 
ATOM     11  C   UNL d   1      46.634 -20.328  41.694  0.00  0.00     0.026 A 
ATOM     12  O   UNL d   1      46.608 -19.654  40.445  0.00  0.00    -0.328 OA
ATOM     13  C   UNL d   1      46.647 -19.664  39.620  0.00  0.00     0.181 C 
ENDROOT
BRANCH   1  14
ATOM     14  C   UNL d   1      46.165 -17.425  44.065  0.00  0.00     0.095 A 
ATOM     15  N   UNL d   1      46.458 -16.702  43.824  0.00  0.00    -0.221 NA
ATOM     16  C   UNL d   1      46.220 -16.140  44.370  0.00  0.00     0.194 A 
ATOM     17  S   UNL d   1      45.775 -16.517  44.955  0.00  0.00    -0.046 SA
ATOM     18  C   UNL d   1      45.741 -17.317  44.764  0.00  0.00     0.058 A 
BRANCH  16  19
ATOM     19  N   UNL d   1      46.390 -15.341  44.347  0.00  0.00    -0.221 NA
BRANCH  19  20
ATOM     20  C   UNL d   1      45.780 -14.797  44.325  0.00  0.00     0.087 A 
ATOM     21  C   UNL d   1      45.789 -14.191  43.765  0.00  0.00     0.061 A 
ATOM     22  C   UNL d   1      45.179 -13.646  43.742  0.00  0.00     0.197 A 
ATOM     23  O   UNL d   1      45.191 -13.044  43.184  0.00  0.00    -0.286 OA
ATOM     24  C   UNL d   1      44.551 -13.704  44.281  0.00  0.00     0.042 A 
ATOM     25  C   UNL d   1      44.543 -14.305  44.834  0.00  0.00     0.005 A 
ATOM     26  C   UNL d   1      45.156 -14.857  44.862  0.00  0.00     0.019 A 
ENDBRANCH  19  20
ENDBRANCH  16  19
ENDBRANCH   1  14
TORSDOF 3
ENDMDL
