MODEL 1
REMARK VINA RESULT:      -8.5      0.000      0.000
REMARK  3 active torsions:
REMARK  status: ('A' for Active; 'I' for Inactive)
REMARK    1  A    between atoms: C_7  and  N_1 
REMARK    2  A    between atoms: C_6  and  C_2 
REMARK    3  A    between atoms: O_19  and  C_9 
ROOT
ATOM      1  N   UNL d   1     -48.630  12.606  23.116  0.00  0.00    -0.259 N 
ATOM      2  C   UNL d   1     -49.310  13.081  23.116  0.00  0.00     0.137 A 
ATOM      3  C   UNL d   1     -48.831  11.850  23.329  0.00  0.00     0.282 A 
ATOM      4  N   UNL d   1     -49.949  12.591  23.339  0.00  0.00    -0.287 N 
ATOM      5  C   UNL d   1     -49.649  11.822  23.471  0.00  0.00     0.122 A 
ATOM      6  O   UNL d   1     -48.321  11.198  23.399  0.00  0.00    -0.265 OA
ATOM      7  C   UNL d   1     -50.762  12.570  23.479  0.00  0.00     0.082 A 
ATOM      8  C   UNL d   1     -50.287  11.345  23.691  0.00  0.00     0.024 A 
ATOM      9  C   UNL d   1     -50.971  11.798  23.697  0.00  0.00     0.021 A 
ENDROOT
BRANCH   2  10
ATOM     10  C   UNL d   1     -49.362  13.884  22.934  0.00  0.00     0.056 A 
ATOM     11  C   UNL d   1     -49.632  14.126  22.205  0.00  0.00     0.097 A 
ATOM     12  C   UNL d   1     -49.686  14.924  22.017  0.00  0.00     0.024 A 
ATOM     13  C   UNL d   1     -49.461  15.485  22.582  0.00  0.00     0.002 A 
ATOM     14  C   UNL d   1     -49.192  15.244  23.311  0.00  0.00     0.000 A 
ATOM     15  C   UNL d   1     -49.138  14.435  23.498  0.00  0.00     0.005 A 
BRANCH  11  16
ATOM     16  O   UNL d   1     -49.855  13.556  21.643  0.00  0.00    -0.328 OA
ATOM     17  C   UNL d   1     -50.250  13.793  20.937  0.00  0.00     0.181 C 
ENDBRANCH  11  16
ENDBRANCH   2  10
BRANCH   1  18
ATOM     18  C   UNL d   1     -47.873  12.870  22.927  0.00  0.00     0.068 A 
ATOM     19  C   UNL d   1     -47.401  13.198  23.511  0.00  0.00     0.018 A 
ATOM     20  C   UNL d   1     -46.642  13.466  23.330  0.00  0.00     0.013 A 
ATOM     21  C   UNL d   1     -46.359  13.400  22.553  0.00  0.00     0.058 A 
ATOM     22  C   UNL d   1     -46.833  13.070  21.965  0.00  0.00     0.013 A 
ATOM     23 CL   UNL d   1     -45.600  13.668  22.372  0.00  0.00    -0.082 Cl
ATOM     24  C   UNL d   1     -47.591  12.805  22.151  0.00  0.00     0.018 A 
ENDBRANCH   1  18
TORSDOF 3
ENDMDL
MODEL 2
REMARK VINA RESULT:      -8.5      1.205      2.417
REMARK  3 active torsions:
REMARK  status: ('A' for Active; 'I' for Inactive)
REMARK    1  A    between atoms: C_7  and  N_1 
REMARK    2  A    between atoms: C_6  and  C_2 
REMARK    3  A    between atoms: O_19  and  C_9 
ROOT
ATOM      1  N   UNL d   1     -48.130  14.223  22.783  0.00  0.00    -0.259 N 
ATOM      2  C   UNL d   1     -48.830  13.804  22.933  0.00  0.00     0.137 A 
ATOM      3  C   UNL d   1     -48.288  15.018  22.790  0.00  0.00     0.282 A 
ATOM      4  N   UNL d   1     -49.436  14.370  23.034  0.00  0.00    -0.287 N 
ATOM      5  C   UNL d   1     -49.096  15.129  22.945  0.00  0.00     0.122 A 
ATOM      6  O   UNL d   1     -47.746  15.636  22.666  0.00  0.00    -0.265 OA
ATOM      7  C   UNL d   1     -50.240  14.473  23.187  0.00  0.00     0.082 A 
ATOM      8  C   UNL d   1     -49.702  15.681  23.046  0.00  0.00     0.024 A 
ATOM      9  C   UNL d   1     -50.405  15.285  23.195  0.00  0.00     0.021 A 
ENDROOT
BRANCH   2  10
ATOM     10  C   UNL d   1     -48.926  12.985  22.976  0.00  0.00     0.056 A 
ATOM     11  C   UNL d   1     -49.246  12.574  22.351  0.00  0.00     0.097 A 
ATOM     12  C   UNL d   1     -49.345  11.759  22.388  0.00  0.00     0.024 A 
ATOM     13  C   UNL d   1     -49.113  11.357  23.072  0.00  0.00     0.002 A 
ATOM     14  C   UNL d   1     -48.793  11.768  23.697  0.00  0.00     0.000 A 
ATOM     15  C   UNL d   1     -48.695  12.594  23.657  0.00  0.00     0.005 A 
BRANCH  11  16
ATOM     16  O   UNL d   1     -49.477  12.984  21.666  0.00  0.00    -0.328 OA
ATOM     17  C   UNL d   1     -49.882  12.579  21.048  0.00  0.00     0.181 C 
ENDBRANCH  11  16
ENDBRANCH   2  10
BRANCH   1  18
ATOM     18  C   UNL d   1     -47.396  13.877  22.651  0.00  0.00     0.068 A 
ATOM     19  C   UNL d   1     -46.905  13.708  23.286  0.00  0.00     0.018 A 
ATOM     20  C   UNL d   1     -46.168  13.361  23.160  0.00  0.00     0.013 A 
ATOM     21  C   UNL d   1     -45.925  13.183  22.387  0.00  0.00     0.058 A 
ATOM     22  C   UNL d   1     -46.417  13.351  21.748  0.00  0.00     0.013 A 
ATOM     23 CL   UNL d   1     -45.187  12.836  22.263  0.00  0.00    -0.082 Cl
ATOM     24  C   UNL d   1     -47.153  13.698  21.878  0.00  0.00     0.018 A 
ENDBRANCH   1  18
TORSDOF 3
ENDMDL
MODEL 3
REMARK VINA RESULT:      -5.5      1.727      2.934
REMARK  3 active torsions:
REMARK  status: ('A' for Active; 'I' for Inactive)
REMARK    1  A    between atoms: C_7  and  N_1 
REMARK    2  A    between atoms: C_6  and  C_2 
REMARK    3  A    between atoms: O_19  and  C_9 
ROOT
ATOM      1  N   UNL d   1     -48.469  12.381  22.615  0.00  0.00    -0.259 N 
ATOM      2  C   UNL d   1     -47.747  12.712  22.854  0.00  0.00     0.137 A 
ATOM      3  C   UNL d   1     -48.470  11.588  22.781  0.00  0.00     0.282 A 
ATOM      4  N   UNL d   1     -47.292  12.091  23.178  0.00  0.00    -0.287 N 
ATOM      5  C   UNL d   1     -47.744  11.389  23.132  0.00  0.00     0.122 A 
ATOM      6  O   UNL d   1     -49.082  11.047  22.632  0.00  0.00    -0.265 OA
ATOM      7  C   UNL d   1     -46.569  11.900  23.527  0.00  0.00     0.082 A 
ATOM      8  C   UNL d   1     -47.286  10.782  23.455  0.00  0.00     0.024 A 
ATOM      9  C   UNL d   1     -46.565  11.089  23.698  0.00  0.00     0.021 A 
ENDROOT
BRANCH   2  10
ATOM     10  C   UNL d   1     -47.509  13.499  22.791  0.00  0.00     0.056 A 
ATOM     11  C   UNL d   1     -46.892  13.706  22.302  0.00  0.00     0.097 A 
ATOM     12  C   UNL d   1     -46.650  14.488  22.235  0.00  0.00     0.024 A 
ATOM     13  C   UNL d   1     -47.043  15.069  22.673  0.00  0.00     0.002 A 
ATOM     14  C   UNL d   1     -47.660  14.863  23.162  0.00  0.00     0.000 A 
ATOM     15  C   UNL d   1     -47.903  14.069  23.228  0.00  0.00     0.005 A 
BRANCH  11  16
ATOM     16  O   UNL d   1     -46.502  13.117  21.865  0.00  0.00    -0.328 OA
ATOM     17  C   UNL d   1     -45.791  13.300  21.451  0.00  0.00     0.181 C 
ENDBRANCH  11  16
ENDBRANCH   2  10
BRANCH   1  18
ATOM     18  C   UNL d   1     -49.084  12.802  22.265  0.00  0.00     0.068 A 
ATOM     19  C   UNL d   1     -49.644  13.171  22.736  0.00  0.00     0.018 A 
ATOM     20  C   UNL d   1     -50.263  13.595  22.392  0.00  0.00     0.013 A 
ATOM     21  C   UNL d   1     -50.315  13.646  21.566  0.00  0.00     0.058 A 
ATOM     22  C   UNL d   1     -49.753  13.275  21.091  0.00  0.00     0.013 A 
ATOM     23 CL   UNL d   1     -50.934  14.070  21.223  0.00  0.00    -0.082 Cl
ATOM     24  C   UNL d   1     -49.136  12.853  21.438  0.00  0.00     0.018 A 
ENDBRANCH   1  18
TORSDOF 3
ENDMDL
