MODEL 1
REMARK VINA RESULT:      39.9      0.000      0.000
REMARK  3 active torsions:
REMARK  status: ('A' for Active; 'I' for Inactive)
REMARK    1  A    between atoms: C_7  and  C_1 
REMARK    2  A    between atoms: N_5  and  C_9 
REMARK    3  A    between atoms: C_14  and  C_7 
ROOT
ATOM      1  C   UNL d   1     -54.845-101.822 -42.944  0.00  0.00     0.139 A 
ATOM      2  C   UNL d   1     -55.117-101.165 -44.071  0.00  0.00     0.064 A 
ATOM      3  C   UNL d   1     -55.090-101.914 -43.729  0.00  0.00     0.220 A 
ATOM      4  C   UNL d   1     -54.890-100.608 -43.504  0.00  0.00     0.106 A 
ATOM      5  O   UNL d   1     -54.721-101.017 -42.804  0.00  0.00    -0.304 OA
ATOM      6  C   UNL d   1     -54.869 -99.815 -43.701  0.00  0.00     0.067 A 
ATOM      7  C   UNL d   1     -55.320-100.922 -44.832  0.00  0.00     0.009 A 
ATOM      8  O   UNL d   1     -55.273-102.633 -44.094  0.00  0.00    -0.284 OA
ATOM      9  C   UNL d   1     -55.073 -99.572 -44.463  0.00  0.00     0.198 A 
ATOM     10  C   UNL d   1     -55.297-100.123 -45.024  0.00  0.00     0.042 A 
ATOM     11  O   UNL d   1     -55.050 -98.770 -44.657  0.00  0.00    -0.286 OA
ENDROOT
BRANCH   1  12
ATOM     12  C   UNL d   1     -54.740-102.427 -42.391  0.00  0.00     0.028 C 
BRANCH  12  13
ATOM     13  C   UNL d   1     -54.770-102.265 -41.578  0.00  0.00     0.002 A 
ATOM     14  C   UNL d   1     -54.717-101.487 -41.321  0.00  0.00     0.002 A 
ATOM     15  C   UNL d   1     -54.746-101.312 -40.520  0.00  0.00     0.024 A 
ATOM     16  C   UNL d   1     -54.829-101.929 -39.963  0.00  0.00     0.127 A 
ATOM     17  C   UNL d   1     -54.883-102.713 -40.226  0.00  0.00     0.024 A 
ATOM     18  C   UNL d   1     -54.852-102.876 -41.038  0.00  0.00     0.002 A 
BRANCH  16  19
ATOM     19  N   UNL d   1     -54.858-101.750 -39.156  0.00  0.00    -0.114 N 
ATOM     20  O   UNL d   1     -54.726-100.972 -38.909  0.00  0.00    -0.532 OA
ATOM     21  O   UNL d   1     -55.015-102.331 -38.597  0.00  0.00    -0.532 OA
ENDBRANCH  16  19
ENDBRANCH  12  13
ENDBRANCH   1  12
TORSDOF 3
ENDMDL
MODEL 2
REMARK VINA RESULT:      40.8      3.195      4.800
REMARK  3 active torsions:
REMARK  status: ('A' for Active; 'I' for Inactive)
REMARK    1  A    between atoms: C_7  and  C_1 
REMARK    2  A    between atoms: N_5  and  C_9 
REMARK    3  A    between atoms: C_14  and  C_7 
ROOT
ATOM      1  C   UNL d   1     -57.473 -98.869 -45.094  0.00  0.00     0.139 A 
ATOM      2  C   UNL d   1     -58.756 -99.002 -45.433  0.00  0.00     0.064 A 
ATOM      3  C   UNL d   1     -58.232 -99.018 -44.797  0.00  0.00     0.220 A 
ATOM      4  C   UNL d   1     -58.328 -98.844 -46.123  0.00  0.00     0.106 A 
ATOM      5  O   UNL d   1     -57.531 -98.762 -45.910  0.00  0.00    -0.304 OA
ATOM      6  C   UNL d   1     -58.717 -98.797 -46.839  0.00  0.00     0.067 A 
ATOM      7  C   UNL d   1     -59.571 -99.112 -45.469  0.00  0.00     0.009 A 
ATOM      8  O   UNL d   1     -58.419 -99.157 -44.004  0.00  0.00    -0.284 OA
ATOM      9  C   UNL d   1     -59.535 -98.907 -46.875  0.00  0.00     0.198 A 
ATOM     10  C   UNL d   1     -59.958 -99.063 -46.193  0.00  0.00     0.042 A 
ATOM     11  O   UNL d   1     -59.924 -98.858 -47.601  0.00  0.00    -0.286 OA
ENDROOT
BRANCH   1  12
ATOM     12  C   UNL d   1     -56.776 -98.834 -44.653  0.00  0.00     0.028 C 
BRANCH  12  13
ATOM     13  C   UNL d   1     -56.311 -99.512 -44.543  0.00  0.00     0.002 A 
ATOM     14  C   UNL d   1     -56.642-100.171 -44.182  0.00  0.00     0.002 A 
ATOM     15  C   UNL d   1     -56.193-100.849 -44.067  0.00  0.00     0.024 A 
ATOM     16  C   UNL d   1     -55.397-100.867 -44.319  0.00  0.00     0.127 A 
ATOM     17  C   UNL d   1     -55.067-100.200 -44.683  0.00  0.00     0.024 A 
ATOM     18  C   UNL d   1     -55.531 -99.523 -44.793  0.00  0.00     0.002 A 
BRANCH  16  19
ATOM     19  N   UNL d   1     -54.947-101.552 -44.201  0.00  0.00    -0.114 N 
ATOM     20  O   UNL d   1     -54.725-102.007 -44.855  0.00  0.00    -0.532 OA
ATOM     21  O   UNL d   1     -54.719-101.787 -43.449  0.00  0.00    -0.532 OA
ENDBRANCH  16  19
ENDBRANCH  12  13
ENDBRANCH   1  12
TORSDOF 3
ENDMDL
