MODEL 1
REMARK VINA RESULT:     -11.0      0.000      0.000
REMARK  1 active torsions:
REMARK  status: ('A' for Active; 'I' for Inactive)
REMARK    1  A    between atoms: C_5  and  C_8 
ROOT
ATOM      1  C   UNL d   1      53.124  33.561  53.860  0.00  0.00     0.084 A 
ATOM      2  C   UNL d   1      53.194  32.841  53.468  0.00  0.00     0.057 A 
ATOM      3  N   UNL d   1      52.480  34.050  53.713  0.00  0.00    -0.245 NA
ATOM      4  C   UNL d   1      52.625  32.602  52.927  0.00  0.00     0.199 A 
ATOM      5  C   UNL d   1      51.977  33.090  52.777  0.00  0.00     0.061 A 
ATOM      6  C   UNL d   1      51.907  33.810  53.169  0.00  0.00     0.085 A 
ATOM      7  C   UNL d   1      54.346  33.309  54.552  0.00  0.00     0.073 A 
ATOM      8  C   UNL d   1      53.701  33.796  54.404  0.00  0.00     0.023 A 
ATOM      9  C   UNL d   1      53.842  32.353  53.618  0.00  0.00     0.005 A 
ATOM     10  O   UNL d   1      52.702  31.879  52.538  0.00  0.00    -0.286 OA
ATOM     11  C   UNL d   1      54.416  32.584  54.157  0.00  0.00     0.004 A 
ATOM     12  C   UNL d   1      51.256  34.300  53.018  0.00  0.00     0.021 C 
ENDROOT
BRANCH   7  13
ATOM     13  C   UNL d   1      54.926  33.539  55.096  0.00  0.00     0.419 C 
ATOM     14  F   UNL d   1      55.453  33.748  55.585  0.00  0.00    -0.166 F 
ATOM     15  F   UNL d   1      54.978  33.369  55.938  0.00  0.00    -0.166 F 
ATOM     16  F   UNL d   1      55.633  34.009  54.964  0.00  0.00    -0.166 F 
ENDBRANCH   7  13
TORSDOF 1
ENDMDL
MODEL 2
REMARK VINA RESULT:     -10.9      1.150      1.865
REMARK  1 active torsions:
REMARK  status: ('A' for Active; 'I' for Inactive)
REMARK    1  A    between atoms: C_5  and  C_8 
ROOT
ATOM      1  C   UNL d   1      53.729  32.049  53.914  0.00  0.00     0.084 A 
ATOM      2  C   UNL d   1      53.255  32.553  53.470  0.00  0.00     0.057 A 
ATOM      3  N   UNL d   1      53.659  31.235  53.829  0.00  0.00    -0.245 NA
ATOM      4  C   UNL d   1      52.707  32.252  52.937  0.00  0.00     0.199 A 
ATOM      5  C   UNL d   1      52.634  31.434  52.849  0.00  0.00     0.061 A 
ATOM      6  C   UNL d   1      53.109  30.930  53.293  0.00  0.00     0.085 A 
ATOM      7  C   UNL d   1      54.349  33.173  54.535  0.00  0.00     0.073 A 
ATOM      8  C   UNL d   1      54.279  32.359  54.449  0.00  0.00     0.023 A 
ATOM      9  C   UNL d   1      53.327  33.370  53.558  0.00  0.00     0.005 A 
ATOM     10  O   UNL d   1      52.235  32.763  52.495  0.00  0.00    -0.286 OA
ATOM     11  C   UNL d   1      53.872  33.680  54.088  0.00  0.00     0.004 A 
ATOM     12  C   UNL d   1      53.036  30.109  53.204  0.00  0.00     0.021 C 
ENDROOT
BRANCH   7  13
ATOM     13  C   UNL d   1      54.898  33.489  55.069  0.00  0.00     0.419 C 
ATOM     14  F   UNL d   1      55.392  33.775  55.554  0.00  0.00    -0.166 F 
ATOM     15  F   UNL d   1      55.648  33.878  54.908  0.00  0.00    -0.166 F 
ATOM     16  F   UNL d   1      54.864  33.514  55.927  0.00  0.00    -0.166 F 
ENDBRANCH   7  13
TORSDOF 1
ENDMDL
MODEL 3
REMARK VINA RESULT:     -10.3      2.521      3.285
REMARK  1 active torsions:
REMARK  status: ('A' for Active; 'I' for Inactive)
REMARK    1  A    between atoms: C_5  and  C_8 
ROOT
ATOM      1  C   UNL d   1      53.670  32.309  53.965  0.00  0.00     0.084 A 
ATOM      2  C   UNL d   1      53.170  32.875  53.639  0.00  0.00     0.057 A 
ATOM      3  N   UNL d   1      54.256  32.534  54.495  0.00  0.00    -0.245 NA
ATOM      4  C   UNL d   1      53.248  33.668  53.837  0.00  0.00     0.199 A 
ATOM      5  C   UNL d   1      53.835  33.897  54.370  0.00  0.00     0.061 A 
ATOM      6  C   UNL d   1      54.336  33.331  54.696  0.00  0.00     0.085 A 
ATOM      7  C   UNL d   1      53.001  31.287  53.230  0.00  0.00     0.073 A 
ATOM      8  C   UNL d   1      53.586  31.512  53.760  0.00  0.00     0.023 A 
ATOM      9  C   UNL d   1      52.583  32.647  53.107  0.00  0.00     0.005 A 
ATOM     10  O   UNL d   1      52.743  34.229  53.507  0.00  0.00    -0.286 OA
ATOM     11  C   UNL d   1      52.497  31.856  52.902  0.00  0.00     0.004 A 
ATOM     12  C   UNL d   1      54.926  33.562  55.231  0.00  0.00     0.021 C 
ENDROOT
BRANCH   7  13
ATOM     13  C   UNL d   1      52.912  30.490  53.021  0.00  0.00     0.419 C 
ATOM     14  F   UNL d   1      52.833  29.770  52.830  0.00  0.00    -0.166 F 
ATOM     15  F   UNL d   1      52.519  29.858  53.453  0.00  0.00    -0.166 F 
ATOM     16  F   UNL d   1      53.189  30.083  52.318  0.00  0.00    -0.166 F 
ENDBRANCH   7  13
TORSDOF 1
ENDMDL
MODEL 4
REMARK VINA RESULT:     -10.0      2.503      2.970
REMARK  1 active torsions:
REMARK  status: ('A' for Active; 'I' for Inactive)
REMARK    1  A    between atoms: C_5  and  C_8 
ROOT
ATOM      1  C   UNL d   1      52.657  32.510  53.144  0.00  0.00     0.084 A 
ATOM      2  C   UNL d   1      53.298  32.746  53.603  0.00  0.00     0.057 A 
ATOM      3  N   UNL d   1      52.128  33.069  52.857  0.00  0.00    -0.245 NA
ATOM      4  C   UNL d   1      53.418  33.538  53.780  0.00  0.00     0.199 A 
ATOM      5  C   UNL d   1      52.887  34.103  53.494  0.00  0.00     0.061 A 
ATOM      6  C   UNL d   1      52.246  33.867  53.035  0.00  0.00     0.085 A 
ATOM      7  C   UNL d   1      53.072  31.150  53.255  0.00  0.00     0.073 A 
ATOM      8  C   UNL d   1      52.543  31.709  52.969  0.00  0.00     0.023 A 
ATOM      9  C   UNL d   1      53.828  32.182  53.889  0.00  0.00     0.005 A 
ATOM     10  O   UNL d   1      54.062  33.767  54.240  0.00  0.00    -0.286 OA
ATOM     11  C   UNL d   1      53.717  31.387  53.717  0.00  0.00     0.004 A 
ATOM     12  C   UNL d   1      51.714  34.433  52.747  0.00  0.00     0.021 C 
ENDROOT
BRANCH   7  13
ATOM     13  C   UNL d   1      52.963  30.347  53.083  0.00  0.00     0.419 C 
ATOM     14  F   UNL d   1      52.863  29.621  52.930  0.00  0.00    -0.166 F 
ATOM     15  F   UNL d   1      53.116  29.925  52.349  0.00  0.00    -0.166 F 
ATOM     16  F   UNL d   1      52.667  29.721  53.592  0.00  0.00    -0.166 F 
ENDBRANCH   7  13
TORSDOF 1
ENDMDL
MODEL 5
REMARK VINA RESULT:     -10.0      2.402      3.239
REMARK  1 active torsions:
REMARK  status: ('A' for Active; 'I' for Inactive)
REMARK    1  A    between atoms: C_5  and  C_8 
ROOT
ATOM      1  C   UNL d   1      53.200  33.529  53.801  0.00  0.00     0.084 A 
ATOM      2  C   UNL d   1      53.204  32.718  53.660  0.00  0.00     0.057 A 
ATOM      3  N   UNL d   1      53.752  33.861  54.311  0.00  0.00    -0.245 NA
ATOM      4  C   UNL d   1      53.756  32.232  54.025  0.00  0.00     0.199 A 
ATOM      5  C   UNL d   1      54.311  32.563  54.538  0.00  0.00     0.061 A 
ATOM      6  C   UNL d   1      54.308  33.374  54.679  0.00  0.00     0.085 A 
ATOM      7  C   UNL d   1      52.089  33.682  52.920  0.00  0.00     0.073 A 
ATOM      8  C   UNL d   1      52.641  34.013  53.430  0.00  0.00     0.023 A 
ATOM      9  C   UNL d   1      52.649  32.388  53.148  0.00  0.00     0.005 A 
ATOM     10  O   UNL d   1      53.753  31.421  53.879  0.00  0.00    -0.286 OA
ATOM     11  C   UNL d   1      52.093  32.866  52.778  0.00  0.00     0.004 A 
ATOM     12  C   UNL d   1      54.866  33.705  55.194  0.00  0.00     0.021 C 
ENDROOT
BRANCH   7  13
ATOM     13  C   UNL d   1      51.527  34.162  52.546  0.00  0.00     0.419 C 
ATOM     14  F   UNL d   1      51.020  34.595  52.205  0.00  0.00    -0.166 F 
ATOM     15  F   UNL d   1      50.773  34.448  52.846  0.00  0.00    -0.166 F 
ATOM     16  F   UNL d   1      51.547  34.501  51.757  0.00  0.00    -0.166 F 
ENDBRANCH   7  13
TORSDOF 1
ENDMDL
MODEL 6
REMARK VINA RESULT:      -9.8      2.796      3.441
REMARK  1 active torsions:
REMARK  status: ('A' for Active; 'I' for Inactive)
REMARK    1  A    between atoms: C_5  and  C_8 
ROOT
ATOM      1  C   UNL d   1      53.554  31.247  54.022  0.00  0.00     0.084 A 
ATOM      2  C   UNL d   1      53.110  31.288  53.330  0.00  0.00     0.057 A 
ATOM      3  N   UNL d   1      53.903  31.925  54.328  0.00  0.00    -0.245 NA
ATOM      4  C   UNL d   1      53.009  32.003  52.939  0.00  0.00     0.199 A 
ATOM      5  C   UNL d   1      53.359  32.686  53.245  0.00  0.00     0.061 A 
ATOM      6  C   UNL d   1      53.803  32.644  53.936  0.00  0.00     0.085 A 
ATOM      7  C   UNL d   1      53.303  29.845  54.105  0.00  0.00     0.073 A 
ATOM      8  C   UNL d   1      53.652  30.523  54.411  0.00  0.00     0.023 A 
ATOM      9  C   UNL d   1      52.761  30.607  53.025  0.00  0.00     0.005 A 
ATOM     10  O   UNL d   1      52.563  32.037  52.247  0.00  0.00    -0.286 OA
ATOM     11  C   UNL d   1      52.856  29.887  53.409  0.00  0.00     0.004 A 
ATOM     12  C   UNL d   1      54.154  33.330  54.242  0.00  0.00     0.021 C 
ENDROOT
BRANCH   7  13
ATOM     13  C   UNL d   1      53.398  29.118  54.490  0.00  0.00     0.419 C 
ATOM     14  F   UNL d   1      53.481  28.462  54.840  0.00  0.00    -0.166 F 
ATOM     15  F   UNL d   1      53.823  28.418  54.227  0.00  0.00    -0.166 F 
ATOM     16  F   UNL d   1      53.096  28.869  55.255  0.00  0.00    -0.166 F 
ENDBRANCH   7  13
TORSDOF 1
ENDMDL
MODEL 7
REMARK VINA RESULT:      -9.1      1.743      2.424
REMARK  1 active torsions:
REMARK  status: ('A' for Active; 'I' for Inactive)
REMARK    1  A    between atoms: C_5  and  C_8 
ROOT
ATOM      1  C   UNL d   1      53.180  33.375  53.809  0.00  0.00     0.084 A 
ATOM      2  C   UNL d   1      52.614  33.289  53.218  0.00  0.00     0.057 A 
ATOM      3  N   UNL d   1      53.627  32.729  54.050  0.00  0.00    -0.245 NA
ATOM      4  C   UNL d   1      52.487  32.559  52.863  0.00  0.00     0.199 A 
ATOM      5  C   UNL d   1      52.934  31.908  53.103  0.00  0.00     0.061 A 
ATOM      6  C   UNL d   1      53.500  31.995  53.694  0.00  0.00     0.085 A 
ATOM      7  C   UNL d   1      52.857  34.760  53.922  0.00  0.00     0.073 A 
ATOM      8  C   UNL d   1      53.303  34.113  54.162  0.00  0.00     0.023 A 
ATOM      9  C   UNL d   1      52.167  33.939  52.978  0.00  0.00     0.005 A 
ATOM     10  O   UNL d   1      51.918  32.480  52.272  0.00  0.00    -0.286 OA
ATOM     11  C   UNL d   1      52.287  34.672  53.327  0.00  0.00     0.004 A 
ATOM     12  C   UNL d   1      53.949  31.340  53.934  0.00  0.00     0.021 C 
ENDROOT
BRANCH   7  13
ATOM     13  C   UNL d   1      52.976  35.501  54.272  0.00  0.00     0.419 C 
ATOM     14  F   UNL d   1      53.085  36.172  54.586  0.00  0.00    -0.166 F 
ATOM     15  F   UNL d   1      52.618  35.827  54.983  0.00  0.00    -0.166 F 
ATOM     16  F   UNL d   1      53.488  36.142  54.018  0.00  0.00    -0.166 F 
ENDBRANCH   7  13
TORSDOF 1
ENDMDL
