MODEL 1
REMARK VINA RESULT:      -2.9      0.000      0.000
REMARK  3 active torsions:
REMARK  status: ('A' for Active; 'I' for Inactive)
REMARK    1  A    between atoms: C_14  and  C_4 
REMARK    2  A    between atoms: C_5  and  S_10 
REMARK    3  A    between atoms: S_10  and  C_14 
ROOT
ATOM      1  N   UNL d   1      32.511  20.711 -21.113  0.00  0.00    -0.226 NA
ATOM      2  N   UNL d   1      32.941  21.840 -21.744  0.00  0.00    -0.288 N 
ATOM      3  C   UNL d   1      32.497  21.558 -21.108  0.00  0.00     0.148 A 
ATOM      4  C   UNL d   1      32.975  20.512 -21.770  0.00  0.00     0.107 A 
ATOM      5  C   UNL d   1      33.240  21.174 -22.157  0.00  0.00     0.101 A 
ATOM      6  C   UNL d   1      33.013  22.653 -21.860  0.00  0.00     0.082 A 
ATOM      7  C   UNL d   1      32.118  22.085 -20.578  0.00  0.00     0.037 A 
ATOM      8  C   UNL d   1      32.634  23.181 -21.330  0.00  0.00     0.019 A 
ATOM      9  C   UNL d   1      32.205  22.908 -20.714  0.00  0.00     0.005 A 
ENDROOT
BRANCH   4  10
ATOM     10  C   UNL d   1      33.142  19.741 -21.995  0.00  0.00     0.058 C 
BRANCH  10  11
ATOM     11  S   UNL d   1      32.959  19.482 -22.739  0.00  0.00    -0.059 SA
BRANCH  11  12
ATOM     12  C   UNL d   1      33.004  18.650 -22.932  0.00  0.00     0.141 A 
ATOM     13  N   UNL d   1      33.236  17.993 -22.487  0.00  0.00    -0.230 NA
ATOM     14  C   UNL d   1      33.150  17.353 -23.005  0.00  0.00     0.107 A 
ATOM     15  C   UNL d   1      32.887  17.594 -23.711  0.00  0.00     0.058 A 
ATOM     16  S   UNL d   1      32.795  18.389 -23.676  0.00  0.00    -0.059 SA
ENDBRANCH  11  12
ENDBRANCH  10  11
ENDBRANCH   4  10
TORSDOF 3
ENDMDL
MODEL 2
REMARK VINA RESULT:      -2.5      1.163      1.720
REMARK  3 active torsions:
REMARK  status: ('A' for Active; 'I' for Inactive)
REMARK    1  A    between atoms: C_14  and  C_4 
REMARK    2  A    between atoms: C_5  and  S_10 
REMARK    3  A    between atoms: S_10  and  C_14 
ROOT
ATOM      1  N   UNL d   1      33.225  19.222 -21.757  0.00  0.00    -0.226 NA
ATOM      2  N   UNL d   1      33.237  20.396 -22.447  0.00  0.00    -0.288 N 
ATOM      3  C   UNL d   1      33.227  20.066 -21.691  0.00  0.00     0.148 A 
ATOM      4  C   UNL d   1      33.233  19.073 -22.572  0.00  0.00     0.107 A 
ATOM      5  C   UNL d   1      33.241  19.764 -22.998  0.00  0.00     0.101 A 
ATOM      6  C   UNL d   1      33.241  21.217 -22.532  0.00  0.00     0.082 A 
ATOM      7  C   UNL d   1      33.221  20.551 -21.008  0.00  0.00     0.037 A 
ATOM      8  C   UNL d   1      33.235  21.702 -21.849  0.00  0.00     0.019 A 
ATOM      9  C   UNL d   1      33.226  21.382 -21.117  0.00  0.00     0.005 A 
ENDROOT
BRANCH   4  10
ATOM     10  C   UNL d   1      33.234  18.322 -22.900  0.00  0.00     0.058 C 
BRANCH  10  11
ATOM     11  S   UNL d   1      32.566  18.024 -23.246  0.00  0.00    -0.059 SA
BRANCH  11  12
ATOM     12  C   UNL d   1      32.541  17.212 -23.514  0.00  0.00     0.141 A 
ATOM     13  N   UNL d   1      33.136  16.646 -23.613  0.00  0.00    -0.230 NA
ATOM     14  C   UNL d   1      32.737  15.975 -23.888  0.00  0.00     0.107 A 
ATOM     15  C   UNL d   1      31.961  16.114 -23.954  0.00  0.00     0.058 A 
ATOM     16  S   UNL d   1      31.831  16.872 -23.726  0.00  0.00    -0.059 SA
ENDBRANCH  11  12
ENDBRANCH  10  11
ENDBRANCH   4  10
TORSDOF 3
ENDMDL
MODEL 3
REMARK VINA RESULT:      -2.5      3.434      5.558
REMARK  3 active torsions:
REMARK  status: ('A' for Active; 'I' for Inactive)
REMARK    1  A    between atoms: C_14  and  C_4 
REMARK    2  A    between atoms: C_5  and  S_10 
REMARK    3  A    between atoms: S_10  and  C_14 
ROOT
ATOM      1  N   UNL d   1      29.787  17.294 -24.374  0.00  0.00    -0.226 NA
ATOM      2  N   UNL d   1      29.729  16.088 -23.741  0.00  0.00    -0.288 N 
ATOM      3  C   UNL d   1      29.275  16.718 -24.021  0.00  0.00     0.148 A 
ATOM      4  C   UNL d   1      30.549  16.978 -24.290  0.00  0.00     0.107 A 
ATOM      5  C   UNL d   1      30.531  16.259 -23.914  0.00  0.00     0.101 A 
ATOM      6  C   UNL d   1      29.356  15.453 -23.371  0.00  0.00     0.082 A 
ATOM      7  C   UNL d   1      28.442  16.722 -23.935  0.00  0.00     0.037 A 
ATOM      8  C   UNL d   1      28.522  15.456 -23.286  0.00  0.00     0.019 A 
ATOM      9  C   UNL d   1      28.083  16.067 -23.557  0.00  0.00     0.005 A 
ENDROOT
BRANCH   4  10
ATOM     10  C   UNL d   1      31.230  17.350 -24.555  0.00  0.00     0.058 C 
BRANCH  10  11
ATOM     11  S   UNL d   1      31.701  17.759 -24.040  0.00  0.00    -0.059 SA
BRANCH  11  12
ATOM     12  C   UNL d   1      32.300  18.296 -24.332  0.00  0.00     0.141 A 
ATOM     13  N   UNL d   1      32.571  18.456 -25.096  0.00  0.00    -0.230 NA
ATOM     14  C   UNL d   1      33.156  19.031 -24.991  0.00  0.00     0.107 A 
ATOM     15  C   UNL d   1      33.240  19.212 -24.226  0.00  0.00     0.058 A 
ATOM     16  S   UNL d   1      32.718  18.765 -23.813  0.00  0.00    -0.059 SA
ENDBRANCH  11  12
ENDBRANCH  10  11
ENDBRANCH   4  10
TORSDOF 3
ENDMDL
MODEL 4
REMARK VINA RESULT:      -2.4      3.591      4.854
REMARK  3 active torsions:
REMARK  status: ('A' for Active; 'I' for Inactive)
REMARK    1  A    between atoms: C_14  and  C_4 
REMARK    2  A    between atoms: C_5  and  S_10 
REMARK    3  A    between atoms: S_10  and  C_14 
ROOT
ATOM      1  N   UNL d   1      31.602  17.414 -23.650  0.00  0.00    -0.226 NA
ATOM      2  N   UNL d   1      31.980  18.194 -24.701  0.00  0.00    -0.288 N 
ATOM      3  C   UNL d   1      32.150  18.002 -23.917  0.00  0.00     0.148 A 
ATOM      4  C   UNL d   1      31.111  17.272 -24.302  0.00  0.00     0.107 A 
ATOM      5  C   UNL d   1      31.322  17.730 -24.937  0.00  0.00     0.101 A 
ATOM      6  C   UNL d   1      32.439  18.758 -25.090  0.00  0.00     0.082 A 
ATOM      7  C   UNL d   1      32.783  18.371 -23.510  0.00  0.00     0.037 A 
ATOM      8  C   UNL d   1      33.072  19.127 -24.683  0.00  0.00     0.019 A 
ATOM      9  C   UNL d   1      33.237  18.941 -23.924  0.00  0.00     0.005 A 
ENDROOT
BRANCH   4  10
ATOM     10  C   UNL d   1      30.490  16.736 -24.298  0.00  0.00     0.058 C 
BRANCH  10  11
ATOM     11  S   UNL d   1      29.724  16.994 -24.278  0.00  0.00    -0.059 SA
BRANCH  11  12
ATOM     12  C   UNL d   1      29.082  16.442 -24.157  0.00  0.00     0.141 A 
ATOM     13  N   UNL d   1      28.921  15.703 -24.491  0.00  0.00    -0.230 NA
ATOM     14  C   UNL d   1      28.214  15.466 -24.132  0.00  0.00     0.107 A 
ATOM     15  C   UNL d   1      27.959  16.012 -23.620  0.00  0.00     0.058 A 
ATOM     16  S   UNL d   1      28.486  16.616 -23.628  0.00  0.00    -0.059 SA
ENDBRANCH  11  12
ENDBRANCH  10  11
ENDBRANCH   4  10
TORSDOF 3
ENDMDL
MODEL 5
REMARK VINA RESULT:      -1.8      3.280      4.268
REMARK  3 active torsions:
REMARK  status: ('A' for Active; 'I' for Inactive)
REMARK    1  A    between atoms: C_14  and  C_4 
REMARK    2  A    between atoms: C_5  and  S_10 
REMARK    3  A    between atoms: S_10  and  C_14 
ROOT
ATOM      1  N   UNL d   1      32.801  23.589 -19.094  0.00  0.00    -0.226 NA
ATOM      2  N   UNL d   1      33.102  22.529 -18.293  0.00  0.00    -0.288 N 
ATOM      3  C   UNL d   1      32.834  23.309 -18.295  0.00  0.00     0.148 A 
ATOM      4  C   UNL d   1      33.057  22.948 -19.552  0.00  0.00     0.107 A 
ATOM      5  C   UNL d   1      33.241  22.307 -19.090  0.00  0.00     0.101 A 
ATOM      6  C   UNL d   1      33.183  22.129 -17.575  0.00  0.00     0.082 A 
ATOM      7  C   UNL d   1      32.643  23.702 -17.580  0.00  0.00     0.037 A 
ATOM      8  C   UNL d   1      32.991  22.523 -16.861  0.00  0.00     0.019 A 
ATOM      9  C   UNL d   1      32.732  23.278 -16.863  0.00  0.00     0.005 A 
ENDROOT
BRANCH   4  10
ATOM     10  C   UNL d   1      33.116  22.965 -20.370  0.00  0.00     0.058 C 
BRANCH  10  11
ATOM     11  S   UNL d   1      32.455  22.891 -20.831  0.00  0.00    -0.059 SA
BRANCH  11  12
ATOM     12  C   UNL d   1      32.507  22.968 -21.681  0.00  0.00     0.141 A 
ATOM     13  N   UNL d   1      32.632  22.410 -22.278  0.00  0.00    -0.230 NA
ATOM     14  C   UNL d   1      32.621  22.851 -22.978  0.00  0.00     0.107 A 
ATOM     15  C   UNL d   1      32.500  23.618 -22.827  0.00  0.00     0.058 A 
ATOM     16  S   UNL d   1      32.428  23.699 -22.032  0.00  0.00    -0.059 SA
ENDBRANCH  11  12
ENDBRANCH  10  11
ENDBRANCH   4  10
TORSDOF 3
ENDMDL
MODEL 6
REMARK VINA RESULT:      -0.5      2.683      4.782
REMARK  3 active torsions:
REMARK  status: ('A' for Active; 'I' for Inactive)
REMARK    1  A    between atoms: C_14  and  C_4 
REMARK    2  A    between atoms: C_5  and  S_10 
REMARK    3  A    between atoms: S_10  and  C_14 
ROOT
ATOM      1  N   UNL d   1      31.987  21.589 -20.363  0.00  0.00    -0.226 NA
ATOM      2  N   UNL d   1      32.885  21.549 -21.387  0.00  0.00    -0.288 N 
ATOM      3  C   UNL d   1      32.247  21.155 -21.043  0.00  0.00     0.148 A 
ATOM      4  C   UNL d   1      32.493  22.244 -20.325  0.00  0.00     0.107 A 
ATOM      5  C   UNL d   1      33.035  22.235 -20.928  0.00  0.00     0.101 A 
ATOM      6  C   UNL d   1      33.240  21.234 -22.062  0.00  0.00     0.082 A 
ATOM      7  C   UNL d   1      31.953  20.441 -21.368  0.00  0.00     0.037 A 
ATOM      8  C   UNL d   1      32.946  20.521 -22.388  0.00  0.00     0.019 A 
ATOM      9  C   UNL d   1      32.328  20.139 -22.055  0.00  0.00     0.005 A 
ENDROOT
BRANCH   4  10
ATOM     10  C   UNL d   1      32.447  22.824 -19.747  0.00  0.00     0.058 C 
BRANCH  10  11
ATOM     11  S   UNL d   1      33.027  22.893 -19.187  0.00  0.00    -0.059 SA
BRANCH  11  12
ATOM     12  C   UNL d   1      32.832  23.110 -18.383  0.00  0.00     0.141 A 
ATOM     13  N   UNL d   1      32.341  23.699 -18.076  0.00  0.00    -0.230 NA
ATOM     14  C   UNL d   1      32.398  23.607 -17.255  0.00  0.00     0.107 A 
ATOM     15  C   UNL d   1      32.884  23.011 -17.070  0.00  0.00     0.058 A 
ATOM     16  S   UNL d   1      33.155  22.699 -17.758  0.00  0.00    -0.059 SA
ENDBRANCH  11  12
ENDBRANCH  10  11
ENDBRANCH   4  10
TORSDOF 3
ENDMDL
MODEL 7
REMARK VINA RESULT:      -0.5      4.657      6.301
REMARK  3 active torsions:
REMARK  status: ('A' for Active; 'I' for Inactive)
REMARK    1  A    between atoms: C_14  and  C_4 
REMARK    2  A    between atoms: C_5  and  S_10 
REMARK    3  A    between atoms: S_10  and  C_14 
ROOT
ATOM      1  N   UNL d   1      29.484  15.843 -23.273  0.00  0.00    -0.226 NA
ATOM      2  N   UNL d   1      28.534  15.593 -24.217  0.00  0.00    -0.288 N 
ATOM      3  C   UNL d   1      28.658  15.720 -23.411  0.00  0.00     0.148 A 
ATOM      4  C   UNL d   1      29.835  15.783 -24.021  0.00  0.00     0.107 A 
ATOM      5  C   UNL d   1      29.282  15.634 -24.596  0.00  0.00     0.101 A 
ATOM      6  C   UNL d   1      27.769  15.458 -24.495  0.00  0.00     0.082 A 
ATOM      7  C   UNL d   1      28.018  15.715 -22.870  0.00  0.00     0.037 A 
ATOM      8  C   UNL d   1      27.130  15.453 -23.954  0.00  0.00     0.019 A 
ATOM      9  C   UNL d   1      27.249  15.576 -23.173  0.00  0.00     0.005 A 
ENDROOT
BRANCH   4  10
ATOM     10  C   UNL d   1      30.639  15.866 -24.157  0.00  0.00     0.058 C 
BRANCH  10  11
ATOM     11  S   UNL d   1      31.083  16.368 -23.704  0.00  0.00    -0.059 SA
BRANCH  11  12
ATOM     12  C   UNL d   1      31.937  16.349 -23.745  0.00  0.00     0.141 A 
ATOM     13  N   UNL d   1      32.478  15.727 -23.689  0.00  0.00    -0.230 NA
ATOM     14  C   UNL d   1      33.217  16.088 -23.774  0.00  0.00     0.107 A 
ATOM     15  C   UNL d   1      33.141  16.869 -23.874  0.00  0.00     0.058 A 
ATOM     16  S   UNL d   1      32.357  17.039 -23.858  0.00  0.00    -0.059 SA
ENDBRANCH  11  12
ENDBRANCH  10  11
ENDBRANCH   4  10
TORSDOF 3
ENDMDL
