MODEL 1
REMARK VINA RESULT:      61.9      0.000      0.000
REMARK  10 active torsions:
REMARK  status: ('A' for Active; 'I' for Inactive)
REMARK    1  A    between atoms: C_3  and  C_1 
REMARK    2  A    between atoms: C_4  and  C_1 
REMARK    3  A    between atoms: N_2  and  C_8 
REMARK    4  A    between atoms: O_19  and  C_3 
REMARK    5  A    between atoms: C_14  and  C_4 
REMARK    6  A    between atoms: C_20  and  N_7 
REMARK    7  A    between atoms: C_9  and  C_20 
REMARK    8  A    between atoms: C_13  and  C_9 
REMARK    9  A    between atoms: C_23  and  C_13 
REMARK   10  A    between atoms: C_24  and  O_19 
ROOT
ATOM      1  C   UNL d   1      14.372  13.221  -2.103  0.00  0.00     0.132 C 
ATOM      2  C   UNL d   1      15.100  13.413  -1.762  0.00  0.00     0.106 C 
ATOM      3  N   UNL d   1      15.828  13.603  -1.420  0.00  0.00    -0.191 NA
ENDROOT
BRANCH   1   4
ATOM      4  C   UNL d   1      14.215  12.461  -2.355  0.00  0.00     0.310 C 
ATOM      5  O   UNL d   1      14.310  11.828  -1.861  0.00  0.00    -0.258 OA
BRANCH   4   6
ATOM      6  O   UNL d   1      13.957  12.339  -3.124  0.00  0.00    -0.271 OA
BRANCH   6   7
ATOM      7  C   UNL d   1      13.319  11.833  -3.266  0.00  0.00     0.126 C 
ATOM      8  C   UNL d   1      13.000  11.791  -4.032  0.00  0.00     0.029 C 
ENDBRANCH   6   7
ENDBRANCH   4   6
ENDBRANCH   1   4
BRANCH   1   9
ATOM      9  C   UNL d   1      13.798  13.799  -2.191  0.00  0.00     0.016 C 
BRANCH   9  10
ATOM     10  C   UNL d   1      13.904  14.396  -2.780  0.00  0.00     0.001 A 
ATOM     11  C   UNL d   1      13.572  14.315  -3.551  0.00  0.00     0.002 A 
ATOM     12  C   UNL d   1      13.687  14.901  -4.102  0.00  0.00     0.018 A 
ATOM     13  C   UNL d   1      14.118  15.573  -3.932  0.00  0.00     0.064 A 
ATOM     14  C   UNL d   1      14.442  15.659  -3.189  0.00  0.00     0.018 A 
ATOM     15  C   UNL d   1      14.336  15.071  -2.613  0.00  0.00     0.002 A 
BRANCH  13  16
ATOM     16  N   UNL d   1      14.225  16.162  -4.509  0.00  0.00    -0.301 N 
ATOM     17  C   UNL d   1      13.588  16.452  -4.931  0.00  0.00     0.100 A 
ATOM     18  C   UNL d   1      13.694  17.040  -5.507  0.00  0.00     0.100 A 
ATOM     19  N   UNL d   1      14.438  17.338  -5.661  0.00  0.00    -0.300 N 
ATOM     20  C   UNL d   1      15.106  17.045  -5.229  0.00  0.00     0.100 A 
ATOM     21  C   UNL d   1      14.983  16.460  -4.659  0.00  0.00     0.100 A 
BRANCH  19  22
ATOM     22  C   UNL d   1      14.544  17.927  -6.238  0.00  0.00     0.080 C 
BRANCH  22  23
ATOM     23  C   UNL d   1      14.595  18.731  -6.015  0.00  0.00     0.019 C 
BRANCH  23  24
ATOM     24  C   UNL d   1      14.361  19.367  -6.368  0.00  0.00     0.002 C 
BRANCH  24  25
ATOM     25  C   UNL d   1      14.377  20.077  -5.969  0.00  0.00     0.000 A 
ATOM     26  C   UNL d   1      13.684  20.379  -5.675  0.00  0.00     0.000 A 
ATOM     27  C   UNL d   1      13.684  21.097  -5.268  0.00  0.00     0.000 A 
ATOM     28  C   UNL d   1      14.382  21.507  -5.159  0.00  0.00     0.000 A 
ATOM     29  C   UNL d   1      15.089  21.191  -5.463  0.00  0.00     0.000 A 
ATOM     30  C   UNL d   1      15.081  20.473  -5.869  0.00  0.00     0.000 A 
ENDBRANCH  24  25
ENDBRANCH  23  24
ENDBRANCH  22  23
ENDBRANCH  19  22
ENDBRANCH  13  16
ENDBRANCH   9  10
ENDBRANCH   1   9
TORSDOF 10
ENDMDL
