MODEL 1
REMARK VINA RESULT:      46.2      0.000      0.000
REMARK  6 active torsions:
REMARK  status: ('A' for Active; 'I' for Inactive)
REMARK    1  A    between atoms: N_13  and  C_4 
REMARK    2  A    between atoms: O_17  and  C_9 
REMARK    3  A    between atoms: O_18  and  C_11 
REMARK    4  A    between atoms: C_19  and  N_13 
REMARK    5  A    between atoms: C_15  and  C_20 
REMARK    6  A    between atoms: C_20  and  C_19 
ROOT
ATOM      1  C   UNL d   1      58.883  49.325  51.829  0.00  0.00     0.101 C 
ENDROOT
BRANCH   1   2
ATOM      2  N   UNL d   1      58.490  49.708  51.238  0.00  0.00    -0.225 NA
BRANCH   2   3
ATOM      3  C   UNL d   1      57.682  49.694  51.202  0.00  0.00     0.169 A 
ATOM      4  C   UNL d   1      57.328  49.686  50.516  0.00  0.00     0.094 A 
ATOM      5  C   UNL d   1      56.546  49.672  50.487  0.00  0.00     0.190 A 
ATOM      6  C   UNL d   1      57.375  49.685  49.166  0.00  0.00     0.128 A 
ATOM      7  N   UNL d   1      56.130  49.666  51.135  0.00  0.00    -0.203 NA
ATOM      8  N   UNL d   1      56.188  49.665  49.801  0.00  0.00    -0.128 NA
ATOM      9  C   UNL d   1      56.487  49.674  51.832  0.00  0.00     0.202 A 
ATOM     10  N   UNL d   1      57.269  49.688  51.866  0.00  0.00    -0.205 NA
ATOM     11  N   UNL d   1      56.596  49.671  49.145  0.00  0.00    -0.145 NA
ENDBRANCH   2   3
ENDBRANCH   1   2
BRANCH   1  12
ATOM     12  C   UNL d   1      59.693  49.437  51.938  0.00  0.00     0.021 C 
BRANCH  12  13
ATOM     13  C   UNL d   1      60.236  48.990  51.514  0.00  0.00     0.004 A 
ATOM     14  C   UNL d   1      60.328  48.198  51.690  0.00  0.00     0.026 A 
ATOM     15  C   UNL d   1      60.877  47.740  51.265  0.00  0.00     0.116 A 
ATOM     16  C   UNL d   1      61.328  48.085  50.666  0.00  0.00     0.116 A 
ATOM     17  C   UNL d   1      61.232  48.890  50.489  0.00  0.00     0.026 A 
ATOM     18  C   UNL d   1      60.686  49.344  50.914  0.00  0.00     0.002 A 
BRANCH  15  19
ATOM     19  O   UNL d   1      60.970  46.933  51.444  0.00  0.00    -0.326 OA
ATOM     20  C   UNL d   1      60.317  46.418  51.405  0.00  0.00     0.181 C 
ENDBRANCH  15  19
BRANCH  16  21
ATOM     21  O   UNL d   1      61.881  47.630  50.235  0.00  0.00    -0.326 OA
ATOM     22  C   UNL d   1      61.819  47.591  49.406  0.00  0.00     0.181 C 
ENDBRANCH  16  21
ENDBRANCH  12  13
ENDBRANCH   1  12
TORSDOF 6
ENDMDL
MODEL 2
REMARK VINA RESULT:      47.4      1.531      2.297
REMARK  6 active torsions:
REMARK  status: ('A' for Active; 'I' for Inactive)
REMARK    1  A    between atoms: N_13  and  C_4 
REMARK    2  A    between atoms: O_17  and  C_9 
REMARK    3  A    between atoms: O_18  and  C_11 
REMARK    4  A    between atoms: C_19  and  N_13 
REMARK    5  A    between atoms: C_15  and  C_20 
REMARK    6  A    between atoms: C_20  and  C_19 
ROOT
ATOM      1  C   UNL d   1      59.175  49.054  50.284  0.00  0.00     0.101 C 
ENDROOT
BRANCH   1   2
ATOM      2  N   UNL d   1      58.702  49.708  50.265  0.00  0.00    -0.225 NA
BRANCH   2   3
ATOM      3  C   UNL d   1      57.935  49.655  50.015  0.00  0.00     0.169 A 
ATOM      4  C   UNL d   1      57.363  49.640  50.534  0.00  0.00     0.094 A 
ATOM      5  C   UNL d   1      56.622  49.589  50.287  0.00  0.00     0.190 A 
ATOM      6  C   UNL d   1      56.933  49.660  51.814  0.00  0.00     0.128 A 
ATOM      7  N   UNL d   1      56.461  49.554  49.536  0.00  0.00    -0.203 NA
ATOM      8  N   UNL d   1      56.047  49.574  50.805  0.00  0.00    -0.128 NA
ATOM      9  C   UNL d   1      57.039  49.569  49.008  0.00  0.00     0.202 A 
ATOM     10  N   UNL d   1      57.782  49.620  49.250  0.00  0.00    -0.205 NA
ATOM     11  N   UNL d   1      56.198  49.609  51.562  0.00  0.00    -0.145 NA
ENDBRANCH   2   3
ENDBRANCH   1   2
BRANCH   1  12
ATOM     12  C   UNL d   1      59.991  49.127  50.380  0.00  0.00     0.021 C 
BRANCH  12  13
ATOM     13  C   UNL d   1      60.314  49.254  51.124  0.00  0.00     0.004 A 
ATOM     14  C   UNL d   1      59.829  49.231  51.781  0.00  0.00     0.026 A 
ATOM     15  C   UNL d   1      60.150  49.359  52.538  0.00  0.00     0.116 A 
ATOM     16  C   UNL d   1      60.957  49.509  52.625  0.00  0.00     0.116 A 
ATOM     17  C   UNL d   1      61.447  49.532  51.955  0.00  0.00     0.026 A 
ATOM     18  C   UNL d   1      61.125  49.404  51.203  0.00  0.00     0.002 A 
BRANCH  15  19
ATOM     19  O   UNL d   1      59.656  49.336  53.207  0.00  0.00    -0.326 OA
ATOM     20  C   UNL d   1      58.861  49.578  53.147  0.00  0.00     0.181 C 
ENDBRANCH  15  19
BRANCH  16  21
ATOM     21  O   UNL d   1      61.286  49.639  53.382  0.00  0.00    -0.326 OA
ATOM     22  C   UNL d   1      62.113  49.635  53.474  0.00  0.00     0.181 C 
ENDBRANCH  16  21
ENDBRANCH  12  13
ENDBRANCH   1  12
TORSDOF 6
ENDMDL
