MODEL 1
REMARK VINA RESULT:      57.0      0.000      0.000
REMARK  7 active torsions:
REMARK  status: ('A' for Active; 'I' for Inactive)
REMARK    1  A    between atoms: C_3  and  N_1 
REMARK       I    between atoms: C_2  and  N_4 
REMARK    2  A    between atoms: C_11  and  C_2 
REMARK    3  A    between atoms: N_4  and  C_12 
REMARK    4  A    between atoms: O_5  and  C_11 
REMARK    5  A    between atoms: C_6  and  O_5 
REMARK    6  A    between atoms: O_15  and  C_8 
REMARK    7  A    between atoms: C_20  and  O_15 
ROOT
ATOM      1  C   UNL d   1     -50.625  26.871  33.811  0.00  0.00     0.353 C 
ATOM      2  N   UNL d   1     -50.062  27.401  34.095  0.00  0.00    -0.363 NA
ATOM      3  O   UNL d   1     -51.244  27.141  33.337  0.00  0.00    -0.249 OA
ENDROOT
BRANCH   1   4
ATOM      4  C   UNL d   1     -50.575  26.071  33.997  0.00  0.00     0.199 C 
BRANCH   4   5
ATOM      5  O   UNL d   1     -51.230  25.574  33.893  0.00  0.00    -0.297 OA
BRANCH   5   6
ATOM      6  C   UNL d   1     -51.126  24.781  33.700  0.00  0.00     0.123 A 
ATOM      7  C   UNL d   1     -51.784  24.311  33.499  0.00  0.00     0.123 A 
ATOM      8  C   UNL d   1     -51.681  23.518  33.306  0.00  0.00     0.027 A 
ATOM      9  C   UNL d   1     -50.926  23.189  33.313  0.00  0.00     0.002 A 
ATOM     10  C   UNL d   1     -50.275  23.653  33.512  0.00  0.00     0.002 A 
ATOM     11  C   UNL d   1     -50.372  24.452  33.707  0.00  0.00     0.027 A 
BRANCH   7  12
ATOM     12  O   UNL d   1     -52.544  24.647  33.492  0.00  0.00    -0.303 OA
BRANCH  12  13
ATOM     13  C   UNL d   1     -53.164  24.265  33.882  0.00  0.00     0.123 C 
ATOM     14  C   UNL d   1     -53.709  23.821  33.453  0.00  0.00     0.029 C 
ENDBRANCH  12  13
ENDBRANCH   7  12
ENDBRANCH   5   6
ENDBRANCH   4   5
ENDBRANCH   1   4
BRANCH   2  15
ATOM     15  C   UNL d   1     -49.496  27.924  34.383  0.00  0.00     0.135 A 
ATOM     16  C   UNL d   1     -49.418  28.675  34.059  0.00  0.00     0.034 A 
ATOM     17  C   UNL d   1     -48.851  29.198  34.347  0.00  0.00     0.020 A 
ATOM     18  C   UNL d   1     -48.354  28.970  34.968  0.00  0.00     0.064 A 
ATOM     19  C   UNL d   1     -48.426  28.218  35.298  0.00  0.00     0.020 A 
ATOM     20  C   UNL d   1     -48.997  27.685  35.011  0.00  0.00     0.034 A 
BRANCH  18  21
ATOM     21  N   UNL d   1     -47.787  29.493  35.255  0.00  0.00    -0.304 N 
ATOM     22  C   UNL d   1     -47.070  29.203  35.544  0.00  0.00     0.080 A 
ATOM     23  C   UNL d   1     -46.506  29.719  35.829  0.00  0.00     0.019 A 
ATOM     24  C   UNL d   1     -46.651  30.535  35.831  0.00  0.00     0.003 A 
ATOM     25  C   UNL d   1     -47.368  30.824  35.543  0.00  0.00     0.019 A 
ATOM     26  C   UNL d   1     -47.945  30.306  35.251  0.00  0.00     0.080 A 
ENDBRANCH  18  21
ENDBRANCH   2  15
TORSDOF 7
ENDMDL
MODEL 2
REMARK VINA RESULT:      57.8      1.733      6.352
REMARK  7 active torsions:
REMARK  status: ('A' for Active; 'I' for Inactive)
REMARK    1  A    between atoms: C_3  and  N_1 
REMARK       I    between atoms: C_2  and  N_4 
REMARK    2  A    between atoms: C_11  and  C_2 
REMARK    3  A    between atoms: N_4  and  C_12 
REMARK    4  A    between atoms: O_5  and  C_11 
REMARK    5  A    between atoms: C_6  and  O_5 
REMARK    6  A    between atoms: O_15  and  C_8 
REMARK    7  A    between atoms: C_20  and  O_15 
ROOT
ATOM      1  C   UNL d   1     -49.185  28.713  34.166  0.00  0.00     0.353 C 
ATOM      2  N   UNL d   1     -49.634  28.034  34.039  0.00  0.00    -0.363 NA
ATOM      3  O   UNL d   1     -49.268  29.363  33.665  0.00  0.00    -0.249 OA
ENDROOT
BRANCH   1   4
ATOM      4  C   UNL d   1     -48.653  28.749  34.793  0.00  0.00     0.199 C 
BRANCH   4   5
ATOM      5  O   UNL d   1     -48.485  29.473  35.159  0.00  0.00    -0.297 OA
BRANCH   5   6
ATOM      6  C   UNL d   1     -47.717  29.654  35.394  0.00  0.00     0.123 A 
ATOM      7  C   UNL d   1     -47.477  30.449  35.457  0.00  0.00     0.123 A 
ATOM      8  C   UNL d   1     -46.710  30.632  35.691  0.00  0.00     0.027 A 
ATOM      9  C   UNL d   1     -46.179  30.026  35.863  0.00  0.00     0.002 A 
ATOM     10  C   UNL d   1     -46.416  29.239  35.801  0.00  0.00     0.002 A 
ATOM     11  C   UNL d   1     -47.187  29.049  35.566  0.00  0.00     0.027 A 
BRANCH   7  12
ATOM     12  O   UNL d   1     -48.015  31.058  35.283  0.00  0.00    -0.303 OA
BRANCH  12  13
ATOM     13  C   UNL d   1     -47.787  31.679  34.791  0.00  0.00     0.123 C 
ATOM     14  C   UNL d   1     -48.198  32.393  34.809  0.00  0.00     0.029 C 
ENDBRANCH  12  13
ENDBRANCH   7  12
ENDBRANCH   5   6
ENDBRANCH   4   5
ENDBRANCH   1   4
BRANCH   2  15
ATOM     15  C   UNL d   1     -50.079  27.353  33.918  0.00  0.00     0.135 A 
ATOM     16  C   UNL d   1     -49.865  26.645  34.276  0.00  0.00     0.034 A 
ATOM     17  C   UNL d   1     -50.310  25.963  34.155  0.00  0.00     0.020 A 
ATOM     18  C   UNL d   1     -50.979  25.985  33.670  0.00  0.00     0.064 A 
ATOM     19  C   UNL d   1     -51.200  26.692  33.306  0.00  0.00     0.020 A 
ATOM     20  C   UNL d   1     -50.754  27.384  33.425  0.00  0.00     0.034 A 
BRANCH  18  21
ATOM     21  N   UNL d   1     -51.424  25.304  33.549  0.00  0.00    -0.304 N 
ATOM     22  C   UNL d   1     -52.244  25.358  33.470  0.00  0.00     0.080 A 
ATOM     23  C   UNL d   1     -52.688  24.684  33.350  0.00  0.00     0.019 A 
ATOM     24  C   UNL d   1     -52.318  23.944  33.307  0.00  0.00     0.003 A 
ATOM     25  C   UNL d   1     -51.499  23.890  33.386  0.00  0.00     0.019 A 
ATOM     26  C   UNL d   1     -51.042  24.571  33.508  0.00  0.00     0.080 A 
ENDBRANCH  18  21
ENDBRANCH   2  15
TORSDOF 7
ENDMDL
