MODEL 1
REMARK VINA RESULT:      -5.2      0.000      0.000
REMARK  3 active torsions:
REMARK  status: ('A' for Active; 'I' for Inactive)
REMARK    1  A    between atoms: S_6  and  C_2 
REMARK    2  A    between atoms: C_9  and  S_6 
REMARK    3  A    between atoms: C_7  and  C_9 
ROOT
ATOM      1  N   UNL d   1      56.260  -1.429  32.379  0.00  0.00    -0.243 NA
ATOM      2  C   UNL d   1      56.773  -0.317  31.867  0.00  0.00     0.046 A 
ATOM      3  C   UNL d   1      56.246  -0.106  32.465  0.00  0.00     0.025 A 
ATOM      4  C   UNL d   1      56.782  -1.130  31.814  0.00  0.00     0.105 A 
ATOM      5  C   UNL d   1      55.926  -0.797  32.784  0.00  0.00     0.082 A 
ATOM      6  C   UNL d   1      56.015   0.626  32.761  0.00  0.00     0.002 A 
ATOM      7  C   UNL d   1      55.372  -0.754  33.402  0.00  0.00     0.019 A 
ATOM      8  C   UNL d   1      55.455   0.680  33.387  0.00  0.00     0.000 A 
ATOM      9  C   UNL d   1      55.141  -0.009  33.700  0.00  0.00     0.002 A 
ENDROOT
BRANCH   2  10
ATOM     10  S   UNL d   1      57.222   0.198  31.395  0.00  0.00    -0.101 SA
BRANCH  10  11
ATOM     11  C   UNL d   1      57.687  -0.101  30.776  0.00  0.00     0.160 C 
BRANCH  11  12
ATOM     12  C   UNL d   1      58.081   0.409  30.260  0.00  0.00     0.197 C 
ATOM     13  O   UNL d   1      57.696   0.671  29.568  0.00  0.00    -0.647 OA
ATOM     14  O   UNL d   1      58.849   0.666  30.415  0.00  0.00    -0.647 OA
ENDBRANCH  11  12
ENDBRANCH  10  11
ENDBRANCH   2  10
TORSDOF 3
ENDMDL
MODEL 2
REMARK VINA RESULT:      -5.0      2.291      3.305
REMARK  3 active torsions:
REMARK  status: ('A' for Active; 'I' for Inactive)
REMARK    1  A    between atoms: S_6  and  C_2 
REMARK    2  A    between atoms: C_9  and  S_6 
REMARK    3  A    between atoms: C_7  and  C_9 
ROOT
ATOM      1  N   UNL d   1      56.630  -1.438  31.956  0.00  0.00    -0.243 NA
ATOM      2  C   UNL d   1      56.258  -0.338  32.599  0.00  0.00     0.046 A 
ATOM      3  C   UNL d   1      56.753  -0.118  31.978  0.00  0.00     0.025 A 
ATOM      4  C   UNL d   1      56.182  -1.150  32.586  0.00  0.00     0.105 A 
ATOM      5  C   UNL d   1      56.986  -0.801  31.577  0.00  0.00     0.082 A 
ATOM      6  C   UNL d   1      57.023   0.616  31.724  0.00  0.00     0.002 A 
ATOM      7  C   UNL d   1      57.491  -0.748  30.919  0.00  0.00     0.019 A 
ATOM      8  C   UNL d   1      57.535   0.680  31.059  0.00  0.00     0.000 A 
ATOM      9  C   UNL d   1      57.762  -0.001  30.665  0.00  0.00     0.002 A 
ENDROOT
BRANCH   2  10
ATOM     10  S   UNL d   1      55.894   0.168  33.149  0.00  0.00    -0.101 SA
BRANCH  10  11
ATOM     11  C   UNL d   1      55.267  -0.106  33.617  0.00  0.00     0.160 C 
BRANCH  11  12
ATOM     12  C   UNL d   1      54.911   0.386  34.177  0.00  0.00     0.197 C 
ATOM     13  O   UNL d   1      54.133   0.657  34.049  0.00  0.00    -0.647 OA
ATOM     14  O   UNL d   1      55.311   0.615  34.860  0.00  0.00    -0.647 OA
ENDBRANCH  11  12
ENDBRANCH  10  11
ENDBRANCH   2  10
TORSDOF 3
ENDMDL
MODEL 3
REMARK VINA RESULT:      -4.3      0.923      1.386
REMARK  3 active torsions:
REMARK  status: ('A' for Active; 'I' for Inactive)
REMARK    1  A    between atoms: S_6  and  C_2 
REMARK    2  A    between atoms: C_9  and  S_6 
REMARK    3  A    between atoms: C_7  and  C_9 
ROOT
ATOM      1  N   UNL d   1      57.041   0.676  33.036  0.00  0.00    -0.243 NA
ATOM      2  C   UNL d   1      57.213   0.024  31.892  0.00  0.00     0.046 A 
ATOM      3  C   UNL d   1      56.667  -0.393  32.347  0.00  0.00     0.025 A 
ATOM      4  C   UNL d   1      57.443   0.682  32.316  0.00  0.00     0.105 A 
ATOM      5  C   UNL d   1      56.559   0.011  33.059  0.00  0.00     0.082 A 
ATOM      6  C   UNL d   1      56.254  -1.090  32.206  0.00  0.00     0.002 A 
ATOM      7  C   UNL d   1      56.034  -0.285  33.632  0.00  0.00     0.019 A 
ATOM      8  C   UNL d   1      55.720  -1.397  32.780  0.00  0.00     0.000 A 
ATOM      9  C   UNL d   1      55.617  -0.992  33.484  0.00  0.00     0.002 A 
ENDROOT
BRANCH   2  10
ATOM     10  S   UNL d   1      57.488  -0.178  31.135  0.00  0.00    -0.101 SA
BRANCH  10  11
ATOM     11  C   UNL d   1      57.862   0.391  30.661  0.00  0.00     0.160 C 
BRANCH  11  12
ATOM     12  C   UNL d   1      58.201   0.181  29.937  0.00  0.00     0.197 C 
ATOM     13  O   UNL d   1      58.928  -0.227  29.929  0.00  0.00    -0.647 OA
ATOM     14  O   UNL d   1      57.835   0.367  29.223  0.00  0.00    -0.647 OA
ENDBRANCH  11  12
ENDBRANCH  10  11
ENDBRANCH   2  10
TORSDOF 3
ENDMDL
MODEL 4
REMARK VINA RESULT:      -3.2      2.118      3.761
REMARK  3 active torsions:
REMARK  status: ('A' for Active; 'I' for Inactive)
REMARK    1  A    between atoms: S_6  and  C_2 
REMARK    2  A    between atoms: C_9  and  S_6 
REMARK    3  A    between atoms: C_7  and  C_9 
ROOT
ATOM      1  N   UNL d   1      58.009   0.682  30.536  0.00  0.00    -0.243 NA
ATOM      2  C   UNL d   1      57.457  -0.383  31.105  0.00  0.00     0.046 A 
ATOM      3  C   UNL d   1      57.918  -0.639  30.470  0.00  0.00     0.025 A 
ATOM      4  C   UNL d   1      57.513   0.429  31.145  0.00  0.00     0.105 A 
ATOM      5  C   UNL d   1      58.262   0.022  30.116  0.00  0.00     0.082 A 
ATOM      6  C   UNL d   1      58.069  -1.389  30.169  0.00  0.00     0.002 A 
ATOM      7  C   UNL d   1      58.760  -0.069  29.457  0.00  0.00     0.019 A 
ATOM      8  C   UNL d   1      58.572  -1.491  29.502  0.00  0.00     0.000 A 
ATOM      9  C   UNL d   1      58.911  -0.832  29.154  0.00  0.00     0.002 A 
ENDROOT
BRANCH   2  10
ATOM     10  S   UNL d   1      57.010  -0.859  31.619  0.00  0.00    -0.101 SA
BRANCH  10  11
ATOM     11  C   UNL d   1      56.584  -0.514  32.241  0.00  0.00     0.160 C 
BRANCH  11  12
ATOM     12  C   UNL d   1      56.065  -0.966  32.699  0.00  0.00     0.197 C 
ATOM     13  O   UNL d   1      55.487  -0.582  33.161  0.00  0.00    -0.647 OA
ATOM     14  O   UNL d   1      56.108  -1.789  32.708  0.00  0.00    -0.647 OA
ENDBRANCH  11  12
ENDBRANCH  10  11
ENDBRANCH   2  10
TORSDOF 3
ENDMDL
MODEL 5
REMARK VINA RESULT:      -2.6      9.519      9.975
REMARK  3 active torsions:
REMARK  status: ('A' for Active; 'I' for Inactive)
REMARK    1  A    between atoms: S_6  and  C_2 
REMARK    2  A    between atoms: C_9  and  S_6 
REMARK    3  A    between atoms: C_7  and  C_9 
ROOT
ATOM      1  N   UNL d   1      61.125  -9.419  34.597  0.00  0.00    -0.243 NA
ATOM      2  C   UNL d   1      59.886  -9.207  34.171  0.00  0.00     0.046 A 
ATOM      3  C   UNL d   1      60.017  -8.730  34.831  0.00  0.00     0.025 A 
ATOM      4  C   UNL d   1      60.568  -9.630  34.028  0.00  0.00     0.105 A 
ATOM      5  C   UNL d   1      60.787  -8.861  35.098  0.00  0.00     0.082 A 
ATOM      6  C   UNL d   1      59.534  -8.194  35.225  0.00  0.00     0.002 A 
ATOM      7  C   UNL d   1      61.075  -8.452  35.761  0.00  0.00     0.019 A 
ATOM      8  C   UNL d   1      59.816  -7.775  35.898  0.00  0.00     0.000 A 
ATOM      9  C   UNL d   1      60.581  -7.908  36.158  0.00  0.00     0.002 A 
ENDROOT
BRANCH   2  10
ATOM     10  S   UNL d   1      59.188  -9.257  33.724  0.00  0.00    -0.101 SA
BRANCH  10  11
ATOM     11  C   UNL d   1      59.120  -9.818  33.117  0.00  0.00     0.160 C 
BRANCH  11  12
ATOM     12  C   UNL d   1      58.520  -9.759  32.552  0.00  0.00     0.197 C 
ATOM     13  O   UNL d   1      58.714  -9.809  31.742  0.00  0.00    -0.647 OA
ATOM     14  O   UNL d   1      57.733  -9.652  32.773  0.00  0.00    -0.647 OA
ENDBRANCH  11  12
ENDBRANCH  10  11
ENDBRANCH   2  10
TORSDOF 3
ENDMDL
MODEL 6
REMARK VINA RESULT:      -2.6     10.011     10.416
REMARK  3 active torsions:
REMARK  status: ('A' for Active; 'I' for Inactive)
REMARK    1  A    between atoms: S_6  and  C_2 
REMARK    2  A    between atoms: C_9  and  S_6 
REMARK    3  A    between atoms: C_7  and  C_9 
ROOT
ATOM      1  N   UNL d   1      60.389  -9.740  32.714  0.00  0.00    -0.243 NA
ATOM      2  C   UNL d   1      59.523  -9.621  33.714  0.00  0.00     0.046 A 
ATOM      3  C   UNL d   1      59.098  -9.677  33.010  0.00  0.00     0.025 A 
ATOM      4  C   UNL d   1      60.317  -9.660  33.532  0.00  0.00     0.105 A 
ATOM      5  C   UNL d   1      59.635  -9.751  32.387  0.00  0.00     0.082 A 
ATOM      6  C   UNL d   1      58.290  -9.670  32.855  0.00  0.00     0.002 A 
ATOM      7  C   UNL d   1      59.361  -9.818  31.605  0.00  0.00     0.019 A 
ATOM      8  C   UNL d   1      58.004  -9.738  32.066  0.00  0.00     0.000 A 
ATOM      9  C   UNL d   1      58.541  -9.810  31.452  0.00  0.00     0.002 A 
ENDROOT
BRANCH   2  10
ATOM     10  S   UNL d   1      59.211  -9.540  34.479  0.00  0.00    -0.101 SA
BRANCH  10  11
ATOM     11  C   UNL d   1      59.708  -9.350  35.115  0.00  0.00     0.160 C 
BRANCH  11  12
ATOM     12  C   UNL d   1      59.394  -9.141  35.850  0.00  0.00     0.197 C 
ATOM     13  O   UNL d   1      59.509  -8.367  36.139  0.00  0.00    -0.647 OA
ATOM     14  O   UNL d   1      58.968  -9.682  36.303  0.00  0.00    -0.647 OA
ENDBRANCH  11  12
ENDBRANCH  10  11
ENDBRANCH   2  10
TORSDOF 3
ENDMDL
MODEL 7
REMARK VINA RESULT:      -2.4      3.538      5.108
REMARK  3 active torsions:
REMARK  status: ('A' for Active; 'I' for Inactive)
REMARK    1  A    between atoms: S_6  and  C_2 
REMARK    2  A    between atoms: C_9  and  S_6 
REMARK    3  A    between atoms: C_7  and  C_9 
ROOT
ATOM      1  N   UNL d   1      58.805  -3.121  29.197  0.00  0.00    -0.243 NA
ATOM      2  C   UNL d   1      59.158  -1.844  29.112  0.00  0.00     0.046 A 
ATOM      3  C   UNL d   1      59.807  -2.306  28.900  0.00  0.00     0.025 A 
ATOM      4  C   UNL d   1      58.541  -2.346  29.295  0.00  0.00     0.105 A 
ATOM      5  C   UNL d   1      59.589  -3.100  28.952  0.00  0.00     0.082 A 
ATOM      6  C   UNL d   1      60.570  -2.106  28.666  0.00  0.00     0.002 A 
ATOM      7  C   UNL d   1      60.138  -3.697  28.769  0.00  0.00     0.019 A 
ATOM      8  C   UNL d   1      61.132  -2.703  28.479  0.00  0.00     0.000 A 
ATOM      9  C   UNL d   1      60.911  -3.489  28.532  0.00  0.00     0.002 A 
ENDROOT
BRANCH   2  10
ATOM     10  S   UNL d   1      59.124  -1.015  29.139  0.00  0.00    -0.101 SA
BRANCH  10  11
ATOM     11  C   UNL d   1      58.491  -0.634  29.517  0.00  0.00     0.160 C 
BRANCH  11  12
ATOM     12  C   UNL d   1      58.420   0.188  29.497  0.00  0.00     0.197 C 
ATOM     13  O   UNL d   1      58.862   0.651  30.032  0.00  0.00    -0.647 OA
ATOM     14  O   UNL d   1      57.919   0.562  28.959  0.00  0.00    -0.647 OA
ENDBRANCH  11  12
ENDBRANCH  10  11
ENDBRANCH   2  10
TORSDOF 3
ENDMDL
