MODEL 1
REMARK VINA RESULT:      10.6      0.000      0.000
REMARK  1 active torsions:
REMARK  status: ('A' for Active; 'I' for Inactive)
REMARK    1  A    between atoms: C_7  and  C_1 
ROOT
ATOM      1  C   UNL d   1     -52.378  24.438  33.473  0.00  0.00     0.102 A 
ATOM      2  C   UNL d   1     -51.676  24.045  33.365  0.00  0.00     0.303 A 
ATOM      3  C   UNL d   1     -52.386  25.264  33.528  0.00  0.00     0.011 A 
ATOM      4  O   UNL d   1     -50.968  24.473  33.310  0.00  0.00    -0.273 OA
ATOM      5  C   UNL d   1     -50.977  25.297  33.364  0.00  0.00     0.106 A 
ATOM      6  C   UNL d   1     -51.680  25.689  33.473  0.00  0.00     0.023 A 
ATOM      7  C   UNL d   1     -50.270  25.724  33.309  0.00  0.00     0.067 A 
ATOM      8  O   UNL d   1     -51.665  23.225  33.310  0.00  0.00    -0.259 OA
ATOM      9  C   UNL d   1     -51.687  26.515  33.527  0.00  0.00     0.005 A 
ATOM     10  C   UNL d   1     -50.277  26.551  33.364  0.00  0.00     0.198 A 
ATOM     11  C   UNL d   1     -50.979  26.944  33.472  0.00  0.00     0.042 A 
ATOM     12  O   UNL d   1     -49.622  27.054  33.320  0.00  0.00    -0.286 OA
ENDROOT
BRANCH   1  13
ATOM     13  C   UNL d   1     -53.082  24.016  33.529  0.00  0.00     0.201 C 
ATOM     14  O   UNL d   1     -53.799  24.376  33.324  0.00  0.00    -0.286 OA
ATOM     15  C   UNL d   1     -53.081  23.250  33.783  0.00  0.00     0.045 C 
ENDBRANCH   1  13
TORSDOF 1
ENDMDL
