MODEL 1
REMARK VINA RESULT:      -6.6      0.000      0.000
REMARK  7 active torsions:
REMARK  status: ('A' for Active; 'I' for Inactive)
REMARK    1  A    between atoms: C_5  and  C_1 
REMARK    2  A    between atoms: N_6  and  C_2 
REMARK    3  A    between atoms: C_7  and  C_5 
REMARK    4  A    between atoms: C_8  and  C_5 
REMARK       I    between atoms: N_13  and  C_7 
REMARK    5  A    between atoms: C_17  and  N_13 
REMARK    6  A    between atoms: C_23  and  C_17 
REMARK    7  A    between atoms: C_18  and  C_23 
ROOT
ATOM      1  C   UNL d   1     -48.556  13.736  22.647  0.00  0.00     0.117 A 
ATOM      2  C   UNL d   1     -49.012  13.268  23.150  0.00  0.00     0.145 A 
ATOM      3  N   UNL d   1     -49.692  13.582  23.501  0.00  0.00    -0.230 NA
ATOM      4  N   UNL d   1     -48.779  14.518  22.494  0.00  0.00    -0.241 NA
ATOM      5  C   UNL d   1     -49.913  14.360  23.348  0.00  0.00     0.100 A 
ATOM      6  C   UNL d   1     -49.457  14.828  22.845  0.00  0.00     0.099 A 
ATOM      7  C   UNL d   1     -50.590  14.670  23.698  0.00  0.00     0.021 A 
ATOM      8  C   UNL d   1     -49.677  15.606  22.691  0.00  0.00     0.021 A 
ATOM      9  C   UNL d   1     -50.817  15.454  23.546  0.00  0.00     0.002 A 
ATOM     10  C   UNL d   1     -50.360  15.922  23.043  0.00  0.00     0.002 A 
ENDROOT
BRANCH   1  11
ATOM     11  C   UNL d   1     -47.924  13.280  22.386  0.00  0.00     0.099 C 
BRANCH  11  12
ATOM     12  C   UNL d   1     -47.106  13.311  22.555  0.00  0.00     0.282 C 
ATOM     13  O   UNL d   1     -46.846  13.454  23.333  0.00  0.00    -0.265 OA
ATOM     14  N   UNL d   1     -46.556  13.200  21.945  0.00  0.00    -0.206 NA
BRANCH  14  15
ATOM     15  C   UNL d   1     -45.741  13.232  22.117  0.00  0.00     0.102 C 
BRANCH  15  16
ATOM     16  C   UNL d   1     -45.100  13.244  21.593  0.00  0.00     0.021 C 
BRANCH  16  17
ATOM     17  C   UNL d   1     -44.404  12.849  21.780  0.00  0.00     0.002 A 
ATOM     18  C   UNL d   1     -43.696  13.128  21.480  0.00  0.00     0.000 A 
ATOM     19  C   UNL d   1     -42.995  12.730  21.669  0.00  0.00     0.000 A 
ATOM     20  C   UNL d   1     -43.012  12.063  22.153  0.00  0.00     0.000 A 
ATOM     21  C   UNL d   1     -43.737  11.797  22.447  0.00  0.00     0.000 A 
ATOM     22  C   UNL d   1     -44.428  12.189  22.261  0.00  0.00     0.000 A 
ENDBRANCH  16  17
ENDBRANCH  15  16
ENDBRANCH  14  15
ENDBRANCH  11  12
BRANCH  11  23
ATOM     23  C   UNL d   1     -48.086  12.673  21.864  0.00  0.00     0.129 C 
ATOM     24  N   UNL d   1     -48.246  12.623  21.056  0.00  0.00    -0.146 N 
ENDBRANCH  11  23
ENDBRANCH   1  11
BRANCH   2  25
ATOM     25  N   UNL d   1     -48.661  12.524  23.200  0.00  0.00    -0.188 NA
ATOM     26  C   UNL d   1     -48.931  11.931  23.698  0.00  0.00     0.083 A 
ATOM     27  C   UNL d   1     -48.154  11.219  23.376  0.00  0.00     0.136 A 
ATOM     28  O   UNL d   1     -48.046  10.584  23.578  0.00  0.00    -0.301 OA
ATOM     29  C   UNL d   1     -47.785  11.256  23.050  0.00  0.00     0.136 A 
ATOM     30  C   UNL d   1     -48.520  11.900  23.368  0.00  0.00     0.083 A 
ENDBRANCH   2  25
TORSDOF 7
ENDMDL
MODEL 2
REMARK VINA RESULT:      -6.2      0.922      4.908
REMARK  7 active torsions:
REMARK  status: ('A' for Active; 'I' for Inactive)
REMARK    1  A    between atoms: C_5  and  C_1 
REMARK    2  A    between atoms: N_6  and  C_2 
REMARK    3  A    between atoms: C_7  and  C_5 
REMARK    4  A    between atoms: C_8  and  C_5 
REMARK       I    between atoms: N_13  and  C_7 
REMARK    5  A    between atoms: C_17  and  N_13 
REMARK    6  A    between atoms: C_23  and  C_17 
REMARK    7  A    between atoms: C_18  and  C_23 
ROOT
ATOM      1  C   UNL d   1     -45.954  12.997  22.182  0.00  0.00     0.117 A 
ATOM      2  C   UNL d   1     -45.841  12.273  22.563  0.00  0.00     0.145 A 
ATOM      3  N   UNL d   1     -45.088  11.932  22.585  0.00  0.00    -0.230 NA
ATOM      4  N   UNL d   1     -45.313  13.379  21.824  0.00  0.00    -0.241 NA
ATOM      5  C   UNL d   1     -44.453  12.313  22.228  0.00  0.00     0.100 A 
ATOM      6  C   UNL d   1     -44.565  13.037  21.848  0.00  0.00     0.099 A 
ATOM      7  C   UNL d   1     -43.705  11.972  22.252  0.00  0.00     0.021 A 
ATOM      8  C   UNL d   1     -43.929  13.419  21.491  0.00  0.00     0.021 A 
ATOM      9  C   UNL d   1     -43.060  12.353  21.893  0.00  0.00     0.002 A 
ATOM     10  C   UNL d   1     -43.172  13.077  21.513  0.00  0.00     0.002 A 
ENDROOT
BRANCH   1  11
ATOM     11  C   UNL d   1     -46.749  13.194  22.250  0.00  0.00     0.099 C 
BRANCH  11  12
ATOM     12  C   UNL d   1     -47.138  13.804  22.668  0.00  0.00     0.282 C 
ATOM     13  O   UNL d   1     -46.870  14.029  23.423  0.00  0.00    -0.265 OA
ATOM     14  N   UNL d   1     -47.792  14.182  22.326  0.00  0.00    -0.206 NA
BRANCH  14  15
ATOM     15  C   UNL d   1     -48.178  14.791  22.746  0.00  0.00     0.102 C 
BRANCH  15  16
ATOM     16  C   UNL d   1     -48.722  15.349  22.466  0.00  0.00     0.021 C 
BRANCH  16  17
ATOM     17  C   UNL d   1     -49.503  15.330  22.721  0.00  0.00     0.002 A 
ATOM     18  C   UNL d   1     -50.069  14.979  22.245  0.00  0.00     0.000 A 
ATOM     19  C   UNL d   1     -50.855  14.961  22.502  0.00  0.00     0.000 A 
ATOM     20  C   UNL d   1     -51.064  15.291  23.227  0.00  0.00     0.000 A 
ATOM     21  C   UNL d   1     -50.479  15.641  23.694  0.00  0.00     0.000 A 
ATOM     22  C   UNL d   1     -49.704  15.660  23.441  0.00  0.00     0.000 A 
ENDBRANCH  16  17
ENDBRANCH  15  16
ENDBRANCH  14  15
ENDBRANCH  11  12
BRANCH  11  23
ATOM     23  C   UNL d   1     -47.288  12.731  21.848  0.00  0.00     0.129 C 
ATOM     24  N   UNL d   1     -47.633  12.749  21.099  0.00  0.00    -0.146 N 
ENDBRANCH  11  23
ENDBRANCH   1  11
BRANCH   2  25
ATOM     25  N   UNL d   1     -46.567  12.025  22.865  0.00  0.00    -0.188 NA
ATOM     26  C   UNL d   1     -46.690  11.282  23.189  0.00  0.00     0.083 A 
ATOM     27  C   UNL d   1     -47.750  11.484  23.411  0.00  0.00     0.136 A 
ATOM     28  O   UNL d   1     -48.211  11.081  23.698  0.00  0.00    -0.301 OA
ATOM     29  C   UNL d   1     -48.035  11.880  23.337  0.00  0.00     0.136 A 
ATOM     30  C   UNL d   1     -47.049  11.666  23.141  0.00  0.00     0.083 A 
ENDBRANCH   2  25
TORSDOF 7
ENDMDL
MODEL 3
REMARK VINA RESULT:      -5.0      4.971      8.473
REMARK  7 active torsions:
REMARK  status: ('A' for Active; 'I' for Inactive)
REMARK    1  A    between atoms: C_5  and  C_1 
REMARK    2  A    between atoms: N_6  and  C_2 
REMARK    3  A    between atoms: C_7  and  C_5 
REMARK    4  A    between atoms: C_8  and  C_5 
REMARK       I    between atoms: N_13  and  C_7 
REMARK    5  A    between atoms: C_17  and  N_13 
REMARK    6  A    between atoms: C_23  and  C_17 
REMARK    7  A    between atoms: C_18  and  C_23 
ROOT
ATOM      1  C   UNL d   1     -40.309  14.867  19.667  0.00  0.00     0.117 A 
ATOM      2  C   UNL d   1     -39.620  14.477  19.434  0.00  0.00     0.145 A 
ATOM      3  N   UNL d   1     -39.409  14.454  18.635  0.00  0.00    -0.230 NA
ATOM      4  N   UNL d   1     -40.787  15.235  19.100  0.00  0.00    -0.241 NA
ATOM      5  C   UNL d   1     -39.886  14.820  18.073  0.00  0.00     0.100 A 
ATOM      6  C   UNL d   1     -40.574  15.210  18.305  0.00  0.00     0.099 A 
ATOM      7  C   UNL d   1     -39.674  14.795  17.278  0.00  0.00     0.021 A 
ATOM      8  C   UNL d   1     -41.051  15.576  17.743  0.00  0.00     0.021 A 
ATOM      9  C   UNL d   1     -40.152  15.163  16.707  0.00  0.00     0.002 A 
ATOM     10  C   UNL d   1     -40.840  15.553  16.940  0.00  0.00     0.002 A 
ENDROOT
BRANCH   1  11
ATOM     11  C   UNL d   1     -40.372  14.798  20.483  0.00  0.00     0.099 C 
BRANCH  11  12
ATOM     12  C   UNL d   1     -40.895  14.361  20.967  0.00  0.00     0.282 C 
ATOM     13  O   UNL d   1     -40.758  14.306  21.786  0.00  0.00    -0.265 OA
ATOM     14  N   UNL d   1     -41.550  13.984  20.626  0.00  0.00    -0.206 NA
BRANCH  14  15
ATOM     15  C   UNL d   1     -42.070  13.549  21.111  0.00  0.00     0.102 C 
BRANCH  15  16
ATOM     16  C   UNL d   1     -42.595  12.945  20.899  0.00  0.00     0.021 C 
BRANCH  16  17
ATOM     17  C   UNL d   1     -43.244  12.774  21.373  0.00  0.00     0.002 A 
ATOM     18  C   UNL d   1     -43.911  13.246  21.321  0.00  0.00     0.000 A 
ATOM     19  C   UNL d   1     -44.565  13.073  21.799  0.00  0.00     0.000 A 
ATOM     20  C   UNL d   1     -44.542  12.435  22.320  0.00  0.00     0.000 A 
ATOM     21  C   UNL d   1     -43.860  11.970  22.359  0.00  0.00     0.000 A 
ATOM     22  C   UNL d   1     -43.216  12.140  21.888  0.00  0.00     0.000 A 
ENDBRANCH  16  17
ENDBRANCH  15  16
ENDBRANCH  14  15
ENDBRANCH  11  12
BRANCH  11  23
ATOM     23  C   UNL d   1     -39.842  15.219  20.940  0.00  0.00     0.129 C 
ATOM     24  N   UNL d   1     -39.870  15.922  21.372  0.00  0.00    -0.146 N 
ENDBRANCH  11  23
ENDBRANCH   1  11
BRANCH   2  25
ATOM     25  N   UNL d   1     -39.259  14.167  20.108  0.00  0.00    -0.188 NA
ATOM     26  C   UNL d   1     -38.566  13.730  20.086  0.00  0.00     0.083 A 
ATOM     27  C   UNL d   1     -38.547  13.587  21.179  0.00  0.00     0.136 A 
ATOM     28  O   UNL d   1     -38.097  13.256  21.559  0.00  0.00    -0.301 OA
ATOM     29  C   UNL d   1     -38.851  13.736  21.538  0.00  0.00     0.136 A 
ATOM     30  C   UNL d   1     -38.844  13.855  20.517  0.00  0.00     0.083 A 
ENDBRANCH   2  25
TORSDOF 7
ENDMDL
