MODEL 1
REMARK VINA RESULT:       7.4      0.000      0.000
REMARK  4 active torsions:
REMARK  status: ('A' for Active; 'I' for Inactive)
REMARK    1  A    between atoms: C_6  and  C_2 
REMARK    2  A    between atoms: O_7  and  C_6 
REMARK    3  A    between atoms: C_8  and  O_7 
REMARK    4  A    between atoms: O_14  and  C_9 
ROOT
ATOM      1  C   UNL d   1      45.976 -16.811  44.093  0.00  0.00     0.161 C 
ENDROOT
BRANCH   1   2
ATOM      2  C   UNL d   1      46.113 -17.611  44.137  0.00  0.00     0.188 A 
ATOM      3  N   UNL d   1      46.231 -17.880  43.393  0.00  0.00    -0.224 NA
ATOM      4  C   UNL d   1      46.374 -18.740  43.480  0.00  0.00     0.101 A 
ATOM      5  C   UNL d   1      46.333 -18.927  44.263  0.00  0.00     0.101 A 
ATOM      6  C   UNL d   1      46.535 -19.320  42.861  0.00  0.00     0.021 A 
ATOM      7  C   UNL d   1      46.449 -19.709  44.482  0.00  0.00     0.021 A 
ATOM      8  N   UNL d   1      46.163 -18.190  44.686  0.00  0.00    -0.224 NA
ATOM      9  C   UNL d   1      46.605 -20.307  43.946  0.00  0.00     0.002 A 
ATOM     10  C   UNL d   1      46.647 -20.120  43.164  0.00  0.00     0.002 A 
ENDBRANCH   1   2
BRANCH   1  11
ATOM     11  O   UNL d   1      45.634 -16.400  44.741  0.00  0.00    -0.302 OA
BRANCH  11  12
ATOM     12  C   UNL d   1      45.605 -15.565  44.754  0.00  0.00     0.100 A 
ATOM     13  C   UNL d   1      46.283 -15.128  44.576  0.00  0.00     0.027 A 
ATOM     14  C   UNL d   1      46.278 -14.307  44.584  0.00  0.00     0.026 A 
ATOM     15  C   UNL d   1      45.565 -13.929  44.777  0.00  0.00     0.094 A 
ATOM     16  C   UNL d   1      44.886 -14.365  44.955  0.00  0.00     0.026 A 
ATOM     17  C   UNL d   1      44.893 -15.194  44.947  0.00  0.00     0.027 A 
BRANCH  15  18
ATOM     18  O   UNL d   1      45.535 -13.094  44.791  0.00  0.00    -0.328 OA
ATOM     19  C   UNL d   1      45.750 -12.150  44.742  0.00  0.00     0.181 C 
ENDBRANCH  15  18
ENDBRANCH  11  12
ENDBRANCH   1  11
TORSDOF 4
ENDMDL
MODEL 2
REMARK VINA RESULT:      10.3      1.492      5.007
REMARK  4 active torsions:
REMARK  status: ('A' for Active; 'I' for Inactive)
REMARK    1  A    between atoms: C_6  and  C_2 
REMARK    2  A    between atoms: O_7  and  C_6 
REMARK    3  A    between atoms: C_8  and  O_7 
REMARK    4  A    between atoms: O_14  and  C_9 
ROOT
ATOM      1  C   UNL d   1      45.568 -16.288  44.580  0.00  0.00     0.161 C 
ENDROOT
BRANCH   1   2
ATOM      2  C   UNL d   1      45.691 -15.487  44.650  0.00  0.00     0.188 A 
ATOM      3  N   UNL d   1      45.076 -15.114  44.298  0.00  0.00    -0.224 NA
ATOM      4  C   UNL d   1      45.242 -14.259  44.392  0.00  0.00     0.101 A 
ATOM      5  C   UNL d   1      45.938 -14.177  44.790  0.00  0.00     0.101 A 
ATOM      6  C   UNL d   1      44.769 -13.590  44.122  0.00  0.00     0.021 A 
ATOM      7  C   UNL d   1      46.210 -13.419  44.945  0.00  0.00     0.021 A 
ATOM      8  N   UNL d   1      46.226 -14.978  44.955  0.00  0.00    -0.224 NA
ATOM      9  C   UNL d   1      45.811 -12.743  44.716  0.00  0.00     0.002 A 
ATOM     10  C   UNL d   1      45.114 -12.825  44.319  0.00  0.00     0.002 A 
ENDBRANCH   1   2
BRANCH   1  11
ATOM     11  O   UNL d   1      46.196 -16.829  44.714  0.00  0.00    -0.302 OA
BRANCH  11  12
ATOM     12  C   UNL d   1      46.246 -17.546  44.289  0.00  0.00     0.100 A 
ATOM     13  C   UNL d   1      46.279 -17.531  43.463  0.00  0.00     0.027 A 
ATOM     14  C   UNL d   1      46.328 -18.223  43.023  0.00  0.00     0.026 A 
ATOM     15  C   UNL d   1      46.343 -18.941  43.439  0.00  0.00     0.094 A 
ATOM     16  C   UNL d   1      46.311 -18.957  44.264  0.00  0.00     0.026 A 
ATOM     17  C   UNL d   1      46.261 -18.257  44.707  0.00  0.00     0.027 A 
BRANCH  15  18
ATOM     18  O   UNL d   1      46.393 -19.659  43.013  0.00  0.00    -0.328 OA
ATOM     19  C   UNL d   1      46.463 -20.330  42.317  0.00  0.00     0.181 C 
ENDBRANCH  15  18
ENDBRANCH  11  12
ENDBRANCH   1  11
TORSDOF 4
ENDMDL
