MODEL 1
REMARK VINA RESULT:      -3.1      0.000      0.000
REMARK  6 active torsions:
REMARK  status: ('A' for Active; 'I' for Inactive)
REMARK    1  A    between atoms: C_12  and  N_4 
REMARK    2  A    between atoms: C_10  and  N_6 
REMARK    3  A    between atoms: C_11  and  C_10 
REMARK    4  A    between atoms: O_15  and  C_11 
REMARK    5  A    between atoms: C_16  and  O_15 
REMARK    6  A    between atoms: C_17  and  C_16 
ROOT
ATOM      1  C   UNL d   1      31.806  17.964 -23.811  0.00  0.00     0.172 A 
ATOM      2  C   UNL d   1      32.237  18.502 -24.264  0.00  0.00     0.113 A 
ATOM      3  N   UNL d   1      31.849  17.986 -22.992  0.00  0.00    -0.206 NA
ATOM      4  N   UNL d   1      31.386  17.477 -24.336  0.00  0.00    -0.212 N 
ATOM      5  C   UNL d   1      32.712  19.061 -23.899  0.00  0.00     0.271 A 
ATOM      6  N   UNL d   1      32.759  19.088 -23.073  0.00  0.00    -0.250 N 
ATOM      7  N   UNL d   1      31.563  17.720 -25.097  0.00  0.00    -0.162 NA
ATOM      8  C   UNL d   1      32.328  18.550 -22.619  0.00  0.00     0.187 A 
ATOM      9  C   UNL d   1      32.076  18.337 -25.061  0.00  0.00     0.129 A 
ATOM     10  O   UNL d   1      33.144  19.598 -24.352  0.00  0.00    -0.266 OA
ENDROOT
BRANCH   6  11
ATOM     11  C   UNL d   1      33.241  19.654 -22.693  0.00  0.00     0.153 C 
BRANCH  11  12
ATOM     12  C   UNL d   1      32.998  19.991 -21.973  0.00  0.00     0.318 C 
ATOM     13  O   UNL d   1      33.080  19.567 -21.279  0.00  0.00    -0.257 OA
BRANCH  12  14
ATOM     14  O   UNL d   1      32.678  20.751 -21.974  0.00  0.00    -0.270 OA
BRANCH  14  15
ATOM     15  C   UNL d   1      32.427  21.084 -21.255  0.00  0.00     0.126 C 
BRANCH  15  16
ATOM     16  C   UNL d   1      32.410  21.898 -21.183  0.00  0.00     0.025 A 
ATOM     17  C   UNL d   1      32.569  22.362 -21.854  0.00  0.00     0.002 A 
ATOM     18  C   UNL d   1      32.553  23.191 -21.789  0.00  0.00     0.000 A 
ATOM     19  C   UNL d   1      32.383  23.538 -21.070  0.00  0.00     0.000 A 
ATOM     20  C   UNL d   1      32.223  23.074 -20.397  0.00  0.00     0.000 A 
ATOM     21  C   UNL d   1      32.240  22.253 -20.467  0.00  0.00     0.002 A 
ENDBRANCH  15  16
ENDBRANCH  14  15
ENDBRANCH  12  14
ENDBRANCH  11  12
ENDBRANCH   6  11
BRANCH   4  22
ATOM     22  C   UNL d   1      30.881  16.862 -24.167  0.00  0.00     0.085 A 
ATOM     23  C   UNL d   1      31.184  16.098 -24.029  0.00  0.00     0.019 A 
ATOM     24  C   UNL d   1      30.671  15.484 -23.860  0.00  0.00     0.002 A 
ATOM     25  C   UNL d   1      29.841  15.620 -23.826  0.00  0.00     0.000 A 
ATOM     26  C   UNL d   1      29.558  16.369 -23.963  0.00  0.00     0.002 A 
ATOM     27  C   UNL d   1      30.065  16.993 -24.134  0.00  0.00     0.019 A 
ENDBRANCH   4  22
TORSDOF 6
ENDMDL
MODEL 2
REMARK VINA RESULT:      -3.0      1.172      5.623
REMARK  6 active torsions:
REMARK  status: ('A' for Active; 'I' for Inactive)
REMARK    1  A    between atoms: C_12  and  N_4 
REMARK    2  A    between atoms: C_10  and  N_6 
REMARK    3  A    between atoms: C_11  and  C_10 
REMARK    4  A    between atoms: O_15  and  C_11 
REMARK    5  A    between atoms: C_16  and  O_15 
REMARK    6  A    between atoms: C_17  and  C_16 
ROOT
ATOM      1  C   UNL d   1      32.855  20.570 -22.003  0.00  0.00     0.172 A 
ATOM      2  C   UNL d   1      33.027  19.841 -21.659  0.00  0.00     0.113 A 
ATOM      3  N   UNL d   1      32.726  20.625 -22.812  0.00  0.00    -0.206 NA
ATOM      4  N   UNL d   1      32.851  21.137 -21.397  0.00  0.00    -0.212 N 
ATOM      5  C   UNL d   1      33.069  19.166 -22.122  0.00  0.00     0.271 A 
ATOM      6  N   UNL d   1      32.941  19.216 -22.938  0.00  0.00    -0.250 N 
ATOM      7  N   UNL d   1      33.019  20.751 -20.694  0.00  0.00    -0.162 NA
ATOM      8  C   UNL d   1      32.769  19.945 -23.283  0.00  0.00     0.187 A 
ATOM      9  C   UNL d   1      33.126  19.969 -20.845  0.00  0.00     0.129 A 
ATOM     10  O   UNL d   1      33.241  18.436 -21.778  0.00  0.00    -0.266 OA
ENDROOT
BRANCH   6  11
ATOM     11  C   UNL d   1      32.982  18.533 -23.418  0.00  0.00     0.153 C 
BRANCH  11  12
ATOM     12  C   UNL d   1      32.412  18.404 -24.008  0.00  0.00     0.318 C 
ATOM     13  O   UNL d   1      32.381  18.897 -24.658  0.00  0.00    -0.257 OA
BRANCH  12  14
ATOM     14  O   UNL d   1      31.885  17.775 -23.924  0.00  0.00    -0.270 OA
BRANCH  14  15
ATOM     15  C   UNL d   1      31.702  17.310 -24.588  0.00  0.00     0.126 C 
BRANCH  15  16
ATOM     16  C   UNL d   1      31.003  16.884 -24.590  0.00  0.00     0.025 A 
ATOM     17  C   UNL d   1      31.036  16.063 -24.468  0.00  0.00     0.002 A 
ATOM     18  C   UNL d   1      30.331  15.623 -24.469  0.00  0.00     0.000 A 
ATOM     19  C   UNL d   1      29.616  16.001 -24.588  0.00  0.00     0.000 A 
ATOM     20  C   UNL d   1      29.583  16.824 -24.710  0.00  0.00     0.000 A 
ATOM     21  C   UNL d   1      30.286  17.256 -24.708  0.00  0.00     0.002 A 
ENDBRANCH  15  16
ENDBRANCH  14  15
ENDBRANCH  12  14
ENDBRANCH  11  12
ENDBRANCH   6  11
BRANCH   4  22
ATOM     22  C   UNL d   1      32.711  21.937 -21.447  0.00  0.00     0.085 A 
ATOM     23  C   UNL d   1      33.241  22.428 -21.863  0.00  0.00     0.019 A 
ATOM     24  C   UNL d   1      33.094  23.232 -21.910  0.00  0.00     0.002 A 
ATOM     25  C   UNL d   1      32.414  23.563 -21.540  0.00  0.00     0.000 A 
ATOM     26  C   UNL d   1      31.906  23.073 -21.138  0.00  0.00     0.002 A 
ATOM     27  C   UNL d   1      32.044  22.264 -21.085  0.00  0.00     0.019 A 
ENDBRANCH   4  22
TORSDOF 6
ENDMDL
MODEL 3
REMARK VINA RESULT:      -1.3      1.538      2.595
REMARK  6 active torsions:
REMARK  status: ('A' for Active; 'I' for Inactive)
REMARK    1  A    between atoms: C_12  and  N_4 
REMARK    2  A    between atoms: C_10  and  N_6 
REMARK    3  A    between atoms: C_11  and  C_10 
REMARK    4  A    between atoms: O_15  and  C_11 
REMARK    5  A    between atoms: C_16  and  O_15 
REMARK    6  A    between atoms: C_17  and  C_16 
ROOT
ATOM      1  C   UNL d   1      29.761  17.263 -24.183  0.00  0.00     0.172 A 
ATOM      2  C   UNL d   1      30.019  17.908 -24.629  0.00  0.00     0.113 A 
ATOM      3  N   UNL d   1      30.294  16.839 -23.726  0.00  0.00    -0.206 NA
ATOM      4  N   UNL d   1      28.945  17.183 -24.311  0.00  0.00    -0.212 N 
ATOM      5  C   UNL d   1      30.808  18.129 -24.617  0.00  0.00     0.271 A 
ATOM      6  N   UNL d   1      31.350  17.703 -24.158  0.00  0.00    -0.250 N 
ATOM      7  N   UNL d   1      28.714  17.774 -24.828  0.00  0.00    -0.162 NA
ATOM      8  C   UNL d   1      31.092  17.059 -23.712  0.00  0.00     0.187 A 
ATOM      9  C   UNL d   1      29.357  18.215 -25.024  0.00  0.00     0.129 A 
ATOM     10  O   UNL d   1      31.066  18.773 -25.063  0.00  0.00    -0.266 OA
ENDROOT
BRANCH   6  11
ATOM     11  C   UNL d   1      32.155  17.921 -24.140  0.00  0.00     0.153 C 
BRANCH  11  12
ATOM     12  C   UNL d   1      32.570  17.924 -23.420  0.00  0.00     0.318 C 
ATOM     13  O   UNL d   1      32.608  17.243 -22.971  0.00  0.00    -0.257 OA
BRANCH  12  14
ATOM     14  O   UNL d   1      32.939  18.619 -23.173  0.00  0.00    -0.270 OA
BRANCH  14  15
ATOM     15  C   UNL d   1      32.990  18.782 -22.360  0.00  0.00     0.126 C 
BRANCH  15  16
ATOM     16  C   UNL d   1      33.071  19.559 -22.118  0.00  0.00     0.025 A 
ATOM     17  C   UNL d   1      33.065  19.728 -21.305  0.00  0.00     0.002 A 
ATOM     18  C   UNL d   1      33.148  20.516 -21.051  0.00  0.00     0.000 A 
ATOM     19  C   UNL d   1      33.234  21.112 -21.603  0.00  0.00     0.000 A 
ATOM     20  C   UNL d   1      33.240  20.944 -22.418  0.00  0.00     0.000 A 
ATOM     21  C   UNL d   1      33.158  20.161 -22.664  0.00  0.00     0.002 A 
ENDBRANCH  15  16
ENDBRANCH  14  15
ENDBRANCH  12  14
ENDBRANCH  11  12
ENDBRANCH   6  11
BRANCH   4  22
ATOM     22  C   UNL d   1      28.432  16.634 -24.000  0.00  0.00     0.085 A 
ATOM     23  C   UNL d   1      28.176  16.701 -23.210  0.00  0.00     0.019 A 
ATOM     24  C   UNL d   1      27.660  16.146 -22.903  0.00  0.00     0.002 A 
ATOM     25  C   UNL d   1      27.388  15.508 -23.381  0.00  0.00     0.000 A 
ATOM     26  C   UNL d   1      27.645  15.453 -24.150  0.00  0.00     0.002 A 
ATOM     27  C   UNL d   1      28.164  16.007 -24.467  0.00  0.00     0.019 A 
ENDBRANCH   4  22
TORSDOF 6
ENDMDL
