MODEL 1
REMARK VINA RESULT:      52.9      0.000      0.000
REMARK  6 active torsions:
REMARK  status: ('A' for Active; 'I' for Inactive)
REMARK    1  A    between atoms: C_12  and  N_1 
REMARK    2  A    between atoms: S_10  and  C_2 
REMARK    3  A    between atoms: C_5  and  N_7 
REMARK       I    between atoms: N_7  and  C_11 
REMARK    4  A    between atoms: C_16  and  S_10 
REMARK    5  A    between atoms: C_11  and  C_16 
REMARK    6  A    between atoms: C_17  and  C_12 
ROOT
ATOM      1  N   UNL d   1     -59.054 -99.113 -43.710  0.00  0.00    -0.303 N 
ATOM      2  C   UNL d   1     -57.751 -98.912 -43.911  0.00  0.00     0.049 A 
ATOM      3  C   UNL d   1     -58.341 -99.041 -43.334  0.00  0.00     0.087 A 
ATOM      4  C   UNL d   1     -58.133 -98.909 -44.645  0.00  0.00     0.024 A 
ATOM      5  C   UNL d   1     -58.939 -99.033 -44.520  0.00  0.00     0.065 A 
ATOM      6  C   UNL d   1     -57.843 -98.808 -45.407  0.00  0.00     0.002 A 
ATOM      7  C   UNL d   1     -59.455 -99.057 -45.158  0.00  0.00     0.018 A 
ATOM      8  C   UNL d   1     -58.361 -98.832 -46.049  0.00  0.00     0.000 A 
ATOM      9  C   UNL d   1     -59.167 -98.956 -45.925  0.00  0.00     0.002 A 
ENDROOT
BRANCH   2  10
ATOM     10  S   UNL d   1     -56.946 -98.807 -43.781  0.00  0.00    -0.080 SA
BRANCH  10  11
ATOM     11  C   UNL d   1     -56.390 -99.169 -44.281  0.00  0.00     0.098 C 
BRANCH  11  12
ATOM     12  C   UNL d   1     -56.142 -99.942 -44.150  0.00  0.00     0.288 C 
ATOM     13  N   UNL d   1     -55.355-100.163 -44.268  0.00  0.00    -0.182 NA
ATOM     14  O   UNL d   1     -56.686-100.498 -43.899  0.00  0.00    -0.265 OA
BRANCH  13  15
ATOM     15  C   UNL d   1     -55.117-100.940 -44.135  0.00  0.00     0.197 A 
ATOM     16  N   UNL d   1     -55.013-101.576 -44.651  0.00  0.00    -0.219 NA
ATOM     17  C   UNL d   1     -54.765-102.226 -44.199  0.00  0.00     0.108 A 
ATOM     18  C   UNL d   1     -54.720-101.982 -43.415  0.00  0.00     0.059 A 
ATOM     19  S   UNL d   1     -54.938-101.187 -43.376  0.00  0.00    -0.046 SA
ENDBRANCH  13  15
ENDBRANCH  11  12
ENDBRANCH  10  11
ENDBRANCH   2  10
BRANCH   1  20
ATOM     20  C   UNL d   1     -59.792 -99.247 -43.333  0.00  0.00     0.080 C 
BRANCH  20  21
ATOM     21  C   UNL d   1     -59.824 -99.399 -42.527  0.00  0.00     0.018 A 
ATOM     22  C   UNL d   1     -59.849-100.174 -42.244  0.00  0.00     0.002 A 
ATOM     23  C   UNL d   1     -59.881-100.321 -41.434  0.00  0.00     0.000 A 
ATOM     24  C   UNL d   1     -59.889 -99.701 -40.901  0.00  0.00     0.000 A 
ATOM     25  C   UNL d   1     -59.864 -98.911 -41.179  0.00  0.00     0.000 A 
ATOM     26  C   UNL d   1     -59.832 -98.769 -41.995  0.00  0.00     0.002 A 
ENDBRANCH  20  21
ENDBRANCH   1  20
TORSDOF 6
ENDMDL
