MODEL 1
REMARK VINA RESULT:      11.3      0.000      0.000
REMARK  2 active torsions:
REMARK  status: ('A' for Active; 'I' for Inactive)
REMARK    1  A    between atoms: C_5  and  C_1 
REMARK    2  A    between atoms: O_15  and  C_12 
ROOT
ATOM      1  C   UNL d   1      45.060 -15.241  36.850  0.00  0.00     0.042 A 
ATOM      2  C   UNL d   1      45.369 -14.524  36.575  0.00  0.00     0.045 A 
ATOM      3  C   UNL d   1      45.545 -15.771  37.255  0.00  0.00     0.196 A 
ATOM      4  C   UNL d   1      46.338 -15.585  37.386  0.00  0.00     0.045 A 
ATOM      5  C   UNL d   1      46.162 -14.339  36.706  0.00  0.00     0.196 A 
ATOM      6  C   UNL d   1      46.646 -14.869  37.111  0.00  0.00     0.045 A 
ATOM      7  O   UNL d   1      45.236 -16.487  37.530  0.00  0.00    -0.287 OA
ATOM      8  O   UNL d   1      46.470 -13.623  36.431  0.00  0.00    -0.287 OA
ENDROOT
BRANCH   1   9
ATOM      9  C   UNL d   1      44.267 -15.426  36.719  0.00  0.00     0.003 A 
ATOM     10  C   UNL d   1      43.688 -14.843  36.833  0.00  0.00     0.002 A 
ATOM     11  C   UNL d   1      42.896 -15.025  36.704  0.00  0.00     0.024 A 
ATOM     12  C   UNL d   1      42.676 -15.784  36.461  0.00  0.00     0.094 A 
ATOM     13  C   UNL d   1      43.263 -16.365  36.348  0.00  0.00     0.024 A 
ATOM     14  C   UNL d   1      44.056 -16.180  36.479  0.00  0.00     0.002 A 
BRANCH  12  15
ATOM     15  O   UNL d   1      41.879 -15.969  36.330  0.00  0.00    -0.328 OA
ATOM     16  C   UNL d   1      41.301 -15.383  36.413  0.00  0.00     0.181 C 
ENDBRANCH  12  15
ENDBRANCH   1   9
TORSDOF 2
ENDMDL
MODEL 2
REMARK VINA RESULT:      13.3      7.223      7.969
REMARK  2 active torsions:
REMARK  status: ('A' for Active; 'I' for Inactive)
REMARK    1  A    between atoms: C_5  and  C_1 
REMARK    2  A    between atoms: O_15  and  C_12 
ROOT
ATOM      1  C   UNL d   1      45.402 -13.665  44.049  0.00  0.00     0.042 A 
ATOM      2  C   UNL d   1      44.840 -13.426  43.492  0.00  0.00     0.045 A 
ATOM      3  C   UNL d   1      45.914 -13.111  44.383  0.00  0.00     0.196 A 
ATOM      4  C   UNL d   1      45.865 -12.318  44.159  0.00  0.00     0.045 A 
ATOM      5  C   UNL d   1      44.791 -12.634  43.268  0.00  0.00     0.196 A 
ATOM      6  C   UNL d   1      45.303 -12.080  43.601  0.00  0.00     0.045 A 
ATOM      7  O   UNL d   1      46.476 -13.349  44.941  0.00  0.00    -0.287 OA
ATOM      8  O   UNL d   1      44.229 -12.396  42.710  0.00  0.00    -0.287 OA
ENDROOT
BRANCH   1   9
ATOM      9  C   UNL d   1      45.451 -14.457  44.274  0.00  0.00     0.003 A 
ATOM     10  C   UNL d   1      44.832 -14.797  44.708  0.00  0.00     0.002 A 
ATOM     11  C   UNL d   1      44.878 -15.587  44.933  0.00  0.00     0.024 A 
ATOM     12  C   UNL d   1      45.537 -16.042  44.728  0.00  0.00     0.094 A 
ATOM     13  C   UNL d   1      46.157 -15.694  44.291  0.00  0.00     0.024 A 
ATOM     14  C   UNL d   1      46.107 -14.902  44.067  0.00  0.00     0.002 A 
BRANCH  12  15
ATOM     15  O   UNL d   1      45.585 -16.838  44.954  0.00  0.00    -0.328 OA
ATOM     16  C   UNL d   1      45.939 -17.389  44.450  0.00  0.00     0.181 C 
ENDBRANCH  12  15
ENDBRANCH   1   9
TORSDOF 2
ENDMDL
