MODEL 1
REMARK VINA RESULT:      -7.8      0.000      0.000
REMARK  5 active torsions:
REMARK  status: ('A' for Active; 'I' for Inactive)
REMARK    1  A    between atoms: C_2  and  C_1 
REMARK       I    between atoms: N_3  and  C_2 
REMARK    2  A    between atoms: C_6  and  N_3 
REMARK    3  A    between atoms: O_15  and  C_5 
REMARK    4  A    between atoms: O_17  and  C_11 
REMARK    5  A    between atoms: O_18  and  C_14 
ROOT
ATOM      1  C   UNL d   1     -47.826  13.576  22.348  0.00  0.00     0.281 C 
ATOM      2  N   UNL d   1     -47.426  13.218  22.994  0.00  0.00    -0.206 NA
ATOM      3  O   UNL d   1     -47.479  13.598  21.619  0.00  0.00    -0.265 OA
ENDROOT
BRANCH   1   4
ATOM      4  C   UNL d   1     -48.582  13.908  22.464  0.00  0.00     0.080 A 
ATOM      5  C   UNL d   1     -48.682  14.564  22.938  0.00  0.00     0.007 A 
ATOM      6  C   UNL d   1     -49.422  14.911  23.067  0.00  0.00     0.000 A 
ATOM      7  C   UNL d   1     -49.511  15.554  23.534  0.00  0.00     0.000 A 
ATOM      8  C   UNL d   1     -50.099  14.570  22.692  0.00  0.00     0.002 A 
ATOM      9  C   UNL d   1     -50.247  15.896  23.660  0.00  0.00     0.000 A 
ATOM     10  C   UNL d   1     -50.923  15.555  23.285  0.00  0.00     0.000 A 
ATOM     11  C   UNL d   1     -50.835  14.887  22.800  0.00  0.00     0.000 A 
ATOM     12  C   UNL d   1     -50.006  13.897  22.204  0.00  0.00     0.024 A 
ATOM     13  C   UNL d   1     -49.258  13.567  22.089  0.00  0.00     0.099 A 
BRANCH  13  14
ATOM     14  O   UNL d   1     -49.170  12.899  21.603  0.00  0.00    -0.328 OA
ATOM     15  C   UNL d   1     -49.853  12.518  21.283  0.00  0.00     0.181 C 
ENDBRANCH  13  14
ENDBRANCH   1   4
BRANCH   2  16
ATOM     16  C   UNL d   1     -46.670  12.886  22.878  0.00  0.00     0.109 A 
ATOM     17  C   UNL d   1     -46.132  13.296  22.436  0.00  0.00     0.045 A 
ATOM     18  C   UNL d   1     -45.398  12.956  22.333  0.00  0.00     0.096 A 
ATOM     19  C   UNL d   1     -45.200  12.230  22.660  0.00  0.00     0.026 A 
ATOM     20  C   UNL d   1     -45.754  11.838  23.099  0.00  0.00     0.028 A 
ATOM     21  C   UNL d   1     -46.486  12.142  23.220  0.00  0.00     0.112 A 
BRANCH  18  22
ATOM     22  O   UNL d   1     -44.822  13.363  21.877  0.00  0.00    -0.328 OA
ATOM     23  C   UNL d   1     -44.124  13.010  21.717  0.00  0.00     0.181 C 
ENDBRANCH  18  22
BRANCH  21  24
ATOM     24  O   UNL d   1     -47.049  11.713  23.683  0.00  0.00    -0.327 OA
ATOM     25  C   UNL d   1     -47.028  10.890  23.696  0.00  0.00     0.181 C 
ENDBRANCH  21  24
ENDBRANCH   2  16
TORSDOF 5
ENDMDL
MODEL 2
REMARK VINA RESULT:      -6.3      0.882      4.639
REMARK  5 active torsions:
REMARK  status: ('A' for Active; 'I' for Inactive)
REMARK    1  A    between atoms: C_2  and  C_1 
REMARK       I    between atoms: N_3  and  C_2 
REMARK    2  A    between atoms: C_6  and  N_3 
REMARK    3  A    between atoms: O_15  and  C_5 
REMARK    4  A    between atoms: O_17  and  C_11 
REMARK    5  A    between atoms: O_18  and  C_14 
ROOT
ATOM      1  C   UNL d   1     -47.091  13.343  22.829  0.00  0.00     0.281 C 
ATOM      2  N   UNL d   1     -47.547  13.544  22.153  0.00  0.00    -0.206 NA
ATOM      3  O   UNL d   1     -47.382  13.489  23.569  0.00  0.00    -0.265 OA
ENDROOT
BRANCH   1   4
ATOM      4  C   UNL d   1     -46.340  12.995  22.734  0.00  0.00     0.080 A 
ATOM      5  C   UNL d   1     -45.794  13.314  22.219  0.00  0.00     0.007 A 
ATOM      6  C   UNL d   1     -45.043  12.986  22.108  0.00  0.00     0.000 A 
ATOM      7  C   UNL d   1     -44.513  13.306  21.601  0.00  0.00     0.000 A 
ATOM      8  C   UNL d   1     -44.836  12.293  22.544  0.00  0.00     0.002 A 
ATOM      9  C   UNL d   1     -43.768  12.978  21.493  0.00  0.00     0.000 A 
ATOM     10  C   UNL d   1     -43.562  12.285  21.930  0.00  0.00     0.000 A 
ATOM     11  C   UNL d   1     -44.109  11.949  22.457  0.00  0.00     0.000 A 
ATOM     12  C   UNL d   1     -45.390  11.958  23.074  0.00  0.00     0.024 A 
ATOM     13  C   UNL d   1     -46.134  12.301  23.171  0.00  0.00     0.099 A 
BRANCH  13  14
ATOM     14  O   UNL d   1     -46.681  11.966  23.697  0.00  0.00    -0.328 OA
ATOM     15  C   UNL d   1     -46.808  11.130  23.698  0.00  0.00     0.181 C 
ENDBRANCH  13  14
ENDBRANCH   1   4
BRANCH   2  16
ATOM     16  C   UNL d   1     -48.298  13.892  22.248  0.00  0.00     0.109 A 
ATOM     17  C   UNL d   1     -48.374  14.508  22.766  0.00  0.00     0.045 A 
ATOM     18  C   UNL d   1     -49.116  14.837  22.847  0.00  0.00     0.096 A 
ATOM     19  C   UNL d   1     -49.766  14.564  22.427  0.00  0.00     0.026 A 
ATOM     20  C   UNL d   1     -49.666  13.947  21.915  0.00  0.00     0.028 A 
ATOM     21  C   UNL d   1     -48.950  13.600  21.811  0.00  0.00     0.112 A 
BRANCH  18  22
ATOM     22  O   UNL d   1     -49.220  15.478  23.379  0.00  0.00    -0.328 OA
ATOM     23  C   UNL d   1     -49.955  15.758  23.520  0.00  0.00     0.181 C 
ENDBRANCH  18  22
BRANCH  21  24
ATOM     24  O   UNL d   1     -48.871  12.955  21.269  0.00  0.00    -0.327 OA
ATOM     25  C   UNL d   1     -49.519  12.474  21.104  0.00  0.00     0.181 C 
ENDBRANCH  21  24
ENDBRANCH   2  16
TORSDOF 5
ENDMDL
MODEL 3
REMARK VINA RESULT:      -5.9      1.202      4.687
REMARK  5 active torsions:
REMARK  status: ('A' for Active; 'I' for Inactive)
REMARK    1  A    between atoms: C_2  and  C_1 
REMARK       I    between atoms: N_3  and  C_2 
REMARK    2  A    between atoms: C_6  and  N_3 
REMARK    3  A    between atoms: O_15  and  C_5 
REMARK    4  A    between atoms: O_17  and  C_11 
REMARK    5  A    between atoms: O_18  and  C_14 
ROOT
ATOM      1  C   UNL d   1     -48.353  13.322  23.170  0.00  0.00     0.281 C 
ATOM      2  N   UNL d   1     -48.941  13.086  22.618  0.00  0.00    -0.206 NA
ATOM      3  O   UNL d   1     -48.486  13.953  23.657  0.00  0.00    -0.265 OA
ENDROOT
BRANCH   1   4
ATOM      4  C   UNL d   1     -47.635  12.902  23.213  0.00  0.00     0.080 A 
ATOM      5  C   UNL d   1     -47.624  12.110  23.409  0.00  0.00     0.007 A 
ATOM      6  C   UNL d   1     -46.924  11.673  23.458  0.00  0.00     0.000 A 
ATOM      7  C   UNL d   1     -46.923  10.897  23.650  0.00  0.00     0.000 A 
ATOM      8  C   UNL d   1     -46.192  12.064  23.299  0.00  0.00     0.002 A 
ATOM      9  C   UNL d   1     -46.226  10.465  23.698  0.00  0.00     0.000 A 
ATOM     10  C   UNL d   1     -45.494  10.857  23.539  0.00  0.00     0.000 A 
ATOM     11  C   UNL d   1     -45.491  11.663  23.339  0.00  0.00     0.000 A 
ATOM     12  C   UNL d   1     -46.192  12.876  23.098  0.00  0.00     0.024 A 
ATOM     13  C   UNL d   1     -46.903  13.294  23.055  0.00  0.00     0.099 A 
BRANCH  13  14
ATOM     14  O   UNL d   1     -46.899  14.100  22.855  0.00  0.00    -0.328 OA
ATOM     15  C   UNL d   1     -46.181  14.469  22.605  0.00  0.00     0.181 C 
ENDBRANCH  13  14
ENDBRANCH   1   4
BRANCH   2  16
ATOM     16  C   UNL d   1     -49.659  13.506  22.575  0.00  0.00     0.109 A 
ATOM     17  C   UNL d   1     -49.832  14.036  23.160  0.00  0.00     0.045 A 
ATOM     18  C   UNL d   1     -50.540  14.437  23.102  0.00  0.00     0.096 A 
ATOM     19  C   UNL d   1     -51.063  14.318  22.481  0.00  0.00     0.026 A 
ATOM     20  C   UNL d   1     -50.869  13.783  21.907  0.00  0.00     0.028 A 
ATOM     21  C   UNL d   1     -50.182  13.370  21.933  0.00  0.00     0.112 A 
BRANCH  18  22
ATOM     22  O   UNL d   1     -50.741  14.994  23.698  0.00  0.00    -0.328 OA
ATOM     23  C   UNL d   1     -50.846  15.761  23.501  0.00  0.00     0.181 C 
ENDBRANCH  18  22
BRANCH  21  24
ATOM     24  O   UNL d   1     -50.001  12.816  21.321  0.00  0.00    -0.327 OA
ATOM     25  C   UNL d   1     -50.590  12.574  20.798  0.00  0.00     0.181 C 
ENDBRANCH  21  24
ENDBRANCH   2  16
TORSDOF 5
ENDMDL
MODEL 4
REMARK VINA RESULT:      -5.8      7.680      9.769
REMARK  5 active torsions:
REMARK  status: ('A' for Active; 'I' for Inactive)
REMARK    1  A    between atoms: C_2  and  C_1 
REMARK       I    between atoms: N_3  and  C_2 
REMARK    2  A    between atoms: C_6  and  N_3 
REMARK    3  A    between atoms: O_15  and  C_5 
REMARK    4  A    between atoms: O_17  and  C_11 
REMARK    5  A    between atoms: O_18  and  C_14 
ROOT
ATOM      1  C   UNL d   1     -39.488  14.746  19.382  0.00  0.00     0.281 C 
ATOM      2  N   UNL d   1     -39.647  14.196  18.768  0.00  0.00    -0.206 NA
ATOM      3  O   UNL d   1     -39.394  15.530  19.209  0.00  0.00    -0.265 OA
ENDROOT
BRANCH   1   4
ATOM      4  C   UNL d   1     -39.427  14.480  20.170  0.00  0.00     0.080 A 
ATOM      5  C   UNL d   1     -38.781  14.045  20.415  0.00  0.00     0.007 A 
ATOM      6  C   UNL d   1     -38.698  13.770  21.191  0.00  0.00     0.000 A 
ATOM      7  C   UNL d   1     -38.062  13.345  21.422  0.00  0.00     0.000 A 
ATOM      8  C   UNL d   1     -39.308  13.948  21.749  0.00  0.00     0.002 A 
ATOM      9  C   UNL d   1     -37.983  13.073  22.193  0.00  0.00     0.000 A 
ATOM     10  C   UNL d   1     -38.592  13.251  22.751  0.00  0.00     0.000 A 
ATOM     11  C   UNL d   1     -39.255  13.693  22.515  0.00  0.00     0.000 A 
ATOM     12  C   UNL d   1     -39.973  14.393  21.507  0.00  0.00     0.024 A 
ATOM     13  C   UNL d   1     -40.036  14.658  20.728  0.00  0.00     0.099 A 
BRANCH  13  14
ATOM     14  O   UNL d   1     -40.698  15.099  20.491  0.00  0.00    -0.328 OA
ATOM     15  C   UNL d   1     -41.240  15.390  21.071  0.00  0.00     0.181 C 
ENDBRANCH  13  14
ENDBRANCH   1   4
BRANCH   2  16
ATOM     16  C   UNL d   1     -39.708  14.462  17.980  0.00  0.00     0.109 A 
ATOM     17  C   UNL d   1     -40.229  15.057  17.814  0.00  0.00     0.045 A 
ATOM     18  C   UNL d   1     -40.276  15.305  17.038  0.00  0.00     0.096 A 
ATOM     19  C   UNL d   1     -39.819  14.973  16.443  0.00  0.00     0.026 A 
ATOM     20  C   UNL d   1     -39.304  14.380  16.633  0.00  0.00     0.028 A 
ATOM     21  C   UNL d   1     -39.233  14.111  17.385  0.00  0.00     0.112 A 
BRANCH  18  22
ATOM     22  O   UNL d   1     -40.810  15.922  16.840  0.00  0.00    -0.328 OA
ATOM     23  C   UNL d   1     -41.519  15.741  16.520  0.00  0.00     0.181 C 
ENDBRANCH  18  22
BRANCH  21  24
ATOM     24  O   UNL d   1     -38.688  13.489  17.559  0.00  0.00    -0.327 OA
ATOM     25  C   UNL d   1     -38.299  13.099  16.947  0.00  0.00     0.181 C 
ENDBRANCH  21  24
ENDBRANCH   2  16
TORSDOF 5
ENDMDL
MODEL 5
REMARK VINA RESULT:      -5.5      1.214      1.767
REMARK  5 active torsions:
REMARK  status: ('A' for Active; 'I' for Inactive)
REMARK    1  A    between atoms: C_2  and  C_1 
REMARK       I    between atoms: N_3  and  C_2 
REMARK    2  A    between atoms: C_6  and  N_3 
REMARK    3  A    between atoms: O_15  and  C_5 
REMARK    4  A    between atoms: O_17  and  C_11 
REMARK    5  A    between atoms: O_18  and  C_14 
ROOT
ATOM      1  C   UNL d   1     -47.202  13.197  22.961  0.00  0.00     0.281 C 
ATOM      2  N   UNL d   1     -46.873  12.505  22.618  0.00  0.00    -0.206 NA
ATOM      3  O   UNL d   1     -46.717  13.771  23.259  0.00  0.00    -0.265 OA
ENDROOT
BRANCH   1   4
ATOM      4  C   UNL d   1     -48.030  13.290  22.993  0.00  0.00     0.080 A 
ATOM      5  C   UNL d   1     -48.511  12.669  23.213  0.00  0.00     0.007 A 
ATOM      6  C   UNL d   1     -49.335  12.736  23.252  0.00  0.00     0.000 A 
ATOM      7  C   UNL d   1     -49.799  12.122  23.469  0.00  0.00     0.000 A 
ATOM      8  C   UNL d   1     -49.689  13.478  23.056  0.00  0.00     0.002 A 
ATOM      9  C   UNL d   1     -50.616  12.193  23.506  0.00  0.00     0.000 A 
ATOM     10  C   UNL d   1     -50.970  12.935  23.310  0.00  0.00     0.000 A 
ATOM     11  C   UNL d   1     -50.491  13.575  23.084  0.00  0.00     0.000 A 
ATOM     12  C   UNL d   1     -49.203  14.121  22.829  0.00  0.00     0.024 A 
ATOM     13  C   UNL d   1     -48.384  14.032  22.797  0.00  0.00     0.099 A 
BRANCH  13  14
ATOM     14  O   UNL d   1     -47.905  14.672  22.571  0.00  0.00    -0.328 OA
ATOM     15  C   UNL d   1     -48.260  15.404  22.345  0.00  0.00     0.181 C 
ENDBRANCH  13  14
ENDBRANCH   1   4
BRANCH   2  16
ATOM     16  C   UNL d   1     -46.045  12.413  22.586  0.00  0.00     0.109 A 
ATOM     17  C   UNL d   1     -45.617  12.931  22.137  0.00  0.00     0.045 A 
ATOM     18  C   UNL d   1     -44.808  12.825  22.118  0.00  0.00     0.096 A 
ATOM     19  C   UNL d   1     -44.433  12.224  22.531  0.00  0.00     0.026 A 
ATOM     20  C   UNL d   1     -44.882  11.718  22.973  0.00  0.00     0.028 A 
ATOM     21  C   UNL d   1     -45.680  11.792  23.016  0.00  0.00     0.112 A 
BRANCH  18  22
ATOM     22  O   UNL d   1     -44.341  13.351  21.659  0.00  0.00    -0.328 OA
ATOM     23  C   UNL d   1     -43.679  13.081  21.302  0.00  0.00     0.181 C 
ENDBRANCH  18  22
BRANCH  21  24
ATOM     24  O   UNL d   1     -46.128  11.251  23.485  0.00  0.00    -0.327 OA
ATOM     25  C   UNL d   1     -45.804  10.524  23.697  0.00  0.00     0.181 C 
ENDBRANCH  21  24
ENDBRANCH   2  16
TORSDOF 5
ENDMDL
MODEL 6
REMARK VINA RESULT:      -5.4      1.312      2.486
REMARK  5 active torsions:
REMARK  status: ('A' for Active; 'I' for Inactive)
REMARK    1  A    between atoms: C_2  and  C_1 
REMARK       I    between atoms: N_3  and  C_2 
REMARK    2  A    between atoms: C_6  and  N_3 
REMARK    3  A    between atoms: O_15  and  C_5 
REMARK    4  A    between atoms: O_17  and  C_11 
REMARK    5  A    between atoms: O_18  and  C_14 
ROOT
ATOM      1  C   UNL d   1     -46.294  12.637  23.028  0.00  0.00     0.281 C 
ATOM      2  N   UNL d   1     -45.687  12.655  22.448  0.00  0.00    -0.206 NA
ATOM      3  O   UNL d   1     -46.201  12.194  23.697  0.00  0.00    -0.265 OA
ENDROOT
BRANCH   1   4
ATOM      4  C   UNL d   1     -46.992  13.077  22.910  0.00  0.00     0.080 A 
ATOM      5  C   UNL d   1     -46.966  13.889  22.829  0.00  0.00     0.007 A 
ATOM      6  C   UNL d   1     -47.645  14.347  22.711  0.00  0.00     0.000 A 
ATOM      7  C   UNL d   1     -47.609  15.141  22.632  0.00  0.00     0.000 A 
ATOM      8  C   UNL d   1     -48.393  13.956  22.673  0.00  0.00     0.002 A 
ATOM      9  C   UNL d   1     -48.285  15.593  22.515  0.00  0.00     0.000 A 
ATOM     10  C   UNL d   1     -49.034  15.203  22.478  0.00  0.00     0.000 A 
ATOM     11  C   UNL d   1     -49.074  14.377  22.559  0.00  0.00     0.000 A 
ATOM     12  C   UNL d   1     -48.431  13.124  22.755  0.00  0.00     0.024 A 
ATOM     13  C   UNL d   1     -47.741  12.687  22.873  0.00  0.00     0.099 A 
BRANCH  13  14
ATOM     14  O   UNL d   1     -47.781  11.861  22.954  0.00  0.00    -0.328 OA
ATOM     15  C   UNL d   1     -48.533  11.481  23.014  0.00  0.00     0.181 C 
ENDBRANCH  13  14
ENDBRANCH   1   4
BRANCH   2  16
ATOM     16  C   UNL d   1     -44.990  12.215  22.566  0.00  0.00     0.109 A 
ATOM     17  C   UNL d   1     -45.013  11.584  23.071  0.00  0.00     0.045 A 
ATOM     18  C   UNL d   1     -44.320  11.165  23.174  0.00  0.00     0.096 A 
ATOM     19  C   UNL d   1     -43.624  11.365  22.789  0.00  0.00     0.026 A 
ATOM     20  C   UNL d   1     -43.625  12.000  22.289  0.00  0.00     0.028 A 
ATOM     21  C   UNL d   1     -44.287  12.434  22.164  0.00  0.00     0.112 A 
BRANCH  18  22
ATOM     22  O   UNL d   1     -44.319  10.505  23.694  0.00  0.00    -0.328 OA
ATOM     23  C   UNL d   1     -44.084   9.791  23.423  0.00  0.00     0.181 C 
ENDBRANCH  18  22
BRANCH  21  24
ATOM     24  O   UNL d   1     -44.263  13.094  21.636  0.00  0.00    -0.327 OA
ATOM     25  C   UNL d   1     -43.557  13.299  21.265  0.00  0.00     0.181 C 
ENDBRANCH  21  24
ENDBRANCH   2  16
TORSDOF 5
ENDMDL
MODEL 7
REMARK VINA RESULT:      -5.3      6.791     10.362
REMARK  5 active torsions:
REMARK  status: ('A' for Active; 'I' for Inactive)
REMARK    1  A    between atoms: C_2  and  C_1 
REMARK       I    between atoms: N_3  and  C_2 
REMARK    2  A    between atoms: C_6  and  N_3 
REMARK    3  A    between atoms: O_15  and  C_5 
REMARK    4  A    between atoms: O_17  and  C_11 
REMARK    5  A    between atoms: O_18  and  C_14 
ROOT
ATOM      1  C   UNL d   1     -39.524  14.193  18.503  0.00  0.00     0.281 C 
ATOM      2  N   UNL d   1     -39.265  14.666  19.147  0.00  0.00    -0.206 NA
ATOM      3  O   UNL d   1     -40.149  13.690  18.597  0.00  0.00    -0.265 OA
ENDROOT
BRANCH   1   4
ATOM      4  C   UNL d   1     -39.132  14.245  17.769  0.00  0.00     0.080 A 
ATOM      5  C   UNL d   1     -39.102  14.951  17.361  0.00  0.00     0.007 A 
ATOM      6  C   UNL d   1     -38.720  15.027  16.631  0.00  0.00     0.000 A 
ATOM      7  C   UNL d   1     -38.696  15.722  16.238  0.00  0.00     0.000 A 
ATOM      8  C   UNL d   1     -38.347  14.345  16.298  0.00  0.00     0.002 A 
ATOM      9  C   UNL d   1     -38.315  15.794  15.514  0.00  0.00     0.000 A 
ATOM     10  C   UNL d   1     -37.943  15.113  15.181  0.00  0.00     0.000 A 
ATOM     11  C   UNL d   1     -37.966  14.389  15.586  0.00  0.00     0.000 A 
ATOM     12  C   UNL d   1     -38.373  13.617  16.709  0.00  0.00     0.024 A 
ATOM     13  C   UNL d   1     -38.759  13.563  17.436  0.00  0.00     0.099 A 
BRANCH  13  14
ATOM     14  O   UNL d   1     -38.783  12.839  17.842  0.00  0.00    -0.328 OA
ATOM     15  C   UNL d   1     -38.315  12.189  17.570  0.00  0.00     0.181 C 
ENDBRANCH  13  14
ENDBRANCH   1   4
BRANCH   2  16
ATOM     16  C   UNL d   1     -39.657  14.613  19.881  0.00  0.00     0.109 A 
ATOM     17  C   UNL d   1     -40.465  14.637  19.890  0.00  0.00     0.045 A 
ATOM     18  C   UNL d   1     -40.830  14.585  20.617  0.00  0.00     0.096 A 
ATOM     19  C   UNL d   1     -40.408  14.511  21.318  0.00  0.00     0.026 A 
ATOM     20  C   UNL d   1     -39.601  14.490  21.284  0.00  0.00     0.028 A 
ATOM     21  C   UNL d   1     -39.209  14.538  20.587  0.00  0.00     0.112 A 
BRANCH  18  22
ATOM     22  O   UNL d   1     -41.669  14.607  20.652  0.00  0.00    -0.328 OA
ATOM     23  C   UNL d   1     -42.061  14.046  21.064  0.00  0.00     0.181 C 
ENDBRANCH  18  22
BRANCH  21  24
ATOM     24  O   UNL d   1     -38.364  14.514  20.577  0.00  0.00    -0.327 OA
ATOM     25  C   UNL d   1     -37.940  14.688  21.262  0.00  0.00     0.181 C 
ENDBRANCH  21  24
ENDBRANCH   2  16
TORSDOF 5
ENDMDL
MODEL 8
REMARK VINA RESULT:      -5.0      8.154      9.853
REMARK  5 active torsions:
REMARK  status: ('A' for Active; 'I' for Inactive)
REMARK    1  A    between atoms: C_2  and  C_1 
REMARK       I    between atoms: N_3  and  C_2 
REMARK    2  A    between atoms: C_6  and  N_3 
REMARK    3  A    between atoms: O_15  and  C_5 
REMARK    4  A    between atoms: O_17  and  C_11 
REMARK    5  A    between atoms: O_18  and  C_14 
ROOT
ATOM      1  C   UNL d   1     -39.289  14.865  18.127  0.00  0.00     0.281 C 
ATOM      2  N   UNL d   1     -39.255  14.045  17.949  0.00  0.00    -0.206 NA
ATOM      3  O   UNL d   1     -38.891  15.396  17.665  0.00  0.00    -0.265 OA
ENDROOT
BRANCH   1   4
ATOM      4  C   UNL d   1     -39.733  15.128  18.781  0.00  0.00     0.080 A 
ATOM      5  C   UNL d   1     -39.407  15.143  19.529  0.00  0.00     0.007 A 
ATOM      6  C   UNL d   1     -39.829  15.399  20.193  0.00  0.00     0.000 A 
ATOM      7  C   UNL d   1     -39.501  15.410  20.923  0.00  0.00     0.000 A 
ATOM      8  C   UNL d   1     -40.627  15.656  20.090  0.00  0.00     0.002 A 
ATOM      9  C   UNL d   1     -39.922  15.666  21.580  0.00  0.00     0.000 A 
ATOM     10  C   UNL d   1     -40.721  15.922  21.477  0.00  0.00     0.000 A 
ATOM     11  C   UNL d   1     -41.065  15.912  20.721  0.00  0.00     0.000 A 
ATOM     12  C   UNL d   1     -40.970  15.644  19.327  0.00  0.00     0.024 A 
ATOM     13  C   UNL d   1     -40.532  15.384  18.678  0.00  0.00     0.099 A 
BRANCH  13  14
ATOM     14  O   UNL d   1     -40.875  15.374  17.922  0.00  0.00    -0.328 OA
ATOM     15  C   UNL d   1     -41.492  15.920  17.733  0.00  0.00     0.181 C 
ENDBRANCH  13  14
ENDBRANCH   1   4
BRANCH   2  16
ATOM     16  C   UNL d   1     -38.811  13.782  17.295  0.00  0.00     0.109 A 
ATOM     17  C   UNL d   1     -38.803  14.237  16.626  0.00  0.00     0.045 A 
ATOM     18  C   UNL d   1     -38.363  13.964  15.996  0.00  0.00     0.096 A 
ATOM     19  C   UNL d   1     -37.941  13.260  16.026  0.00  0.00     0.026 A 
ATOM     20  C   UNL d   1     -37.964  12.823  16.705  0.00  0.00     0.028 A 
ATOM     21  C   UNL d   1     -38.386  13.061  17.344  0.00  0.00     0.112 A 
BRANCH  18  22
ATOM     22  O   UNL d   1     -38.339  14.418  15.290  0.00  0.00    -0.328 OA
ATOM     23  C   UNL d   1     -38.274  14.048  14.585  0.00  0.00     0.181 C 
ENDBRANCH  18  22
BRANCH  21  24
ATOM     24  O   UNL d   1     -38.394  12.586  18.043  0.00  0.00    -0.327 OA
ATOM     25  C   UNL d   1     -38.135  11.805  18.013  0.00  0.00     0.181 C 
ENDBRANCH  21  24
ENDBRANCH   2  16
TORSDOF 5
ENDMDL
