MODEL 1
REMARK VINA RESULT:       4.6      0.000      0.000
REMARK  1 active torsions:
REMARK  status: ('A' for Active; 'I' for Inactive)
REMARK    1  A    between atoms: C_4  and  C_1 
ROOT
ATOM      1  C   UNL d   1      24.473  12.545  -2.701  0.00  0.00     0.168 A 
ATOM      2  N   UNL d   1      24.721  13.216  -2.296  0.00  0.00    -0.225 NA
ATOM      3  N   UNL d   1      24.083  12.049  -2.160  0.00  0.00    -0.225 NA
ATOM      4  C   UNL d   1      24.486  13.139  -1.503  0.00  0.00     0.101 A 
ATOM      5  C   UNL d   1      24.093  12.419  -1.422  0.00  0.00     0.101 A 
ATOM      6  C   UNL d   1      24.583  13.637  -0.847  0.00  0.00     0.021 A 
ATOM      7  C   UNL d   1      23.795  12.198  -0.675  0.00  0.00     0.021 A 
ATOM      8  C   UNL d   1      24.287  13.415  -0.111  0.00  0.00     0.002 A 
ATOM      9  C   UNL d   1      23.893  12.695  -0.025  0.00  0.00     0.002 A 
ENDROOT
BRANCH   1  10
ATOM     10  C   UNL d   1      24.588  12.386  -3.501  0.00  0.00     0.065 A 
ATOM     11  S   UNL d   1      24.678  11.789  -3.898  0.00  0.00    -0.083 SA
ATOM     12  C   UNL d   1      24.767  11.848  -4.610  0.00  0.00     0.035 A 
ATOM     13  C   UNL d   1      24.767  12.489  -4.929  0.00  0.00     0.008 A 
ATOM     14  C   UNL d   1      24.677  13.085  -4.533  0.00  0.00     0.010 A 
ENDBRANCH   1  10
TORSDOF 1
ENDMDL
