MODEL 1
REMARK VINA RESULT:      -3.6      0.000      0.000
REMARK  7 active torsions:
REMARK  status: ('A' for Active; 'I' for Inactive)
REMARK    1  A    between atoms: N_9  and  C_1 
REMARK    2  A    between atoms: C_10  and  C_2 
REMARK    3  A    between atoms: C_5  and  S_14 
REMARK       I    between atoms: C_13  and  N_9 
REMARK    4  A    between atoms: O_18  and  C_10 
REMARK    5  A    between atoms: C_17  and  C_13 
REMARK    6  A    between atoms: S_14  and  C_17 
REMARK    7  A    between atoms: C_23  and  O_18 
ROOT
ATOM      1  N   UNL d   1      32.491  18.452 -23.360  0.00  0.00    -0.201 NA
ATOM      2  C   UNL d   1      32.856  18.796 -22.698  0.00  0.00     0.286 C 
ATOM      3  O   UNL d   1      33.240  18.305 -22.143  0.00  0.00    -0.265 OA
ENDROOT
BRANCH   1   4
ATOM      4  C   UNL d   1      32.507  17.635 -23.469  0.00  0.00     0.119 A 
ATOM      5  C   UNL d   1      31.996  17.206 -23.953  0.00  0.00     0.088 A 
ATOM      6  C   UNL d   1      32.212  16.411 -23.895  0.00  0.00     0.013 A 
ATOM      7  C   UNL d   1      31.847  15.784 -24.289  0.00  0.00     0.001 C 
ATOM      8  C   UNL d   1      32.852  16.351 -23.379  0.00  0.00     0.031 A 
ATOM      9  S   UNL d   1      33.034  17.115 -23.116  0.00  0.00    -0.068 SA
ATOM     10  C   UNL d   1      33.237  15.662 -23.167  0.00  0.00     0.007 C 
BRANCH   5  11
ATOM     11  C   UNL d   1      31.379  17.511 -24.413  0.00  0.00     0.302 C 
ATOM     12  O   UNL d   1      31.549  17.932 -25.093  0.00  0.00    -0.259 OA
BRANCH  11  13
ATOM     13  O   UNL d   1      30.600  17.385 -24.176  0.00  0.00    -0.271 OA
BRANCH  13  14
ATOM     14  C   UNL d   1      29.973  17.642 -24.643  0.00  0.00     0.126 C 
ATOM     15  C   UNL d   1      29.190  17.508 -24.405  0.00  0.00     0.029 C 
ENDBRANCH  13  14
ENDBRANCH  11  13
ENDBRANCH   5  11
ENDBRANCH   1   4
BRANCH   2  16
ATOM     16  C   UNL d   1      32.840  19.613 -22.589  0.00  0.00     0.100 C 
BRANCH  16  17
ATOM     17  S   UNL d   1      32.959  19.935 -21.835  0.00  0.00    -0.056 SA
BRANCH  17  18
ATOM     18  C   UNL d   1      32.848  20.751 -21.705  0.00  0.00     0.141 A 
ATOM     19  N   UNL d   1      33.028  21.351 -22.248  0.00  0.00    -0.232 NA
ATOM     20  C   UNL d   1      32.831  22.081 -21.891  0.00  0.00     0.088 A 
ATOM     21  C   UNL d   1      32.885  22.858 -22.158  0.00  0.00     0.020 A 
ATOM     22  C   UNL d   1      32.531  21.920 -21.131  0.00  0.00     0.049 A 
ATOM     23  C   UNL d   1      32.642  23.476 -21.670  0.00  0.00     0.002 A 
ATOM     24  C   UNL d   1      32.342  23.315 -20.909  0.00  0.00     0.001 A 
ATOM     25  C   UNL d   1      32.288  22.537 -20.643  0.00  0.00     0.008 A 
ATOM     26  S   UNL d   1      32.546  21.091 -21.023  0.00  0.00    -0.060 SA
ENDBRANCH  17  18
ENDBRANCH  16  17
ENDBRANCH   2  16
TORSDOF 7
ENDMDL
MODEL 2
REMARK VINA RESULT:      -1.0      1.645      5.769
REMARK  7 active torsions:
REMARK  status: ('A' for Active; 'I' for Inactive)
REMARK    1  A    between atoms: N_9  and  C_1 
REMARK    2  A    between atoms: C_10  and  C_2 
REMARK    3  A    between atoms: C_5  and  S_14 
REMARK       I    between atoms: C_13  and  N_9 
REMARK    4  A    between atoms: O_18  and  C_10 
REMARK    5  A    between atoms: C_17  and  C_13 
REMARK    6  A    between atoms: S_14  and  C_17 
REMARK    7  A    between atoms: C_23  and  O_18 
ROOT
ATOM      1  N   UNL d   1      32.996  20.902 -22.262  0.00  0.00    -0.201 NA
ATOM      2  C   UNL d   1      33.157  20.525 -22.984  0.00  0.00     0.286 C 
ATOM      3  O   UNL d   1      33.237  20.984 -23.676  0.00  0.00    -0.265 OA
ENDROOT
BRANCH   1   4
ATOM      4  C   UNL d   1      32.916  21.723 -22.228  0.00  0.00     0.119 A 
ATOM      5  C   UNL d   1      32.710  22.157 -21.558  0.00  0.00     0.088 A 
ATOM      6  C   UNL d   1      32.695  22.953 -21.776  0.00  0.00     0.013 A 
ATOM      7  C   UNL d   1      32.515  23.584 -21.276  0.00  0.00     0.001 C 
ATOM      8  C   UNL d   1      32.891  23.009 -22.575  0.00  0.00     0.031 A 
ATOM      9  S   UNL d   1      33.028  22.241 -22.854  0.00  0.00    -0.068 SA
ATOM     10  C   UNL d   1      32.941  23.698 -23.012  0.00  0.00     0.007 C 
BRANCH   5  11
ATOM     11  C   UNL d   1      32.547  21.854 -20.805  0.00  0.00     0.302 C 
ATOM     12  O   UNL d   1      31.839  21.473 -20.665  0.00  0.00    -0.259 OA
BRANCH  11  13
ATOM     13  O   UNL d   1      33.106  21.944 -20.206  0.00  0.00    -0.271 OA
BRANCH  13  14
ATOM     14  C   UNL d   1      32.871  22.041 -19.424  0.00  0.00     0.126 C 
ATOM     15  C   UNL d   1      33.240  22.605 -18.940  0.00  0.00     0.029 C 
ENDBRANCH  13  14
ENDBRANCH  11  13
ENDBRANCH   5  11
ENDBRANCH   1   4
BRANCH   2  16
ATOM     16  C   UNL d   1      33.237  19.704 -23.018  0.00  0.00     0.100 C 
BRANCH  16  17
ATOM     17  S   UNL d   1      33.048  19.296 -23.714  0.00  0.00    -0.056 SA
BRANCH  17  18
ATOM     18  C   UNL d   1      32.800  18.501 -23.679  0.00  0.00     0.141 A 
ATOM     19  N   UNL d   1      32.092  18.206 -23.992  0.00  0.00    -0.232 NA
ATOM     20  C   UNL d   1      32.068  17.386 -23.833  0.00  0.00     0.088 A 
ATOM     21  C   UNL d   1      31.511  16.805 -24.007  0.00  0.00     0.020 A 
ATOM     22  C   UNL d   1      32.765  17.186 -23.422  0.00  0.00     0.049 A 
ATOM     23  C   UNL d   1      31.644  16.026 -23.773  0.00  0.00     0.002 A 
ATOM     24  C   UNL d   1      32.341  15.827 -23.362  0.00  0.00     0.001 A 
ATOM     25  C   UNL d   1      32.899  16.408 -23.188  0.00  0.00     0.008 A 
ATOM     26  S   UNL d   1      33.214  17.885 -23.330  0.00  0.00    -0.060 SA
ENDBRANCH  17  18
ENDBRANCH  16  17
ENDBRANCH   2  16
TORSDOF 7
ENDMDL
