MODEL 1
REMARK VINA RESULT:      95.8      0.000      0.000
REMARK  4 active torsions:
REMARK  status: ('A' for Active; 'I' for Inactive)
REMARK    1  A    between atoms: C_6  and  N_1 
REMARK    2  A    between atoms: C_8  and  C_2 
REMARK    3  A    between atoms: C_16  and  C_5 
REMARK    4  A    between atoms: C_7  and  C_8 
ROOT
ATOM      1  N   UNL d   1      58.331  49.498  51.670  0.00  0.00    -0.251 N 
ATOM      2  C   UNL d   1      59.438  49.306  50.955  0.00  0.00     0.101 A 
ATOM      3  C   UNL d   1      58.977  49.556  52.179  0.00  0.00     0.305 A 
ATOM      4  C   UNL d   1      59.666  49.436  51.733  0.00  0.00     0.256 A 
ATOM      5  C   UNL d   1      58.620  49.344  50.915  0.00  0.00     0.075 A 
ATOM      6  O   UNL d   1      58.947  49.707  52.993  0.00  0.00    -0.263 OA
ATOM      7  O   UNL d   1      60.433  49.449  52.033  0.00  0.00    -0.281 OA
ENDROOT
BRANCH   2   8
ATOM      8  C   UNL d   1      59.955  49.162  50.324  0.00  0.00     0.223 C 
ATOM      9  O   UNL d   1      60.011  49.707  49.707  0.00  0.00    -0.284 OA
BRANCH   8  10
ATOM     10  C   UNL d   1      60.411  48.483  50.309  0.00  0.00     0.139 A 
ATOM     11  O   UNL d   1      61.107  48.373  49.881  0.00  0.00    -0.304 OA
ATOM     12  C   UNL d   1      61.385  47.609  50.024  0.00  0.00     0.100 A 
ATOM     13  C   UNL d   1      62.043  47.208  49.750  0.00  0.00     0.025 A 
ATOM     14  C   UNL d   1      60.859  47.252  50.540  0.00  0.00     0.025 A 
ATOM     15  C   UNL d   1      62.178  46.436  49.994  0.00  0.00     0.002 A 
ATOM     16  C   UNL d   1      61.650  46.068  50.516  0.00  0.00     0.000 A 
ATOM     17  C   UNL d   1      60.994  46.481  50.785  0.00  0.00     0.002 A 
ATOM     18  C   UNL d   1      60.259  47.784  50.719  0.00  0.00     0.030 A 
ENDBRANCH   8  10
ENDBRANCH   2   8
BRANCH   5  19
ATOM     19  C   UNL d   1      58.164  49.243  50.226  0.00  0.00     0.017 A 
ATOM     20  C   UNL d   1      57.434  49.638  50.153  0.00  0.00     0.002 A 
ATOM     21  C   UNL d   1      56.974  49.542  49.470  0.00  0.00     0.000 A 
ATOM     22  C   UNL d   1      57.241  49.048  48.850  0.00  0.00     0.000 A 
ATOM     23  C   UNL d   1      57.975  48.654  48.931  0.00  0.00     0.000 A 
ATOM     24  C   UNL d   1      58.435  48.753  49.619  0.00  0.00     0.002 A 
ENDBRANCH   5  19
BRANCH   1  25
ATOM     25  C   UNL d   1      57.544  49.580  51.881  0.00  0.00     0.182 A 
ATOM     26  N   UNL d   1      57.244  49.630  52.652  0.00  0.00    -0.220 NA
ATOM     27  C   UNL d   1      56.429  49.708  52.605  0.00  0.00     0.108 A 
ATOM     28  C   UNL d   1      56.217  49.708  51.808  0.00  0.00     0.059 A 
ATOM     29  S   UNL d   1      56.906  49.629  51.361  0.00  0.00    -0.048 SA
ENDBRANCH   1  25
TORSDOF 4
ENDMDL
