MODEL 1
REMARK VINA RESULT:      -4.0      0.000      0.000
REMARK  3 active torsions:
REMARK  status: ('A' for Active; 'I' for Inactive)
REMARK    1  A    between atoms: N_4  and  C_1 
REMARK    2  A    between atoms: C_11  and  C_3 
REMARK       I    between atoms: C_5  and  N_4 
REMARK    3  A    between atoms: C_8  and  C_5 
ROOT
ATOM      1  N   UNL d   1      59.700   0.682  30.002  0.00  0.00    -0.183 NA
ATOM      2  C   UNL d   1      60.144   0.151  29.550  0.00  0.00     0.281 C 
ATOM      3  O   UNL d   1      60.934   0.336  29.372  0.00  0.00    -0.265 OA
ENDROOT
BRANCH   1   4
ATOM      4  C   UNL d   1      58.916   0.519  30.189  0.00  0.00     0.197 A 
ATOM      5  N   UNL d   1      58.643   0.244  30.921  0.00  0.00    -0.219 NA
ATOM      6  C   UNL d   1      57.816   0.154  30.869  0.00  0.00     0.108 A 
ATOM      7  C   UNL d   1      57.585   0.373  30.105  0.00  0.00     0.059 A 
ATOM      8  S   UNL d   1      58.267   0.599  29.684  0.00  0.00    -0.046 SA
BRANCH   6   9
ATOM      9  C   UNL d   1      57.315  -0.111  31.479  0.00  0.00     0.100 A 
ATOM     10  N   UNL d   1      57.040  -0.882  31.475  0.00  0.00    -0.242 NA
ATOM     11  C   UNL d   1      56.542  -1.153  32.076  0.00  0.00     0.099 A 
ATOM     12  C   UNL d   1      56.332  -0.631  32.676  0.00  0.00     0.021 A 
ATOM     13  C   UNL d   1      56.606   0.135  32.678  0.00  0.00     0.003 A 
ATOM     14  C   UNL d   1      57.100   0.413  32.087  0.00  0.00     0.021 A 
ENDBRANCH   6   9
ENDBRANCH   1   4
BRANCH   2  15
ATOM     15  C   UNL d   1      59.770  -0.553  29.293  0.00  0.00     0.060 A 
ATOM     16  C   UNL d   1      59.984  -1.277  29.615  0.00  0.00     0.032 A 
ATOM     17  C   UNL d   1      59.617  -1.973  29.363  0.00  0.00     0.123 A 
ATOM     18  O   UNL d   1      59.830  -2.703  29.686  0.00  0.00    -0.301 OA
ATOM     19  C   UNL d   1      59.025  -1.924  28.776  0.00  0.00     0.123 A 
ATOM     20  C   UNL d   1      59.459  -3.398  29.431  0.00  0.00     0.149 A 
ATOM     21  C   UNL d   1      58.865  -3.353  28.841  0.00  0.00     0.149 A 
ATOM     22  O   UNL d   1      58.651  -2.628  28.519  0.00  0.00    -0.301 OA
ATOM     23  C   UNL d   1      58.817  -1.200  28.458  0.00  0.00     0.027 A 
ATOM     24  C   UNL d   1      59.187  -0.511  28.714  0.00  0.00     0.007 A 
ENDBRANCH   2  15
TORSDOF 3
ENDMDL
