MODEL 1
REMARK VINA RESULT:      -2.1      0.000      0.000
REMARK  7 active torsions:
REMARK  status: ('A' for Active; 'I' for Inactive)
REMARK    1  A    between atoms: N_10  and  C_1 
REMARK    2  A    between atoms: C_11  and  C_2 
REMARK    3  A    between atoms: C_7  and  S_14 
REMARK       I    between atoms: C_13  and  N_10 
REMARK    4  A    between atoms: O_18  and  C_11 
REMARK    5  A    between atoms: C_17  and  C_13 
REMARK    6  A    between atoms: S_14  and  C_17 
REMARK    7  A    between atoms: C_22  and  O_18 
ROOT
ATOM      1  C   UNL d   1      32.992  21.300 -21.984  0.00  0.00     0.119 A 
ATOM      2  C   UNL d   1      32.612  22.019 -21.837  0.00  0.00     0.088 A 
ATOM      3  S   UNL d   1      33.240  21.287 -22.754  0.00  0.00    -0.068 SA
ATOM      4  C   UNL d   1      32.631  22.458 -22.544  0.00  0.00     0.013 A 
ATOM      5  C   UNL d   1      33.020  22.006 -23.115  0.00  0.00     0.031 A 
ATOM      6  C   UNL d   1      32.300  23.219 -22.619  0.00  0.00     0.001 A 
ATOM      7  C   UNL d   1      33.179  22.198 -23.903  0.00  0.00     0.006 A 
ATOM      8  C   UNL d   1      32.286  23.702 -23.286  0.00  0.00     0.000 A 
ATOM      9  C   UNL d   1      32.983  22.894 -24.309  0.00  0.00     0.001 A 
ATOM     10  C   UNL d   1      32.589  23.555 -24.034  0.00  0.00     0.000 A 
ENDROOT
BRANCH   1  11
ATOM     11  N   UNL d   1      33.105  20.686 -21.435  0.00  0.00    -0.201 NA
ATOM     12  C   UNL d   1      33.127  19.896 -21.694  0.00  0.00     0.286 C 
ATOM     13  O   UNL d   1      33.240  19.294 -21.141  0.00  0.00    -0.265 OA
BRANCH  12  14
ATOM     14  C   UNL d   1      33.038  19.714 -22.491  0.00  0.00     0.100 C 
BRANCH  14  15
ATOM     15  S   UNL d   1      33.238  18.961 -22.770  0.00  0.00    -0.054 SA
BRANCH  15  16
ATOM     16  C   UNL d   1      32.718  18.545 -23.257  0.00  0.00     0.164 A 
ATOM     17  S   UNL d   1      32.818  18.206 -24.004  0.00  0.00    -0.039 SA
ATOM     18  C   UNL d   1      32.093  17.856 -24.221  0.00  0.00     0.134 A 
ATOM     19  C   UNL d   1      31.941  17.454 -24.927  0.00  0.00     0.030 C 
ATOM     20  N   UNL d   1      31.558  17.984 -23.607  0.00  0.00    -0.140 NA
ATOM     21  N   UNL d   1      31.937  18.408 -23.011  0.00  0.00    -0.134 NA
ENDBRANCH  15  16
ENDBRANCH  14  15
ENDBRANCH  12  14
ENDBRANCH   1  11
BRANCH   2  22
ATOM     22  C   UNL d   1      32.275  22.262 -21.124  0.00  0.00     0.302 C 
ATOM     23  O   UNL d   1      31.581  21.901 -20.844  0.00  0.00    -0.259 OA
BRANCH  22  24
ATOM     24  O   UNL d   1      32.630  22.870 -20.684  0.00  0.00    -0.271 OA
BRANCH  24  25
ATOM     25  C   UNL d   1      32.301  23.109 -19.968  0.00  0.00     0.126 C 
ATOM     26  C   UNL d   1      32.769  23.174 -19.292  0.00  0.00     0.029 C 
ENDBRANCH  24  25
ENDBRANCH  22  24
ENDBRANCH   2  22
TORSDOF 7
ENDMDL
MODEL 2
REMARK VINA RESULT:       0.5      2.348      5.405
REMARK  7 active torsions:
REMARK  status: ('A' for Active; 'I' for Inactive)
REMARK    1  A    between atoms: N_10  and  C_1 
REMARK    2  A    between atoms: C_11  and  C_2 
REMARK    3  A    between atoms: C_7  and  S_14 
REMARK       I    between atoms: C_13  and  N_10 
REMARK    4  A    between atoms: O_18  and  C_11 
REMARK    5  A    between atoms: C_17  and  C_13 
REMARK    6  A    between atoms: S_14  and  C_17 
REMARK    7  A    between atoms: C_22  and  O_18 
ROOT
ATOM      1  C   UNL d   1      32.177  18.098 -24.515  0.00  0.00     0.119 A 
ATOM      2  C   UNL d   1      31.534  17.644 -24.263  0.00  0.00     0.088 A 
ATOM      3  S   UNL d   1      32.862  17.732 -24.285  0.00  0.00    -0.068 SA
ATOM      4  C   UNL d   1      31.840  16.979 -23.867  0.00  0.00     0.013 A 
ATOM      5  C   UNL d   1      32.663  17.031 -23.879  0.00  0.00     0.031 A 
ATOM      6  C   UNL d   1      31.360  16.386 -23.530  0.00  0.00     0.001 A 
ATOM      7  C   UNL d   1      33.218  16.507 -23.559  0.00  0.00     0.006 A 
ATOM      8  C   UNL d   1      31.600  15.708 -23.127  0.00  0.00     0.000 A 
ATOM      9  C   UNL d   1      33.075  15.801 -23.148  0.00  0.00     0.001 A 
ATOM     10  C   UNL d   1      32.361  15.453 -22.960  0.00  0.00     0.000 A 
ENDROOT
BRANCH   1  11
ATOM     11  N   UNL d   1      32.136  18.814 -24.936  0.00  0.00    -0.201 NA
ATOM     12  C   UNL d   1      32.536  19.485 -24.653  0.00  0.00     0.286 C 
ATOM     13  O   UNL d   1      32.488  20.191 -25.078  0.00  0.00    -0.265 OA
BRANCH  12  14
ATOM     14  C   UNL d   1      32.975  19.450 -23.958  0.00  0.00     0.100 C 
BRANCH  14  15
ATOM     15  S   UNL d   1      33.239  20.147 -23.599  0.00  0.00    -0.054 SA
BRANCH  15  16
ATOM     16  C   UNL d   1      33.089  20.287 -22.800  0.00  0.00     0.164 A 
ATOM     17  S   UNL d   1      32.800  20.952 -22.404  0.00  0.00    -0.039 SA
ATOM     18  C   UNL d   1      32.766  20.766 -21.592  0.00  0.00     0.134 A 
ATOM     19  C   UNL d   1      32.508  21.272 -20.990  0.00  0.00     0.030 C 
ATOM     20  N   UNL d   1      33.034  19.993 -21.498  0.00  0.00    -0.140 NA
ATOM     21  N   UNL d   1      33.234  19.692 -22.239  0.00  0.00    -0.134 NA
ENDBRANCH  15  16
ENDBRANCH  14  15
ENDBRANCH  12  14
ENDBRANCH   1  11
BRANCH   2  22
ATOM     22  C   UNL d   1      30.735  17.813 -24.381  0.00  0.00     0.302 C 
ATOM     23  O   UNL d   1      30.414  18.530 -24.109  0.00  0.00    -0.259 OA
BRANCH  22  24
ATOM     24  O   UNL d   1      30.249  17.266 -24.772  0.00  0.00    -0.271 OA
BRANCH  24  25
ATOM     25  C   UNL d   1      29.447  17.424 -24.876  0.00  0.00     0.126 C 
ATOM     26  C   UNL d   1      28.877  16.882 -24.630  0.00  0.00     0.029 C 
ENDBRANCH  24  25
ENDBRANCH  22  24
ENDBRANCH   2  22
TORSDOF 7
ENDMDL
MODEL 3
REMARK VINA RESULT:       0.8      1.546      2.401
REMARK  7 active torsions:
REMARK  status: ('A' for Active; 'I' for Inactive)
REMARK    1  A    between atoms: N_10  and  C_1 
REMARK    2  A    between atoms: C_11  and  C_2 
REMARK    3  A    between atoms: C_7  and  S_14 
REMARK       I    between atoms: C_13  and  N_10 
REMARK    4  A    between atoms: O_18  and  C_11 
REMARK    5  A    between atoms: C_17  and  C_13 
REMARK    6  A    between atoms: S_14  and  C_17 
REMARK    7  A    between atoms: C_22  and  O_18 
ROOT
ATOM      1  C   UNL d   1      33.077  19.059 -22.888  0.00  0.00     0.119 A 
ATOM      2  C   UNL d   1      33.022  19.843 -22.632  0.00  0.00     0.088 A 
ATOM      3  S   UNL d   1      33.161  19.053 -23.693  0.00  0.00    -0.068 SA
ATOM      4  C   UNL d   1      33.075  20.329 -23.306  0.00  0.00     0.013 A 
ATOM      5  C   UNL d   1      33.160  19.840 -23.966  0.00  0.00     0.031 A 
ATOM      6  C   UNL d   1      33.041  21.161 -23.274  0.00  0.00     0.001 A 
ATOM      7  C   UNL d   1      33.235  20.057 -24.760  0.00  0.00     0.006 A 
ATOM      8  C   UNL d   1      33.087  21.694 -23.901  0.00  0.00     0.000 A 
ATOM      9  C   UNL d   1      33.241  20.821 -25.083  0.00  0.00     0.001 A 
ATOM     10  C   UNL d   1      33.175  21.540 -24.701  0.00  0.00     0.000 A 
ENDROOT
BRANCH   1  11
ATOM     11  N   UNL d   1      33.051  18.384 -22.404  0.00  0.00    -0.201 NA
ATOM     12  C   UNL d   1      32.778  17.662 -22.712  0.00  0.00     0.286 C 
ATOM     13  O   UNL d   1      32.757  16.998 -22.224  0.00  0.00    -0.265 OA
BRANCH  12  14
ATOM     14  C   UNL d   1      32.532  17.607 -23.496  0.00  0.00     0.100 C 
BRANCH  14  15
ATOM     15  S   UNL d   1      32.266  16.885 -23.798  0.00  0.00    -0.054 SA
BRANCH  15  16
ATOM     16  C   UNL d   1      31.504  16.817 -24.106  0.00  0.00     0.164 A 
ATOM     17  S   UNL d   1      30.760  16.858 -23.748  0.00  0.00    -0.039 SA
ATOM     18  C   UNL d   1      30.187  16.747 -24.345  0.00  0.00     0.134 A 
ATOM     19  C   UNL d   1      29.368  16.746 -24.234  0.00  0.00     0.030 C 
ATOM     20  N   UNL d   1      30.584  16.640 -25.059  0.00  0.00    -0.140 NA
ATOM     21  N   UNL d   1      31.395  16.682 -24.919  0.00  0.00    -0.134 NA
ENDBRANCH  15  16
ENDBRANCH  14  15
ENDBRANCH  12  14
ENDBRANCH   1  11
BRANCH   2  22
ATOM     22  C   UNL d   1      32.933  20.102 -21.854  0.00  0.00     0.302 C 
ATOM     23  O   UNL d   1      33.239  19.655 -21.224  0.00  0.00    -0.259 OA
BRANCH  22  24
ATOM     24  O   UNL d   1      32.534  20.814 -21.697  0.00  0.00    -0.271 OA
BRANCH  24  25
ATOM     25  C   UNL d   1      32.454  21.082 -20.922  0.00  0.00     0.126 C 
ATOM     26  C   UNL d   1      31.756  21.441 -20.672  0.00  0.00     0.029 C 
ENDBRANCH  24  25
ENDBRANCH  22  24
ENDBRANCH   2  22
TORSDOF 7
ENDMDL
