MODEL 1
REMARK VINA RESULT:      35.6      0.000      0.000
REMARK  3 active torsions:
REMARK  status: ('A' for Active; 'I' for Inactive)
REMARK    1  A    between atoms: C_8  and  C_1 
REMARK    2  A    between atoms: C_9  and  C_4 
REMARK    3  A    between atoms: O_20  and  C_8 
ROOT
ATOM      1  C   UNL d   1     -50.871  26.233  33.573  0.00  0.00     0.107 A 
ATOM      2  C   UNL d   1     -51.632  26.570  33.619  0.00  0.00     0.208 A 
ATOM      3  C   UNL d   1     -51.458  24.921  33.450  0.00  0.00     0.062 A 
ATOM      4  C   UNL d   1     -50.798  25.396  33.488  0.00  0.00     0.020 A 
ATOM      5  C   UNL d   1     -52.220  25.258  33.496  0.00  0.00     0.101 A 
ATOM      6  O   UNL d   1     -52.319  26.069  33.579  0.00  0.00    -0.288 OA
ATOM      7  C   UNL d   1     -51.373  24.112  33.368  0.00  0.00     0.194 A 
ATOM      8  C   UNL d   1     -52.894  24.785  33.459  0.00  0.00     0.002 A 
ATOM      9  C   UNL d   1     -52.798  23.968  33.376  0.00  0.00     0.042 A 
ATOM     10  C   UNL d   1     -52.036  23.631  33.330  0.00  0.00     0.019 A 
ATOM     11  O   UNL d   1     -50.608  23.774  33.322  0.00  0.00    -0.287 OA
ATOM     12  N   UNL d   1     -51.720  27.407  33.704  0.00  0.00    -0.121 N 
ATOM     13  C   UNL d   1     -53.200  23.265  33.311  0.00  0.00     0.009 C 
ATOM     14  C   UNL d   1     -53.607  24.134  33.405  0.00  0.00     0.009 C 
ENDROOT
BRANCH   4  15
ATOM     15  C   UNL d   1     -50.060  25.059  33.442  0.00  0.00     0.030 A 
ATOM     16  S   UNL d   1     -49.173  25.394  33.488  0.00  0.00    -0.086 SA
ATOM     17  C   UNL d   1     -48.772  24.482  33.365  0.00  0.00     0.035 A 
ATOM     18  C   UNL d   1     -49.349  24.069  33.309  0.00  0.00     0.007 A 
ATOM     19  C   UNL d   1     -49.997  24.363  33.348  0.00  0.00     0.007 A 
ENDBRANCH   4  15
BRANCH   1  20
ATOM     20  C   UNL d   1     -50.199  26.734  33.613  0.00  0.00     0.299 C 
ATOM     21  O   UNL d   1     -49.429  26.417  33.714  0.00  0.00    -0.259 OA
BRANCH  20  22
ATOM     22  O   UNL d   1     -50.275  27.551  33.553  0.00  0.00    -0.296 OA
ATOM     23  C   UNL d   1     -49.597  28.051  33.473  0.00  0.00     0.185 C 
ENDBRANCH  20  22
ENDBRANCH   1  20
TORSDOF 3
ENDMDL
