MODEL 1
REMARK VINA RESULT:      -6.1      0.000      0.000
REMARK  2 active torsions:
REMARK  status: ('A' for Active; 'I' for Inactive)
REMARK    1  A    between atoms: CA_2  and  C_1 
REMARK    2  A    between atoms: C_3  and  CA_2 
ROOT
ATOM      1  C   UNL d   1     -47.546  13.172  22.624  0.00  0.00     0.025 A 
ATOM      2  C   UNL d   1     -48.009  12.792  23.200  0.00  0.00     0.003 A 
ATOM      3  C   UNL d   1     -47.768  13.132  21.822  0.00  0.00     0.003 A 
ATOM      4  C   UNL d   1     -48.907  12.339  22.177  0.00  0.00     0.058 A 
ATOM      5  C   UNL d   1     -48.687  12.378  22.971  0.00  0.00     0.011 A 
ATOM      6  C   UNL d   1     -48.451  12.713  21.604  0.00  0.00     0.011 A 
ATOM      7 CL   UNL d   1     -49.584  11.924  21.957  0.00  0.00    -0.082 Cl
ENDROOT
BRANCH   1   8
ATOM      8  CA  UNL d   1     -46.869  13.587  22.845  0.00  0.00     0.167 C 
ATOM      9  N   UNL d   1     -46.895  14.405  22.935  0.00  0.00    -0.142 N 
BRANCH   8  10
ATOM     10  C   UNL d   1     -46.166  13.175  22.977  0.00  0.00     0.231 C 
ATOM     11  O   UNL d   1     -46.029  12.797  23.694  0.00  0.00    -0.643 OA
ATOM     12  OXT UNL d   1     -45.594  13.142  22.382  0.00  0.00    -0.643 OA
ENDBRANCH   8  10
ENDBRANCH   1   8
TORSDOF 2
ENDMDL
MODEL 2
REMARK VINA RESULT:      -5.9      1.639      1.948
REMARK  2 active torsions:
REMARK  status: ('A' for Active; 'I' for Inactive)
REMARK    1  A    between atoms: CA_2  and  C_1 
REMARK    2  A    between atoms: C_3  and  CA_2 
ROOT
ATOM      1  C   UNL d   1     -47.626  13.855  22.689  0.00  0.00     0.025 A 
ATOM      2  C   UNL d   1     -47.536  14.666  22.532  0.00  0.00     0.003 A 
ATOM      3  C   UNL d   1     -48.374  13.554  22.896  0.00  0.00     0.003 A 
ATOM      4  C   UNL d   1     -48.932  14.870  22.791  0.00  0.00     0.058 A 
ATOM      5  C   UNL d   1     -48.191  15.168  22.585  0.00  0.00     0.011 A 
ATOM      6  C   UNL d   1     -49.025  14.067  22.946  0.00  0.00     0.011 A 
ATOM      7 CL   UNL d   1     -49.580  15.376  22.842  0.00  0.00    -0.082 Cl
ENDROOT
BRANCH   1   8
ATOM      8  CA  UNL d   1     -46.977  13.350  22.638  0.00  0.00     0.167 C 
ATOM      9  N   UNL d   1     -46.744  13.046  21.908  0.00  0.00    -0.142 N 
BRANCH   8  10
ATOM     10  C   UNL d   1     -46.563  13.151  23.323  0.00  0.00     0.231 C 
ATOM     11  O   UNL d   1     -46.001  13.662  23.638  0.00  0.00    -0.643 OA
ATOM     12  OXT UNL d   1     -46.715  12.430  23.698  0.00  0.00    -0.643 OA
ENDBRANCH   8  10
ENDBRANCH   1   8
TORSDOF 2
ENDMDL
MODEL 3
REMARK VINA RESULT:      -5.9      2.175      2.757
REMARK  2 active torsions:
REMARK  status: ('A' for Active; 'I' for Inactive)
REMARK    1  A    between atoms: CA_2  and  C_1 
REMARK    2  A    between atoms: C_3  and  CA_2 
ROOT
ATOM      1  C   UNL d   1     -48.060  12.875  23.034  0.00  0.00     0.025 A 
ATOM      2  C   UNL d   1     -48.147  13.637  22.715  0.00  0.00     0.003 A 
ATOM      3  C   UNL d   1     -47.315  12.624  23.311  0.00  0.00     0.003 A 
ATOM      4  C   UNL d   1     -46.755  13.893  22.949  0.00  0.00     0.058 A 
ATOM      5  C   UNL d   1     -47.492  14.140  22.675  0.00  0.00     0.011 A 
ATOM      6  C   UNL d   1     -46.665  13.139  23.266  0.00  0.00     0.011 A 
ATOM      7 CL   UNL d   1     -46.108  14.400  22.905  0.00  0.00    -0.082 Cl
ENDROOT
BRANCH   1   8
ATOM      8  CA  UNL d   1     -48.708  12.368  23.078  0.00  0.00     0.167 C 
ATOM      9  N   UNL d   1     -49.247  12.435  23.697  0.00  0.00    -0.142 N 
BRANCH   8  10
ATOM     10  C   UNL d   1     -48.813  11.793  22.495  0.00  0.00     0.231 C 
ATOM     11  O   UNL d   1     -48.474  11.047  22.576  0.00  0.00    -0.643 OA
ATOM     12  OXT UNL d   1     -49.263  11.967  21.825  0.00  0.00    -0.643 OA
ENDBRANCH   8  10
ENDBRANCH   1   8
TORSDOF 2
ENDMDL
MODEL 4
REMARK VINA RESULT:      -5.7      2.050      2.445
REMARK  2 active torsions:
REMARK  status: ('A' for Active; 'I' for Inactive)
REMARK    1  A    between atoms: CA_2  and  C_1 
REMARK    2  A    between atoms: C_3  and  CA_2 
ROOT
ATOM      1  C   UNL d   1     -47.927  13.241  22.687  0.00  0.00     0.025 A 
ATOM      2  C   UNL d   1     -47.105  13.357  22.640  0.00  0.00     0.003 A 
ATOM      3  C   UNL d   1     -48.228  12.568  23.074  0.00  0.00     0.003 A 
ATOM      4  C   UNL d   1     -46.893  12.135  23.362  0.00  0.00     0.058 A 
ATOM      5  C   UNL d   1     -46.594  12.802  22.979  0.00  0.00     0.011 A 
ATOM      6  C   UNL d   1     -47.706  12.017  23.410  0.00  0.00     0.011 A 
ATOM      7 CL   UNL d   1     -46.378  11.587  23.697  0.00  0.00    -0.082 Cl
ENDROOT
BRANCH   1   8
ATOM      8  CA  UNL d   1     -48.442  13.790  22.351  0.00  0.00     0.167 C 
ATOM      9  N   UNL d   1     -48.796  13.636  21.624  0.00  0.00    -0.142 N 
BRANCH   8  10
ATOM     10  C   UNL d   1     -48.599  14.495  22.750  0.00  0.00     0.231 C 
ATOM     11  O   UNL d   1     -49.188  14.531  23.323  0.00  0.00    -0.643 OA
ATOM     12  OXT UNL d   1     -48.160  15.172  22.573  0.00  0.00    -0.643 OA
ENDBRANCH   8  10
ENDBRANCH   1   8
TORSDOF 2
ENDMDL
