MODEL 1
REMARK VINA RESULT:      -8.5      0.000      0.000
REMARK  5 active torsions:
REMARK  status: ('A' for Active; 'I' for Inactive)
REMARK    1  A    between atoms: N_3  and  C_1 
REMARK    2  A    between atoms: C_12  and  N_2 
REMARK       I    between atoms: C_5  and  N_3 
REMARK    3  A    between atoms: C_8  and  C_5 
REMARK    4  A    between atoms: C_15  and  C_12 
REMARK    5  A    between atoms: O_22  and  C_15 
ROOT
ATOM      1  C   UNL d   1      52.546  33.478  53.508  0.00  0.00     0.183 A 
ATOM      2  N   UNL d   1      52.987  32.798  53.654  0.00  0.00    -0.280 N 
ATOM      3  S   UNL d   1      52.899  34.102  53.918  0.00  0.00    -0.048 SA
ATOM      4  C   UNL d   1      53.616  32.995  54.155  0.00  0.00     0.072 A 
ATOM      5  C   UNL d   1      53.562  33.805  54.319  0.00  0.00     0.048 A 
ATOM      6  C   UNL d   1      54.228  32.547  54.483  0.00  0.00     0.018 A 
ATOM      7  C   UNL d   1      54.120  34.167  54.810  0.00  0.00     0.008 A 
ATOM      8  C   UNL d   1      54.786  32.908  54.974  0.00  0.00     0.002 A 
ATOM      9  C   UNL d   1      54.732  33.718  55.137  0.00  0.00     0.001 A 
ATOM     10  C   UNL d   1      55.283  34.080  55.623  0.00  0.00     0.000 C 
ENDROOT
BRANCH   1  11
ATOM     11  N   UNL d   1      51.870  33.520  53.033  0.00  0.00    -0.183 NA
ATOM     12  C   UNL d   1      51.478  34.242  52.945  0.00  0.00     0.287 C 
ATOM     13  O   UNL d   1      51.764  34.915  53.331  0.00  0.00    -0.265 OA
BRANCH  12  14
ATOM     14  C   UNL d   1      50.811  34.292  52.478  0.00  0.00     0.088 A 
ATOM     15  S   UNL d   1      50.044  34.491  52.734  0.00  0.00    -0.071 SA
ATOM     16  C   UNL d   1      49.549  34.474  52.086  0.00  0.00     0.087 A 
ATOM     17 CL   UNL d   1      48.744  34.632  52.071  0.00  0.00    -0.075 Cl
ATOM     18  C   UNL d   1      49.999  34.267  51.437  0.00  0.00     0.019 A 
ATOM     19  C   UNL d   1      50.771  34.157  51.680  0.00  0.00     0.013 A 
ENDBRANCH  12  14
ENDBRANCH   1  11
BRANCH   2  20
ATOM     20  C   UNL d   1      53.136  31.992  53.559  0.00  0.00     0.151 C 
BRANCH  20  21
ATOM     21  C   UNL d   1      52.715  31.565  53.003  0.00  0.00     0.314 C 
ATOM     22  O   UNL d   1      52.874  31.674  52.207  0.00  0.00    -0.257 OA
BRANCH  21  23
ATOM     23  O   UNL d   1      52.143  31.036  53.237  0.00  0.00    -0.295 OA
ATOM     24  C   UNL d   1      52.232  30.242  53.082  0.00  0.00     0.185 C 
ENDBRANCH  21  23
ENDBRANCH  20  21
ENDBRANCH   2  20
TORSDOF 5
ENDMDL
MODEL 2
REMARK VINA RESULT:      -8.4      2.381      4.371
REMARK  5 active torsions:
REMARK  status: ('A' for Active; 'I' for Inactive)
REMARK    1  A    between atoms: N_3  and  C_1 
REMARK    2  A    between atoms: C_12  and  N_2 
REMARK       I    between atoms: C_5  and  N_3 
REMARK    3  A    between atoms: C_8  and  C_5 
REMARK    4  A    between atoms: C_15  and  C_12 
REMARK    5  A    between atoms: O_22  and  C_15 
ROOT
ATOM      1  C   UNL d   1      52.737  32.205  53.425  0.00  0.00     0.183 A 
ATOM      2  N   UNL d   1      53.029  32.969  53.518  0.00  0.00    -0.280 N 
ATOM      3  S   UNL d   1      51.997  32.258  53.062  0.00  0.00    -0.048 SA
ATOM      4  C   UNL d   1      52.471  33.502  53.214  0.00  0.00     0.072 A 
ATOM      5  C   UNL d   1      51.831  33.060  52.930  0.00  0.00     0.048 A 
ATOM      6  C   UNL d   1      52.463  34.326  53.158  0.00  0.00     0.018 A 
ATOM      7  C   UNL d   1      51.182  33.443  52.591  0.00  0.00     0.008 A 
ATOM      8  C   UNL d   1      51.814  34.709  52.818  0.00  0.00     0.002 A 
ATOM      9  C   UNL d   1      51.174  34.267  52.535  0.00  0.00     0.001 A 
ATOM     10  C   UNL d   1      50.528  34.643  52.198  0.00  0.00     0.000 C 
ENDROOT
BRANCH   1  11
ATOM     11  N   UNL d   1      53.124  31.511  53.657  0.00  0.00    -0.183 NA
ATOM     12  C   UNL d   1      52.755  30.781  53.539  0.00  0.00     0.287 C 
ATOM     13  O   UNL d   1      52.006  30.750  53.193  0.00  0.00    -0.265 OA
BRANCH  12  14
ATOM     14  C   UNL d   1      53.130  30.092  53.765  0.00  0.00     0.088 A 
ATOM     15  S   UNL d   1      52.980  29.652  54.455  0.00  0.00    -0.071 SA
ATOM     16  C   UNL d   1      53.479  29.008  54.458  0.00  0.00     0.087 A 
ATOM     17 CL   UNL d   1      53.529  28.420  55.029  0.00  0.00    -0.075 Cl
ATOM     18  C   UNL d   1      53.934  29.045  53.782  0.00  0.00     0.019 A 
ATOM     19  C   UNL d   1      53.719  29.710  53.360  0.00  0.00     0.013 A 
ENDBRANCH  12  14
ENDBRANCH   1  11
BRANCH   2  20
ATOM     20  C   UNL d   1      53.606  33.503  53.765  0.00  0.00     0.151 C 
BRANCH  20  21
ATOM     21  C   UNL d   1      54.298  33.225  54.102  0.00  0.00     0.314 C 
ATOM     22  O   UNL d   1      54.900  32.951  53.618  0.00  0.00    -0.257 OA
BRANCH  21  23
ATOM     23  O   UNL d   1      54.389  33.220  54.910  0.00  0.00    -0.295 OA
ATOM     24  C   UNL d   1      55.038  33.571  55.251  0.00  0.00     0.185 C 
ENDBRANCH  21  23
ENDBRANCH  20  21
ENDBRANCH   2  20
TORSDOF 5
ENDMDL
MODEL 3
REMARK VINA RESULT:      -7.5      1.434      2.564
REMARK  5 active torsions:
REMARK  status: ('A' for Active; 'I' for Inactive)
REMARK    1  A    between atoms: N_3  and  C_1 
REMARK    2  A    between atoms: C_12  and  N_2 
REMARK       I    between atoms: C_5  and  N_3 
REMARK    3  A    between atoms: C_8  and  C_5 
REMARK    4  A    between atoms: C_15  and  C_12 
REMARK    5  A    between atoms: O_22  and  C_15 
ROOT
ATOM      1  C   UNL d   1      51.937  33.400  53.104  0.00  0.00     0.183 A 
ATOM      2  N   UNL d   1      52.631  33.526  53.528  0.00  0.00    -0.280 N 
ATOM      3  S   UNL d   1      51.914  32.604  52.883  0.00  0.00    -0.048 SA
ATOM      4  C   UNL d   1      53.045  32.809  53.574  0.00  0.00     0.072 A 
ATOM      5  C   UNL d   1      52.600  32.237  53.174  0.00  0.00     0.048 A 
ATOM      6  C   UNL d   1      53.764  32.603  53.925  0.00  0.00     0.018 A 
ATOM      7  C   UNL d   1      52.873  31.459  53.125  0.00  0.00     0.008 A 
ATOM      8  C   UNL d   1      54.037  31.825  53.876  0.00  0.00     0.002 A 
ATOM      9  C   UNL d   1      53.592  31.253  53.476  0.00  0.00     0.001 A 
ATOM     10  C   UNL d   1      53.860  30.481  53.426  0.00  0.00     0.000 C 
ENDROOT
BRANCH   1  11
ATOM     11  N   UNL d   1      51.367  33.976  52.932  0.00  0.00    -0.183 NA
ATOM     12  C   UNL d   1      50.569  33.764  52.911  0.00  0.00     0.287 C 
ATOM     13  O   UNL d   1      50.346  32.982  53.060  0.00  0.00    -0.265 OA
BRANCH  12  14
ATOM     14  C   UNL d   1      50.001  34.325  52.743  0.00  0.00     0.088 A 
ATOM     15  S   UNL d   1      49.590  34.792  53.295  0.00  0.00    -0.071 SA
ATOM     16  C   UNL d   1      49.077  35.276  52.887  0.00  0.00     0.087 A 
ATOM     17 CL   UNL d   1      48.559  35.830  53.200  0.00  0.00    -0.075 Cl
ATOM     18  C   UNL d   1      49.166  35.114  52.092  0.00  0.00     0.019 A 
ATOM     19  C   UNL d   1      49.732  34.532  52.007  0.00  0.00     0.013 A 
ENDBRANCH  12  14
ENDBRANCH   1  11
BRANCH   2  20
ATOM     20  C   UNL d   1      53.151  34.009  53.947  0.00  0.00     0.151 C 
BRANCH  20  21
ATOM     21  C   UNL d   1      53.086  34.823  53.887  0.00  0.00     0.314 C 
ATOM     22  O   UNL d   1      53.274  35.191  53.180  0.00  0.00    -0.257 OA
BRANCH  21  23
ATOM     23  O   UNL d   1      52.835  35.263  54.523  0.00  0.00    -0.295 OA
ATOM     24  C   UNL d   1      53.188  35.977  54.692  0.00  0.00     0.185 C 
ENDBRANCH  21  23
ENDBRANCH  20  21
ENDBRANCH   2  20
TORSDOF 5
ENDMDL
MODEL 4
REMARK VINA RESULT:      -6.7      1.475      2.822
REMARK  5 active torsions:
REMARK  status: ('A' for Active; 'I' for Inactive)
REMARK    1  A    between atoms: N_3  and  C_1 
REMARK    2  A    between atoms: C_12  and  N_2 
REMARK       I    between atoms: C_5  and  N_3 
REMARK    3  A    between atoms: C_8  and  C_5 
REMARK    4  A    between atoms: C_15  and  C_12 
REMARK    5  A    between atoms: O_22  and  C_15 
ROOT
ATOM      1  C   UNL d   1      52.577  31.976  53.245  0.00  0.00     0.183 A 
ATOM      2  N   UNL d   1      53.260  31.851  53.687  0.00  0.00    -0.280 N 
ATOM      3  S   UNL d   1      52.268  31.238  53.040  0.00  0.00    -0.048 SA
ATOM      4  C   UNL d   1      53.380  31.034  53.759  0.00  0.00     0.072 A 
ATOM      5  C   UNL d   1      52.764  30.654  53.358  0.00  0.00     0.048 A 
ATOM      6  C   UNL d   1      53.966  30.589  54.136  0.00  0.00     0.018 A 
ATOM      7  C   UNL d   1      52.734  29.828  53.333  0.00  0.00     0.008 A 
ATOM      8  C   UNL d   1      53.935  29.764  54.111  0.00  0.00     0.002 A 
ATOM      9  C   UNL d   1      53.319  29.383  53.710  0.00  0.00     0.001 A 
ATOM     10  C   UNL d   1      53.286  28.565  53.683  0.00  0.00     0.000 C 
ENDROOT
BRANCH   1  11
ATOM     11  N   UNL d   1      52.262  32.715  53.045  0.00  0.00    -0.183 NA
ATOM     12  C   UNL d   1      51.442  32.814  53.017  0.00  0.00     0.287 C 
ATOM     13  O   UNL d   1      50.945  32.176  53.188  0.00  0.00    -0.265 OA
BRANCH  12  14
ATOM     14  C   UNL d   1      51.124  33.539  52.821  0.00  0.00     0.088 A 
ATOM     15  S   UNL d   1      50.446  33.887  53.155  0.00  0.00    -0.071 SA
ATOM     16  C   UNL d   1      50.329  34.610  52.797  0.00  0.00     0.087 A 
ATOM     17 CL   UNL d   1      49.729  35.149  52.948  0.00  0.00    -0.075 Cl
ATOM     18  C   UNL d   1      50.924  34.712  52.247  0.00  0.00     0.019 A 
ATOM     19  C   UNL d   1      51.409  34.055  52.264  0.00  0.00     0.013 A 
ENDBRANCH  12  14
ENDBRANCH   1  11
BRANCH   2  20
ATOM     20  C   UNL d   1      53.913  32.122  54.111  0.00  0.00     0.151 C 
BRANCH  20  21
ATOM     21  C   UNL d   1      54.173  32.891  54.008  0.00  0.00     0.314 C 
ATOM     22  O   UNL d   1      54.556  33.096  53.313  0.00  0.00    -0.257 OA
BRANCH  21  23
ATOM     23  O   UNL d   1      54.052  33.448  54.587  0.00  0.00    -0.295 OA
ATOM     24  C   UNL d   1      54.682  33.855  54.902  0.00  0.00     0.185 C 
ENDBRANCH  21  23
ENDBRANCH  20  21
ENDBRANCH   2  20
TORSDOF 5
ENDMDL
MODEL 5
REMARK VINA RESULT:      -6.2      1.832      4.067
REMARK  5 active torsions:
REMARK  status: ('A' for Active; 'I' for Inactive)
REMARK    1  A    between atoms: N_3  and  C_1 
REMARK    2  A    between atoms: C_12  and  N_2 
REMARK       I    between atoms: C_5  and  N_3 
REMARK    3  A    between atoms: C_8  and  C_5 
REMARK    4  A    between atoms: C_15  and  C_12 
REMARK    5  A    between atoms: O_22  and  C_15 
ROOT
ATOM      1  C   UNL d   1      52.194  33.683  53.467  0.00  0.00     0.183 A 
ATOM      2  N   UNL d   1      51.734  33.132  53.064  0.00  0.00    -0.280 N 
ATOM      3  S   UNL d   1      51.794  34.406  53.455  0.00  0.00    -0.048 SA
ATOM      4  C   UNL d   1      51.045  33.509  52.798  0.00  0.00     0.072 A 
ATOM      5  C   UNL d   1      51.083  34.299  53.041  0.00  0.00     0.048 A 
ATOM      6  C   UNL d   1      50.393  33.238  52.370  0.00  0.00     0.018 A 
ATOM      7  C   UNL d   1      50.468  34.819  52.855  0.00  0.00     0.008 A 
ATOM      8  C   UNL d   1      49.778  33.757  52.184  0.00  0.00     0.002 A 
ATOM      9  C   UNL d   1      49.816  34.548  52.426  0.00  0.00     0.001 A 
ATOM     10  C   UNL d   1      49.208  35.066  52.244  0.00  0.00     0.000 C 
ENDROOT
BRANCH   1  11
ATOM     11  N   UNL d   1      52.927  33.531  53.821  0.00  0.00    -0.183 NA
ATOM     12  C   UNL d   1      53.135  33.929  54.514  0.00  0.00     0.287 C 
ATOM     13  O   UNL d   1      52.611  34.473  54.849  0.00  0.00    -0.265 OA
BRANCH  12  14
ATOM     14  C   UNL d   1      53.856  33.785  54.868  0.00  0.00     0.088 A 
ATOM     15  S   UNL d   1      54.570  34.182  54.712  0.00  0.00    -0.071 SA
ATOM     16  C   UNL d   1      55.148  33.861  55.189  0.00  0.00     0.087 A 
ATOM     17 CL   UNL d   1      55.939  34.077  55.226  0.00  0.00    -0.075 Cl
ATOM     18  C   UNL d   1      54.801  33.273  55.636  0.00  0.00     0.019 A 
ATOM     19  C   UNL d   1      54.010  33.229  55.437  0.00  0.00     0.013 A 
ENDBRANCH  12  14
ENDBRANCH   1  11
BRANCH   2  20
ATOM     20  C   UNL d   1      51.594  32.373  52.775  0.00  0.00     0.151 C 
BRANCH  20  21
ATOM     21  C   UNL d   1      52.198  31.822  52.772  0.00  0.00     0.314 C 
ATOM     22  O   UNL d   1      52.824  31.914  52.250  0.00  0.00    -0.257 OA
BRANCH  21  23
ATOM     23  O   UNL d   1      52.181  31.189  53.281  0.00  0.00    -0.295 OA
ATOM     24  C   UNL d   1      52.519  30.481  53.066  0.00  0.00     0.185 C 
ENDBRANCH  21  23
ENDBRANCH  20  21
ENDBRANCH   2  20
TORSDOF 5
ENDMDL
MODEL 6
REMARK VINA RESULT:      -5.8      2.099      3.586
REMARK  5 active torsions:
REMARK  status: ('A' for Active; 'I' for Inactive)
REMARK    1  A    between atoms: N_3  and  C_1 
REMARK    2  A    between atoms: C_12  and  N_2 
REMARK       I    between atoms: C_5  and  N_3 
REMARK    3  A    between atoms: C_8  and  C_5 
REMARK    4  A    between atoms: C_15  and  C_12 
REMARK    5  A    between atoms: O_22  and  C_15 
ROOT
ATOM      1  C   UNL d   1      52.791  33.083  53.804  0.00  0.00     0.183 A 
ATOM      2  N   UNL d   1      52.380  33.717  53.475  0.00  0.00    -0.280 N 
ATOM      3  S   UNL d   1      53.331  33.386  54.351  0.00  0.00    -0.048 SA
ATOM      4  C   UNL d   1      52.662  34.418  53.816  0.00  0.00     0.072 A 
ATOM      5  C   UNL d   1      53.252  34.212  54.360  0.00  0.00     0.048 A 
ATOM      6  C   UNL d   1      52.461  35.211  53.704  0.00  0.00     0.018 A 
ATOM      7  C   UNL d   1      53.641  34.801  54.791  0.00  0.00     0.008 A 
ATOM      8  C   UNL d   1      52.849  35.799  54.135  0.00  0.00     0.002 A 
ATOM      9  C   UNL d   1      53.439  35.594  54.679  0.00  0.00     0.001 A 
ATOM     10  C   UNL d   1      53.826  36.174  55.108  0.00  0.00     0.000 C 
ENDROOT
BRANCH   1  11
ATOM     11  N   UNL d   1      52.677  32.285  53.614  0.00  0.00    -0.183 NA
ATOM     12  C   UNL d   1      53.308  31.757  53.683  0.00  0.00     0.287 C 
ATOM     13  O   UNL d   1      54.045  32.027  53.941  0.00  0.00    -0.265 OA
BRANCH  12  14
ATOM     14  C   UNL d   1      53.203  30.969  53.498  0.00  0.00     0.088 A 
ATOM     15  S   UNL d   1      53.297  30.324  54.015  0.00  0.00    -0.071 SA
ATOM     16  C   UNL d   1      53.138  29.641  53.600  0.00  0.00     0.087 A 
ATOM     17 CL   UNL d   1      53.159  28.871  53.882  0.00  0.00    -0.075 Cl
ATOM     18  C   UNL d   1      52.949  29.855  52.836  0.00  0.00     0.019 A 
ATOM     19  C   UNL d   1      52.990  30.669  52.776  0.00  0.00     0.013 A 
ENDBRANCH  12  14
ENDBRANCH   1  11
BRANCH   2  20
ATOM     20  C   UNL d   1      51.814  34.032  52.966  0.00  0.00     0.151 C 
BRANCH  20  21
ATOM     21  C   UNL d   1      51.127  33.614  52.815  0.00  0.00     0.314 C 
ATOM     22  O   UNL d   1      50.679  33.336  53.443  0.00  0.00    -0.257 OA
BRANCH  21  23
ATOM     23  O   UNL d   1      50.889  33.474  52.051  0.00  0.00    -0.295 OA
ATOM     24  C   UNL d   1      50.203  33.807  51.768  0.00  0.00     0.185 C 
ENDBRANCH  21  23
ENDBRANCH  20  21
ENDBRANCH   2  20
TORSDOF 5
ENDMDL
