MODEL 1
REMARK VINA RESULT:      -8.5      0.000      0.000
REMARK  5 active torsions:
REMARK  status: ('A' for Active; 'I' for Inactive)
REMARK    1  A    between atoms: C_15  and  C_4 
REMARK       I    between atoms: C_11  and  N_14 
REMARK    2  A    between atoms: C_19  and  C_11 
REMARK    3  A    between atoms: N_14  and  C_16 
REMARK    4  A    between atoms: C_16  and  C_15 
REMARK    5  A    between atoms: C_20  and  C_19 
ROOT
ATOM      1  N   UNL d   1      53.187  33.615  53.691  0.00  0.00    -0.208 NA
ATOM      2  C   UNL d   1      52.597  34.173  53.532  0.00  0.00     0.279 A 
ATOM      3  C   UNL d   1      53.064  32.814  53.491  0.00  0.00     0.085 A 
ATOM      4  C   UNL d   1      51.883  33.934  53.174  0.00  0.00     0.059 A 
ATOM      5  C   UNL d   1      51.767  33.139  52.978  0.00  0.00     0.006 A 
ATOM      6  C   UNL d   1      52.355  32.584  53.137  0.00  0.00     0.018 A 
ATOM      7  C   UNL d   1      53.660  32.263  53.653  0.00  0.00     0.019 A 
ATOM      8  C   UNL d   1      52.240  31.786  52.941  0.00  0.00     0.002 A 
ATOM      9  C   UNL d   1      52.828  31.232  53.099  0.00  0.00     0.000 A 
ATOM     10  C   UNL d   1      53.542  31.472  53.457  0.00  0.00     0.002 A 
ATOM     11  O   UNL d   1      52.715  34.964  53.728  0.00  0.00    -0.265 OA
ATOM     12  C   UNL d   1      52.717  30.444  52.907  0.00  0.00     0.000 C 
ATOM     13  C   UNL d   1      54.130  30.918  53.616  0.00  0.00     0.000 C 
ENDROOT
BRANCH   4  14
ATOM     14  C   UNL d   1      51.303  34.489  53.019  0.00  0.00     0.026 C 
BRANCH  14  15
ATOM     15  C   UNL d   1      50.594  34.271  52.670  0.00  0.00     0.102 C 
BRANCH  15  16
ATOM     16  N   UNL d   1      49.909  34.720  52.777  0.00  0.00    -0.206 NA
ATOM     17  C   UNL d   1      49.345  34.770  52.176  0.00  0.00     0.279 C 
ATOM     18  O   UNL d   1      49.459  34.375  51.466  0.00  0.00    -0.265 OA
BRANCH  17  19
ATOM     19  C   UNL d   1      48.661  35.222  52.292  0.00  0.00     0.062 C 
BRANCH  19  20
ATOM     20  C   UNL d   1      48.087  35.265  51.695  0.00  0.00     0.005 C 
ATOM     21  C   UNL d   1      47.432  35.741  51.781  0.00  0.00     0.000 C 
ENDBRANCH  19  20
ENDBRANCH  17  19
ENDBRANCH  15  16
ENDBRANCH  14  15
ENDBRANCH   4  14
TORSDOF 5
ENDMDL
MODEL 2
REMARK VINA RESULT:      -8.1      1.347      2.089
REMARK  5 active torsions:
REMARK  status: ('A' for Active; 'I' for Inactive)
REMARK    1  A    between atoms: C_15  and  C_4 
REMARK       I    between atoms: C_11  and  N_14 
REMARK    2  A    between atoms: C_19  and  C_11 
REMARK    3  A    between atoms: N_14  and  C_16 
REMARK    4  A    between atoms: C_16  and  C_15 
REMARK    5  A    between atoms: C_20  and  C_19 
ROOT
ATOM      1  N   UNL d   1      52.886  32.599  53.309  0.00  0.00    -0.208 NA
ATOM      2  C   UNL d   1      52.247  32.797  52.823  0.00  0.00     0.279 A 
ATOM      3  C   UNL d   1      53.197  33.165  53.839  0.00  0.00     0.085 A 
ATOM      4  C   UNL d   1      51.915  33.561  52.864  0.00  0.00     0.059 A 
ATOM      5  C   UNL d   1      52.227  34.118  53.390  0.00  0.00     0.006 A 
ATOM      6  C   UNL d   1      52.863  33.919  53.873  0.00  0.00     0.018 A 
ATOM      7  C   UNL d   1      53.836  32.957  54.321  0.00  0.00     0.019 A 
ATOM      8  C   UNL d   1      53.176  34.477  54.401  0.00  0.00     0.002 A 
ATOM      9  C   UNL d   1      53.813  34.278  54.884  0.00  0.00     0.000 A 
ATOM     10  C   UNL d   1      54.145  33.513  54.844  0.00  0.00     0.002 A 
ATOM     11  O   UNL d   1      51.939  32.241  52.301  0.00  0.00    -0.265 OA
ATOM     12  C   UNL d   1      54.124  34.826  55.406  0.00  0.00     0.000 C 
ATOM     13  C   UNL d   1      54.780  33.314  55.326  0.00  0.00     0.000 C 
ENDROOT
BRANCH   4  14
ATOM     14  C   UNL d   1      51.283  33.753  52.381  0.00  0.00     0.026 C 
BRANCH  14  15
ATOM     15  C   UNL d   1      50.666  34.215  52.659  0.00  0.00     0.102 C 
BRANCH  15  16
ATOM     16  N   UNL d   1      50.028  34.413  52.174  0.00  0.00    -0.206 NA
ATOM     17  C   UNL d   1      49.397  34.853  52.473  0.00  0.00     0.279 C 
ATOM     18  O   UNL d   1      49.397  35.099  53.257  0.00  0.00    -0.265 OA
BRANCH  17  19
ATOM     19  C   UNL d   1      48.761  35.047  51.980  0.00  0.00     0.062 C 
BRANCH  19  20
ATOM     20  C   UNL d   1      48.136  35.507  52.272  0.00  0.00     0.005 C 
ATOM     21  C   UNL d   1      47.518  35.726  51.789  0.00  0.00     0.000 C 
ENDBRANCH  19  20
ENDBRANCH  17  19
ENDBRANCH  15  16
ENDBRANCH  14  15
ENDBRANCH   4  14
TORSDOF 5
ENDMDL
MODEL 3
REMARK VINA RESULT:      -7.4      2.019      4.897
REMARK  5 active torsions:
REMARK  status: ('A' for Active; 'I' for Inactive)
REMARK    1  A    between atoms: C_15  and  C_4 
REMARK       I    between atoms: C_11  and  N_14 
REMARK    2  A    between atoms: C_19  and  C_11 
REMARK    3  A    between atoms: N_14  and  C_16 
REMARK    4  A    between atoms: C_16  and  C_15 
REMARK    5  A    between atoms: C_20  and  C_19 
ROOT
ATOM      1  N   UNL d   1      53.417  33.741  53.709  0.00  0.00    -0.208 NA
ATOM      2  C   UNL d   1      53.808  33.016  53.639  0.00  0.00     0.279 A 
ATOM      3  C   UNL d   1      52.627  33.814  53.446  0.00  0.00     0.085 A 
ATOM      4  C   UNL d   1      53.413  32.360  53.307  0.00  0.00     0.059 A 
ATOM      5  C   UNL d   1      52.631  32.438  53.049  0.00  0.00     0.006 A 
ATOM      6  C   UNL d   1      52.243  33.161  53.119  0.00  0.00     0.018 A 
ATOM      7  C   UNL d   1      52.245  34.543  53.520  0.00  0.00     0.019 A 
ATOM      8  C   UNL d   1      51.459  33.241  52.860  0.00  0.00     0.002 A 
ATOM      9  C   UNL d   1      51.071  33.964  52.930  0.00  0.00     0.000 A 
ATOM     10  C   UNL d   1      51.466  34.619  53.262  0.00  0.00     0.002 A 
ATOM     11  O   UNL d   1      54.585  32.940  53.897  0.00  0.00    -0.265 OA
ATOM     12  C   UNL d   1      50.297  34.045  52.676  0.00  0.00     0.000 C 
ATOM     13  C   UNL d   1      51.079  35.342  53.332  0.00  0.00     0.000 C 
ENDROOT
BRANCH   4  14
ATOM     14  C   UNL d   1      53.803  31.644  53.240  0.00  0.00     0.026 C 
BRANCH  14  15
ATOM     15  C   UNL d   1      53.393  30.936  53.280  0.00  0.00     0.102 C 
BRANCH  15  16
ATOM     16  N   UNL d   1      53.686  30.297  53.714  0.00  0.00    -0.206 NA
ATOM     17  C   UNL d   1      53.247  29.601  53.780  0.00  0.00     0.279 C 
ATOM     18  O   UNL d   1      52.514  29.537  53.415  0.00  0.00    -0.265 OA
BRANCH  17  19
ATOM     19  C   UNL d   1      53.547  28.965  54.216  0.00  0.00     0.062 C 
BRANCH  19  20
ATOM     20  C   UNL d   1      53.213  28.771  54.949  0.00  0.00     0.005 C 
ATOM     21  C   UNL d   1      53.558  28.211  55.430  0.00  0.00     0.000 C 
ENDBRANCH  19  20
ENDBRANCH  17  19
ENDBRANCH  15  16
ENDBRANCH  14  15
ENDBRANCH   4  14
TORSDOF 5
ENDMDL
MODEL 4
REMARK VINA RESULT:      -7.4      2.500      4.948
REMARK  5 active torsions:
REMARK  status: ('A' for Active; 'I' for Inactive)
REMARK    1  A    between atoms: C_15  and  C_4 
REMARK       I    between atoms: C_11  and  N_14 
REMARK    2  A    between atoms: C_19  and  C_11 
REMARK    3  A    between atoms: N_14  and  C_16 
REMARK    4  A    between atoms: C_16  and  C_15 
REMARK    5  A    between atoms: C_20  and  C_19 
ROOT
ATOM      1  N   UNL d   1      52.384  33.588  52.877  0.00  0.00    -0.208 NA
ATOM      2  C   UNL d   1      52.537  32.803  52.667  0.00  0.00     0.279 A 
ATOM      3  C   UNL d   1      52.776  33.926  53.532  0.00  0.00     0.085 A 
ATOM      4  C   UNL d   1      53.083  32.353  53.109  0.00  0.00     0.059 A 
ATOM      5  C   UNL d   1      53.469  32.693  53.756  0.00  0.00     0.006 A 
ATOM      6  C   UNL d   1      53.315  33.475  53.964  0.00  0.00     0.018 A 
ATOM      7  C   UNL d   1      52.616  34.712  53.734  0.00  0.00     0.019 A 
ATOM      8  C   UNL d   1      53.701  33.818  54.613  0.00  0.00     0.002 A 
ATOM      9  C   UNL d   1      53.547  34.600  54.821  0.00  0.00     0.000 A 
ATOM     10  C   UNL d   1      53.001  35.049  54.379  0.00  0.00     0.002 A 
ATOM     11  O   UNL d   1      52.152  32.466  52.022  0.00  0.00    -0.265 OA
ATOM     12  C   UNL d   1      53.927  34.940  55.462  0.00  0.00     0.000 C 
ATOM     13  C   UNL d   1      52.847  35.830  54.587  0.00  0.00     0.000 C 
ENDROOT
BRANCH   4  14
ATOM     14  C   UNL d   1      53.232  31.576  52.897  0.00  0.00     0.026 C 
BRANCH  14  15
ATOM     15  C   UNL d   1      52.861  30.956  53.283  0.00  0.00     0.102 C 
BRANCH  15  16
ATOM     16  N   UNL d   1      53.295  30.332  53.605  0.00  0.00    -0.206 NA
ATOM     17  C   UNL d   1      52.933  29.605  53.756  0.00  0.00     0.279 C 
ATOM     18  O   UNL d   1      52.137  29.496  53.588  0.00  0.00    -0.265 OA
BRANCH  17  19
ATOM     19  C   UNL d   1      53.376  28.986  54.079  0.00  0.00     0.062 C 
BRANCH  19  20
ATOM     20  C   UNL d   1      53.296  28.794  54.881  0.00  0.00     0.005 C 
ATOM     21  C   UNL d   1      53.686  28.152  55.198  0.00  0.00     0.000 C 
ENDBRANCH  19  20
ENDBRANCH  17  19
ENDBRANCH  15  16
ENDBRANCH  14  15
ENDBRANCH   4  14
TORSDOF 5
ENDMDL
MODEL 5
REMARK VINA RESULT:      -7.2      1.592      4.756
REMARK  5 active torsions:
REMARK  status: ('A' for Active; 'I' for Inactive)
REMARK    1  A    between atoms: C_15  and  C_4 
REMARK       I    between atoms: C_11  and  N_14 
REMARK    2  A    between atoms: C_19  and  C_11 
REMARK    3  A    between atoms: N_14  and  C_16 
REMARK    4  A    between atoms: C_16  and  C_15 
REMARK    5  A    between atoms: C_20  and  C_19 
ROOT
ATOM      1  N   UNL d   1      51.903  34.129  54.011  0.00  0.00    -0.208 NA
ATOM      2  C   UNL d   1      52.534  33.595  53.988  0.00  0.00     0.279 A 
ATOM      3  C   UNL d   1      51.345  34.141  53.390  0.00  0.00     0.085 A 
ATOM      4  C   UNL d   1      52.610  33.070  53.344  0.00  0.00     0.059 A 
ATOM      5  C   UNL d   1      52.055  33.086  52.731  0.00  0.00     0.006 A 
ATOM      6  C   UNL d   1      51.427  33.619  52.756  0.00  0.00     0.018 A 
ATOM      7  C   UNL d   1      50.718  34.679  53.422  0.00  0.00     0.019 A 
ATOM      8  C   UNL d   1      50.870  33.636  52.142  0.00  0.00     0.002 A 
ATOM      9  C   UNL d   1      50.242  34.169  52.167  0.00  0.00     0.000 A 
ATOM     10  C   UNL d   1      50.166  34.694  52.811  0.00  0.00     0.002 A 
ATOM     11  O   UNL d   1      53.085  33.581  54.598  0.00  0.00    -0.265 OA
ATOM     12  C   UNL d   1      49.691  34.188  51.563  0.00  0.00     0.000 C 
ATOM     13  C   UNL d   1      49.539  35.226  52.837  0.00  0.00     0.000 C 
ENDROOT
BRANCH   4  14
ATOM     14  C   UNL d   1      53.236  32.543  53.325  0.00  0.00     0.026 C 
BRANCH  14  15
ATOM     15  C   UNL d   1      53.114  31.751  53.152  0.00  0.00     0.102 C 
BRANCH  15  16
ATOM     16  N   UNL d   1      53.475  31.156  53.595  0.00  0.00    -0.206 NA
ATOM     17  C   UNL d   1      53.303  30.362  53.448  0.00  0.00     0.279 C 
ATOM     18  O   UNL d   1      52.769  30.156  52.858  0.00  0.00    -0.265 OA
BRANCH  17  19
ATOM     19  C   UNL d   1      53.670  29.772  53.897  0.00  0.00     0.062 C 
BRANCH  19  20
ATOM     20  C   UNL d   1      53.223  29.140  54.195  0.00  0.00     0.005 C 
ATOM     21  C   UNL d   1      53.501  28.687  54.812  0.00  0.00     0.000 C 
ENDBRANCH  19  20
ENDBRANCH  17  19
ENDBRANCH  15  16
ENDBRANCH  14  15
ENDBRANCH   4  14
TORSDOF 5
ENDMDL
MODEL 6
REMARK VINA RESULT:      -6.6      1.345      5.609
REMARK  5 active torsions:
REMARK  status: ('A' for Active; 'I' for Inactive)
REMARK    1  A    between atoms: C_15  and  C_4 
REMARK       I    between atoms: C_11  and  N_14 
REMARK    2  A    between atoms: C_19  and  C_11 
REMARK    3  A    between atoms: N_14  and  C_16 
REMARK    4  A    between atoms: C_16  and  C_15 
REMARK    5  A    between atoms: C_20  and  C_19 
ROOT
ATOM      1  N   UNL d   1      48.086  35.204  51.474  0.00  0.00    -0.208 NA
ATOM      2  C   UNL d   1      48.817  34.825  51.402  0.00  0.00     0.279 A 
ATOM      3  C   UNL d   1      47.881  35.578  52.192  0.00  0.00     0.085 A 
ATOM      4  C   UNL d   1      49.347  34.818  52.046  0.00  0.00     0.059 A 
ATOM      5  C   UNL d   1      49.140  35.191  52.754  0.00  0.00     0.006 A 
ATOM      6  C   UNL d   1      48.411  35.567  52.825  0.00  0.00     0.018 A 
ATOM      7  C   UNL d   1      47.147  35.954  52.255  0.00  0.00     0.019 A 
ATOM      8  C   UNL d   1      48.201  35.941  53.535  0.00  0.00     0.002 A 
ATOM      9  C   UNL d   1      47.472  36.318  53.605  0.00  0.00     0.000 A 
ATOM     10  C   UNL d   1      46.942  36.325  52.961  0.00  0.00     0.002 A 
ATOM     11  O   UNL d   1      49.022  34.455  50.696  0.00  0.00    -0.265 OA
ATOM     12  C   UNL d   1      47.263  36.688  54.305  0.00  0.00     0.000 C 
ATOM     13  C   UNL d   1      46.214  36.701  53.031  0.00  0.00     0.000 C 
ENDROOT
BRANCH   4  14
ATOM     14  C   UNL d   1      50.070  34.442  51.970  0.00  0.00     0.026 C 
BRANCH  14  15
ATOM     15  C   UNL d   1      50.476  34.174  52.629  0.00  0.00     0.102 C 
BRANCH  15  16
ATOM     16  N   UNL d   1      51.295  34.072  52.615  0.00  0.00    -0.206 NA
ATOM     17  C   UNL d   1      51.651  33.480  53.068  0.00  0.00     0.279 C 
ATOM     18  O   UNL d   1      51.193  32.986  53.538  0.00  0.00    -0.265 OA
BRANCH  17  19
ATOM     19  C   UNL d   1      52.473  33.385  53.047  0.00  0.00     0.062 C 
BRANCH  19  20
ATOM     20  C   UNL d   1      52.831  32.785  53.493  0.00  0.00     0.005 C 
ATOM     21  C   UNL d   1      53.638  32.671  53.466  0.00  0.00     0.000 C 
ENDBRANCH  19  20
ENDBRANCH  17  19
ENDBRANCH  15  16
ENDBRANCH  14  15
ENDBRANCH   4  14
TORSDOF 5
ENDMDL
MODEL 7
REMARK VINA RESULT:      -6.0      1.675      5.084
REMARK  5 active torsions:
REMARK  status: ('A' for Active; 'I' for Inactive)
REMARK    1  A    between atoms: C_15  and  C_4 
REMARK       I    between atoms: C_11  and  N_14 
REMARK    2  A    between atoms: C_19  and  C_11 
REMARK    3  A    between atoms: N_14  and  C_16 
REMARK    4  A    between atoms: C_16  and  C_15 
REMARK    5  A    between atoms: C_20  and  C_19 
ROOT
ATOM      1  N   UNL d   1      50.093  34.311  51.569  0.00  0.00    -0.208 NA
ATOM      2  C   UNL d   1      50.860  34.165  51.842  0.00  0.00     0.279 A 
ATOM      3  C   UNL d   1      49.548  34.714  52.057  0.00  0.00     0.085 A 
ATOM      4  C   UNL d   1      51.086  34.421  52.603  0.00  0.00     0.059 A 
ATOM      5  C   UNL d   1      50.542  34.819  53.082  0.00  0.00     0.006 A 
ATOM      6  C   UNL d   1      49.779  34.964  52.808  0.00  0.00     0.018 A 
ATOM      7  C   UNL d   1      48.783  34.855  51.775  0.00  0.00     0.019 A 
ATOM      8  C   UNL d   1      49.233  35.363  53.288  0.00  0.00     0.002 A 
ATOM      9  C   UNL d   1      48.469  35.508  53.015  0.00  0.00     0.000 A 
ATOM     10  C   UNL d   1      48.243  35.252  52.254  0.00  0.00     0.002 A 
ATOM     11  O   UNL d   1      51.399  33.769  51.363  0.00  0.00    -0.265 OA
ATOM     12  C   UNL d   1      47.928  35.902  53.486  0.00  0.00     0.000 C 
ATOM     13  C   UNL d   1      47.481  35.396  51.980  0.00  0.00     0.000 C 
ENDROOT
BRANCH   4  14
ATOM     14  C   UNL d   1      51.846  34.274  52.869  0.00  0.00     0.026 C 
BRANCH  14  15
ATOM     15  C   UNL d   1      51.976  33.937  53.604  0.00  0.00     0.102 C 
BRANCH  15  16
ATOM     16  N   UNL d   1      52.621  34.161  54.069  0.00  0.00    -0.206 NA
ATOM     17  C   UNL d   1      53.108  33.589  54.412  0.00  0.00     0.279 C 
ATOM     18  O   UNL d   1      52.956  32.791  54.294  0.00  0.00    -0.265 OA
BRANCH  17  19
ATOM     19  C   UNL d   1      53.752  33.823  54.876  0.00  0.00     0.062 C 
BRANCH  19  20
ATOM     20  C   UNL d   1      54.387  33.304  54.995  0.00  0.00     0.005 C 
ATOM     21  C   UNL d   1      55.109  33.580  55.252  0.00  0.00     0.000 C 
ENDBRANCH  19  20
ENDBRANCH  17  19
ENDBRANCH  15  16
ENDBRANCH  14  15
ENDBRANCH   4  14
TORSDOF 5
ENDMDL
MODEL 8
REMARK VINA RESULT:      -5.9     10.363     11.033
REMARK  5 active torsions:
REMARK  status: ('A' for Active; 'I' for Inactive)
REMARK    1  A    between atoms: C_15  and  C_4 
REMARK       I    between atoms: C_11  and  N_14 
REMARK    2  A    between atoms: C_19  and  C_11 
REMARK    3  A    between atoms: N_14  and  C_16 
REMARK    4  A    between atoms: C_16  and  C_15 
REMARK    5  A    between atoms: C_20  and  C_19 
ROOT
ATOM      1  N   UNL d   1      44.839  31.083  60.037  0.00  0.00    -0.208 NA
ATOM      2  C   UNL d   1      44.907  30.709  59.303  0.00  0.00     0.279 A 
ATOM      3  C   UNL d   1      44.706  30.628  60.724  0.00  0.00     0.085 A 
ATOM      4  C   UNL d   1      44.844  29.879  59.252  0.00  0.00     0.059 A 
ATOM      5  C   UNL d   1      44.713  29.433  59.936  0.00  0.00     0.006 A 
ATOM      6  C   UNL d   1      44.644  29.808  60.666  0.00  0.00     0.018 A 
ATOM      7  C   UNL d   1      44.638  31.011  61.454  0.00  0.00     0.019 A 
ATOM      8  C   UNL d   1      44.513  29.361  61.353  0.00  0.00     0.002 A 
ATOM      9  C   UNL d   1      44.444  29.736  62.083  0.00  0.00     0.000 A 
ATOM     10  C   UNL d   1      44.508  30.566  62.134  0.00  0.00     0.002 A 
ATOM     11  O   UNL d   1      45.038  31.155  58.624  0.00  0.00    -0.265 OA
ATOM     12  C   UNL d   1      44.314  29.298  62.762  0.00  0.00     0.000 C 
ATOM     13  C   UNL d   1      44.439  30.940  62.864  0.00  0.00     0.000 C 
ENDROOT
BRANCH   4  14
ATOM     14  C   UNL d   1      44.913  29.513  58.523  0.00  0.00     0.026 C 
BRANCH  14  15
ATOM     15  C   UNL d   1      45.127  28.724  58.467  0.00  0.00     0.102 C 
BRANCH  15  16
ATOM     16  N   UNL d   1      45.090  28.321  57.748  0.00  0.00    -0.206 NA
ATOM     17  C   UNL d   1      45.296  27.522  57.705  0.00  0.00     0.279 C 
ATOM     18  O   UNL d   1      45.540  27.121  58.378  0.00  0.00    -0.265 OA
BRANCH  17  19
ATOM     19  C   UNL d   1      45.255  27.126  56.980  0.00  0.00     0.062 C 
BRANCH  19  20
ATOM     20  C   UNL d   1      45.132  26.307  56.962  0.00  0.00     0.005 C 
ATOM     21  C   UNL d   1      44.946  25.928  56.265  0.00  0.00     0.000 C 
ENDBRANCH  19  20
ENDBRANCH  17  19
ENDBRANCH  15  16
ENDBRANCH  14  15
ENDBRANCH   4  14
TORSDOF 5
ENDMDL
MODEL 9
REMARK VINA RESULT:      -5.9      2.918      3.604
REMARK  5 active torsions:
REMARK  status: ('A' for Active; 'I' for Inactive)
REMARK    1  A    between atoms: C_15  and  C_4 
REMARK       I    between atoms: C_11  and  N_14 
REMARK    2  A    between atoms: C_19  and  C_11 
REMARK    3  A    between atoms: N_14  and  C_16 
REMARK    4  A    between atoms: C_16  and  C_15 
REMARK    5  A    between atoms: C_20  and  C_19 
ROOT
ATOM      1  N   UNL d   1      52.562  31.280  52.602  0.00  0.00    -0.208 NA
ATOM      2  C   UNL d   1      52.851  32.049  52.692  0.00  0.00     0.279 A 
ATOM      3  C   UNL d   1      52.832  30.673  53.109  0.00  0.00     0.085 A 
ATOM      4  C   UNL d   1      53.410  32.217  53.288  0.00  0.00     0.059 A 
ATOM      5  C   UNL d   1      53.673  31.612  53.787  0.00  0.00     0.006 A 
ATOM      6  C   UNL d   1      53.384  30.847  53.697  0.00  0.00     0.018 A 
ATOM      7  C   UNL d   1      52.537  29.907  53.011  0.00  0.00     0.019 A 
ATOM      8  C   UNL d   1      53.647  30.239  54.197  0.00  0.00     0.002 A 
ATOM      9  C   UNL d   1      53.359  29.473  54.106  0.00  0.00     0.000 A 
ATOM     10  C   UNL d   1      52.800  29.306  53.510  0.00  0.00     0.002 A 
ATOM     11  O   UNL d   1      52.588  32.649  52.194  0.00  0.00    -0.265 OA
ATOM     12  C   UNL d   1      53.617  28.872  54.598  0.00  0.00     0.000 C 
ATOM     13  C   UNL d   1      52.512  28.541  53.418  0.00  0.00     0.000 C 
ENDROOT
BRANCH   4  14
ATOM     14  C   UNL d   1      53.693  32.980  53.373  0.00  0.00     0.026 C 
BRANCH  14  15
ATOM     15  C   UNL d   1      53.621  33.378  54.086  0.00  0.00     0.102 C 
BRANCH  15  16
ATOM     16  N   UNL d   1      53.682  34.201  54.124  0.00  0.00    -0.206 NA
ATOM     17  C   UNL d   1      53.486  34.603  54.818  0.00  0.00     0.279 C 
ATOM     18  O   UNL d   1      53.228  34.188  55.478  0.00  0.00    -0.265 OA
BRANCH  17  19
ATOM     19  C   UNL d   1      53.551  35.427  54.848  0.00  0.00     0.062 C 
BRANCH  19  20
ATOM     20  C   UNL d   1      52.876  35.899  54.750  0.00  0.00     0.005 C 
ATOM     21  C   UNL d   1      52.913  36.706  54.851  0.00  0.00     0.000 C 
ENDBRANCH  19  20
ENDBRANCH  17  19
ENDBRANCH  15  16
ENDBRANCH  14  15
ENDBRANCH   4  14
TORSDOF 5
ENDMDL
