MODEL 1
REMARK VINA RESULT:      59.0      0.000      0.000
REMARK  2 active torsions:
REMARK  status: ('A' for Active; 'I' for Inactive)
REMARK    1  A    between atoms: C_7  and  C_1 
REMARK    2  A    between atoms: O_16  and  C_12 
ROOT
ATOM      1  C   UNL d   1      57.806  49.682  53.393  0.00  0.00     0.105 A 
ATOM      2  C   UNL d   1      57.644  49.683  51.730  0.00  0.00     0.064 A 
ATOM      3  O   UNL d   1      57.047  49.694  53.051  0.00  0.00    -0.307 OA
ATOM      4  C   UNL d   1      58.399  49.672  52.075  0.00  0.00     0.200 A 
ATOM      5  C   UNL d   1      56.968  49.695  52.225  0.00  0.00     0.103 A 
ATOM      6  C   UNL d   1      58.487  49.671  52.904  0.00  0.00     0.067 A 
ATOM      7  C   UNL d   1      57.560  49.684  50.913  0.00  0.00     0.029 A 
ATOM      8  O   UNL d   1      59.069  49.661  51.594  0.00  0.00    -0.286 OA
ATOM      9  C   UNL d   1      56.213  49.706  51.879  0.00  0.00     0.027 A 
ATOM     10  C   UNL d   1      56.811  49.696  50.574  0.00  0.00     0.094 A 
ATOM     11  C   UNL d   1      56.139  49.707  51.056  0.00  0.00     0.026 A 
ENDROOT
BRANCH   1  12
ATOM     12  C   UNL d   1      57.893  49.682  54.207  0.00  0.00     0.050 A 
ATOM     13  C   UNL d   1      57.229  49.656  54.689  0.00  0.00     0.142 A 
ATOM     14  F   UNL d   1      56.472  49.630  54.340  0.00  0.00    -0.204 F 
ATOM     15  C   UNL d   1      57.310  49.655  55.509  0.00  0.00     0.030 A 
ATOM     16  C   UNL d   1      58.059  49.680  55.847  0.00  0.00     0.002 A 
ATOM     17  C   UNL d   1      58.729  49.707  55.366  0.00  0.00     0.000 A 
ATOM     18  C   UNL d   1      58.649  49.708  54.547  0.00  0.00     0.004 A 
ENDBRANCH   1  12
BRANCH  10  19
ATOM     19  O   UNL d   1      56.730  49.696  49.755  0.00  0.00    -0.328 OA
ATOM     20  C   UNL d   1      56.587  48.989  49.354  0.00  0.00     0.181 C 
ENDBRANCH  10  19
TORSDOF 2
ENDMDL
