MODEL 1
REMARK VINA RESULT:      -6.2      0.000      0.000
REMARK  10 active torsions:
REMARK  status: ('A' for Active; 'I' for Inactive)
REMARK    1  A    between atoms: C_16  and  N_1 
REMARK    2  A    between atoms: S_10  and  C_2 
REMARK    3  A    between atoms: N_8  and  C_9 
REMARK    4  A    between atoms: C_18  and  S_10 
REMARK    5  A    between atoms: C_12  and  C_18 
REMARK       I    between atoms: N_19  and  C_12 
REMARK    6  A    between atoms: C_27  and  C_16 
REMARK    7  A    between atoms: C_25  and  N_19 
REMARK    8  A    between atoms: O_22  and  C_26 
REMARK    9  A    between atoms: C_26  and  C_25 
REMARK   10  A    between atoms: C_29  and  C_27 
ROOT
ATOM      1  N   UNL d   1      52.427  33.940  53.426  0.00  0.00    -0.253 N 
ATOM      2  C   UNL d   1      52.294  33.173  53.133  0.00  0.00     0.182 A 
ATOM      3  C   UNL d   1      51.825  34.497  53.422  0.00  0.00     0.268 A 
ATOM      4  C   UNL d   1      51.085  34.281  53.121  0.00  0.00     0.076 A 
ATOM      5  N   UNL d   1      51.560  32.968  52.837  0.00  0.00    -0.222 NA
ATOM      6  C   UNL d   1      50.953  33.522  52.830  0.00  0.00     0.088 A 
ATOM      7  C   UNL d   1      50.491  34.840  53.120  0.00  0.00     0.024 A 
ATOM      8  C   UNL d   1      49.738  34.639  52.819  0.00  0.00     0.065 A 
ATOM      9  O   UNL d   1      51.957  35.257  53.713  0.00  0.00    -0.267 OA
ATOM     10  C   UNL d   1      50.215  33.317  52.533  0.00  0.00     0.021 A 
ATOM     11  C   UNL d   1      49.616  33.869  52.528  0.00  0.00     0.019 A 
ENDROOT
BRANCH   2  12
ATOM     12  S   UNL d   1      52.917  32.615  53.143  0.00  0.00    -0.044 SA
BRANCH  12  13
ATOM     13  C   UNL d   1      52.785  31.856  52.851  0.00  0.00     0.101 C 
BRANCH  13  14
ATOM     14  C   UNL d   1      53.256  31.220  53.095  0.00  0.00     0.286 C 
ATOM     15  O   UNL d   1      54.069  31.266  53.060  0.00  0.00    -0.265 OA
ATOM     16  N   UNL d   1      52.907  30.527  53.379  0.00  0.00    -0.204 NA
BRANCH  16  17
ATOM     17  C   UNL d   1      53.379  29.879  53.627  0.00  0.00     0.129 C 
BRANCH  17  18
ATOM     18  C   UNL d   1      53.030  29.270  54.032  0.00  0.00     0.137 C 
BRANCH  18  19
ATOM     19  O   UNL d   1      53.502  28.688  54.371  0.00  0.00    -0.325 OA
ATOM     20  C   UNL d   1      53.395  28.483  55.160  0.00  0.00     0.182 C 
ENDBRANCH  18  19
ENDBRANCH  17  18
ENDBRANCH  16  17
ENDBRANCH  13  14
ENDBRANCH  12  13
ENDBRANCH   2  12
BRANCH   1  21
ATOM     21  C   UNL d   1      53.181  34.141  53.727  0.00  0.00     0.085 C 
BRANCH  21  22
ATOM     22  C   UNL d   1      53.297  34.172  54.533  0.00  0.00     0.019 C 
BRANCH  22  23
ATOM     23  C   UNL d   1      54.030  34.385  54.837  0.00  0.00     0.002 C 
ATOM     24  C   UNL d   1      54.349  33.972  55.484  0.00  0.00     0.000 C 
ENDBRANCH  22  23
ENDBRANCH  21  22
ENDBRANCH   1  21
BRANCH   8  25
ATOM     25  N   UNL d   1      49.131  35.194  52.813  0.00  0.00    -0.300 N 
ATOM     26  C   UNL d   1      48.768  35.387  52.094  0.00  0.00     0.107 A 
ATOM     27  C   UNL d   1      48.157  35.946  52.092  0.00  0.00     0.142 A 
ATOM     28  O   UNL d   1      47.911  36.308  52.799  0.00  0.00    -0.300 OA
ATOM     29  C   UNL d   1      48.281  36.107  53.512  0.00  0.00     0.142 A 
ATOM     30  C   UNL d   1      48.893  35.550  53.529  0.00  0.00     0.107 A 
ENDBRANCH   8  25
TORSDOF 10
ENDMDL
MODEL 2
REMARK VINA RESULT:      -5.2      1.197      5.576
REMARK  10 active torsions:
REMARK  status: ('A' for Active; 'I' for Inactive)
REMARK    1  A    between atoms: C_16  and  N_1 
REMARK    2  A    between atoms: S_10  and  C_2 
REMARK    3  A    between atoms: N_8  and  C_9 
REMARK    4  A    between atoms: C_18  and  S_10 
REMARK    5  A    between atoms: C_12  and  C_18 
REMARK       I    between atoms: N_19  and  C_12 
REMARK    6  A    between atoms: C_27  and  C_16 
REMARK    7  A    between atoms: C_25  and  N_19 
REMARK    8  A    between atoms: O_22  and  C_26 
REMARK    9  A    between atoms: C_26  and  C_25 
REMARK   10  A    between atoms: C_29  and  C_27 
ROOT
ATOM      1  N   UNL d   1      52.257  33.867  53.264  0.00  0.00    -0.253 N 
ATOM      2  C   UNL d   1      51.461  33.737  53.062  0.00  0.00     0.182 A 
ATOM      3  C   UNL d   1      52.757  33.234  53.413  0.00  0.00     0.268 A 
ATOM      4  C   UNL d   1      52.453  32.466  53.359  0.00  0.00     0.076 A 
ATOM      5  N   UNL d   1      51.169  32.975  53.010  0.00  0.00    -0.222 NA
ATOM      6  C   UNL d   1      51.664  32.337  53.159  0.00  0.00     0.088 A 
ATOM      7  C   UNL d   1      52.956  31.841  53.508  0.00  0.00     0.024 A 
ATOM      8  C   UNL d   1      52.666  31.059  53.458  0.00  0.00     0.065 A 
ATOM      9  O   UNL d   1      53.546  33.363  53.613  0.00  0.00    -0.267 OA
ATOM     10  C   UNL d   1      51.373  31.571  53.107  0.00  0.00     0.021 A 
ATOM     11  C   UNL d   1      51.868  30.941  53.255  0.00  0.00     0.019 A 
ENDROOT
BRANCH   2  12
ATOM     12  S   UNL d   1      50.963  34.392  52.912  0.00  0.00    -0.044 SA
BRANCH  12  13
ATOM     13  C   UNL d   1      50.234  34.271  52.546  0.00  0.00     0.101 C 
BRANCH  13  14
ATOM     14  C   UNL d   1      49.629  34.832  52.612  0.00  0.00     0.286 C 
ATOM     15  O   UNL d   1      49.620  35.366  53.227  0.00  0.00    -0.265 OA
ATOM     16  N   UNL d   1      49.022  34.858  52.051  0.00  0.00    -0.204 NA
BRANCH  16  17
ATOM     17  C   UNL d   1      48.405  35.424  52.112  0.00  0.00     0.129 C 
BRANCH  17  18
ATOM     18  C   UNL d   1      47.760  35.357  51.627  0.00  0.00     0.137 C 
BRANCH  18  19
ATOM     19  O   UNL d   1      47.145  35.900  51.696  0.00  0.00    -0.325 OA
ATOM     20  C   UNL d   1      46.407  35.724  51.382  0.00  0.00     0.182 C 
ENDBRANCH  18  19
ENDBRANCH  17  18
ENDBRANCH  16  17
ENDBRANCH  13  14
ENDBRANCH  12  13
ENDBRANCH   2  12
BRANCH   1  21
ATOM     21  C   UNL d   1      52.547  34.650  53.314  0.00  0.00     0.085 C 
BRANCH  21  22
ATOM     22  C   UNL d   1      52.826  34.930  54.027  0.00  0.00     0.019 C 
BRANCH  22  23
ATOM     23  C   UNL d   1      53.124  35.694  54.082  0.00  0.00     0.002 C 
ATOM     24  C   UNL d   1      53.162  36.074  54.821  0.00  0.00     0.000 C 
ENDBRANCH  22  23
ENDBRANCH  21  22
ENDBRANCH   1  21
BRANCH   8  25
ATOM     25  N   UNL d   1      53.163  30.421  53.607  0.00  0.00    -0.300 N 
ATOM     26  C   UNL d   1      53.841  30.320  53.142  0.00  0.00     0.107 A 
ATOM     27  C   UNL d   1      54.338  29.675  53.295  0.00  0.00     0.142 A 
ATOM     28  O   UNL d   1      54.161  29.138  53.905  0.00  0.00    -0.300 OA
ATOM     29  C   UNL d   1      53.480  29.249  54.363  0.00  0.00     0.142 A 
ATOM     30  C   UNL d   1      52.974  29.889  54.221  0.00  0.00     0.107 A 
ENDBRANCH   8  25
TORSDOF 10
ENDMDL
MODEL 3
REMARK VINA RESULT:      -3.7      1.846      6.061
REMARK  10 active torsions:
REMARK  status: ('A' for Active; 'I' for Inactive)
REMARK    1  A    between atoms: C_16  and  N_1 
REMARK    2  A    between atoms: S_10  and  C_2 
REMARK    3  A    between atoms: N_8  and  C_9 
REMARK    4  A    between atoms: C_18  and  S_10 
REMARK    5  A    between atoms: C_12  and  C_18 
REMARK       I    between atoms: N_19  and  C_12 
REMARK    6  A    between atoms: C_27  and  C_16 
REMARK    7  A    between atoms: C_25  and  N_19 
REMARK    8  A    between atoms: O_22  and  C_26 
REMARK    9  A    between atoms: C_26  and  C_25 
REMARK   10  A    between atoms: C_29  and  C_27 
ROOT
ATOM      1  N   UNL d   1      50.139  34.550  52.282  0.00  0.00    -0.253 N 
ATOM      2  C   UNL d   1      49.915  34.865  53.019  0.00  0.00     0.182 A 
ATOM      3  C   UNL d   1      50.827  34.109  52.210  0.00  0.00     0.268 A 
ATOM      4  C   UNL d   1      51.292  33.984  52.884  0.00  0.00     0.076 A 
ATOM      5  N   UNL d   1      50.381  34.737  53.679  0.00  0.00    -0.222 NA
ATOM      6  C   UNL d   1      51.070  34.296  53.613  0.00  0.00     0.088 A 
ATOM      7  C   UNL d   1      51.974  33.545  52.805  0.00  0.00     0.024 A 
ATOM      8  C   UNL d   1      52.456  33.409  53.474  0.00  0.00     0.065 A 
ATOM      9  O   UNL d   1      51.049  33.796  51.480  0.00  0.00    -0.267 OA
ATOM     10  C   UNL d   1      51.539  34.167  54.275  0.00  0.00     0.021 A 
ATOM     11  C   UNL d   1      52.222  33.729  54.206  0.00  0.00     0.019 A 
ENDROOT
BRANCH   2  12
ATOM     12  S   UNL d   1      49.212  35.313  53.078  0.00  0.00    -0.044 SA
BRANCH  12  13
ATOM     13  C   UNL d   1      48.982  35.612  53.810  0.00  0.00     0.101 C 
BRANCH  13  14
ATOM     14  C   UNL d   1      48.302  36.079  53.883  0.00  0.00     0.286 C 
ATOM     15  O   UNL d   1      48.173  36.709  53.382  0.00  0.00    -0.265 OA
ATOM     16  N   UNL d   1      47.743  35.913  54.468  0.00  0.00    -0.204 NA
BRANCH  16  17
ATOM     17  C   UNL d   1      47.052  36.382  54.547  0.00  0.00     0.129 C 
BRANCH  17  18
ATOM     18  C   UNL d   1      46.590  36.297  55.208  0.00  0.00     0.137 C 
BRANCH  18  19
ATOM     19  O   UNL d   1      45.792  36.120  55.123  0.00  0.00    -0.325 OA
ATOM     20  C   UNL d   1      45.230  36.549  55.542  0.00  0.00     0.182 C 
ENDBRANCH  18  19
ENDBRANCH  17  18
ENDBRANCH  16  17
ENDBRANCH  13  14
ENDBRANCH  12  13
ENDBRANCH   2  12
BRANCH   1  21
ATOM     21  C   UNL d   1      49.657  34.686  51.612  0.00  0.00     0.085 C 
BRANCH  21  22
ATOM     22  C   UNL d   1      49.192  34.082  51.323  0.00  0.00     0.019 C 
BRANCH  22  23
ATOM     23  C   UNL d   1      48.704  34.212  50.675  0.00  0.00     0.002 C 
ATOM     24  C   UNL d   1      47.894  34.370  50.789  0.00  0.00     0.000 C 
ENDBRANCH  22  23
ENDBRANCH  21  22
ENDBRANCH   1  21
BRANCH   8  25
ATOM     25  N   UNL d   1      53.147  32.967  53.408  0.00  0.00    -0.300 N 
ATOM     26  C   UNL d   1      53.097  32.173  53.179  0.00  0.00     0.107 A 
ATOM     27  C   UNL d   1      53.796  31.732  53.114  0.00  0.00     0.142 A 
ATOM     28  O   UNL d   1      54.534  32.080  53.274  0.00  0.00    -0.300 OA
ATOM     29  C   UNL d   1      54.570  32.875  53.502  0.00  0.00     0.142 A 
ATOM     30  C   UNL d   1      53.881  33.328  53.572  0.00  0.00     0.107 A 
ENDBRANCH   8  25
TORSDOF 10
ENDMDL
