MODEL 1
REMARK VINA RESULT:      69.6      0.000      0.000
REMARK  4 active torsions:
REMARK  status: ('A' for Active; 'I' for Inactive)
REMARK    1  A    between atoms: C_8  and  S_1 
REMARK    2  A    between atoms: C_2  and  C_10 
REMARK    3  A    between atoms: C_6  and  C_14 
REMARK       I    between atoms: N_9  and  C_6 
REMARK    4  A    between atoms: C_23  and  N_9 
ROOT
ATOM      1  C   UNL d   1      14.692  17.415  -4.368  0.00  0.00     0.024 A 
ATOM      2  C   UNL d   1      14.495  16.706  -4.721  0.00  0.00     0.004 A 
ATOM      3  C   UNL d   1      14.928  17.439  -3.581  0.00  0.00     0.004 A 
ATOM      4  C   UNL d   1      14.769  16.024  -3.493  0.00  0.00     0.085 A 
ATOM      5  C   UNL d   1      14.968  16.744  -3.138  0.00  0.00     0.019 A 
ATOM      6  C   UNL d   1      14.533  16.006  -4.285  0.00  0.00     0.019 A 
ENDROOT
BRANCH   4   7
ATOM      7  N   UNL d   1      14.807  15.321  -3.055  0.00  0.00    -0.208 NA
ATOM      8  C   UNL d   1      14.689  15.344  -2.241  0.00  0.00     0.279 C 
ATOM      9  O   UNL d   1      14.534  16.054  -1.856  0.00  0.00    -0.265 OA
BRANCH   8  10
ATOM     10  C   UNL d   1      14.726  14.648  -1.807  0.00  0.00     0.058 A 
ATOM     11  C   UNL d   1      15.057  14.649  -1.050  0.00  0.00     0.005 A 
ATOM     12  C   UNL d   1      15.094  13.956  -0.618  0.00  0.00     0.013 A 
ATOM     13  C   UNL d   1      14.797  13.242  -0.940  0.00  0.00     0.107 A 
ATOM     14  C   UNL d   1      14.467  13.237  -1.695  0.00  0.00     0.013 A 
ATOM     15  C   UNL d   1      14.429  13.940  -2.133  0.00  0.00     0.005 A 
BRANCH  13  16
ATOM     16  S   UNL d   1      14.835  12.539  -0.502  0.00  0.00     0.302 S 
ATOM     17  O   UNL d   1      15.432  12.265  -0.994  0.00  0.00    -0.197 OA
ATOM     18  O   UNL d   1      14.234  12.825  -0.015  0.00  0.00    -0.197 OA
ATOM     19  N   UNL d   1      14.866  11.846  -0.063  0.00  0.00    -0.043 N 
ENDBRANCH  13  16
ENDBRANCH   8  10
ENDBRANCH   4   7
BRANCH   1  20
ATOM     20  C   UNL d   1      14.653  18.114  -4.810  0.00  0.00     0.112 A 
ATOM     21  S   UNL d   1      15.249  18.701  -4.845  0.00  0.00    -0.047 SA
ATOM     22  C   UNL d   1      14.980  19.304  -5.351  0.00  0.00     0.130 A 
ATOM     23  N   UNL d   1      15.323  20.014  -5.595  0.00  0.00    -0.236 NA
ATOM     24  C   UNL d   1      14.223  19.093  -5.628  0.00  0.00     0.106 A 
ATOM     25  C   UNL d   1      14.917  20.515  -6.113  0.00  0.00     0.100 A 
ATOM     26  C   UNL d   1      14.156  20.300  -6.389  0.00  0.00     0.022 A 
ATOM     27  C   UNL d   1      13.817  19.591  -6.143  0.00  0.00     0.023 A 
ATOM     28  N   UNL d   1      14.029  18.350  -5.284  0.00  0.00    -0.237 NA
ENDBRANCH   1  20
TORSDOF 4
ENDMDL
MODEL 2
REMARK VINA RESULT:      71.6      1.912      6.618
REMARK  4 active torsions:
REMARK  status: ('A' for Active; 'I' for Inactive)
REMARK    1  A    between atoms: C_8  and  S_1 
REMARK    2  A    between atoms: C_2  and  C_10 
REMARK    3  A    between atoms: C_6  and  C_14 
REMARK       I    between atoms: N_9  and  C_6 
REMARK    4  A    between atoms: C_23  and  N_9 
ROOT
ATOM      1  C   UNL d   1      14.547  14.916  -2.349  0.00  0.00     0.024 A 
ATOM      2  C   UNL d   1      14.754  15.646  -2.048  0.00  0.00     0.004 A 
ATOM      3  C   UNL d   1      14.245  14.848  -3.111  0.00  0.00     0.004 A 
ATOM      4  C   UNL d   1      14.355  16.260  -3.278  0.00  0.00     0.085 A 
ATOM      5  C   UNL d   1      14.147  15.519  -3.580  0.00  0.00     0.019 A 
ATOM      6  C   UNL d   1      14.659  16.323  -2.511  0.00  0.00     0.019 A 
ENDROOT
BRANCH   4   7
ATOM      7  N   UNL d   1      14.260  16.940  -3.743  0.00  0.00    -0.208 NA
ATOM      8  C   UNL d   1      14.921  17.301  -4.074  0.00  0.00     0.279 C 
ATOM      9  O   UNL d   1      15.675  16.996  -3.950  0.00  0.00    -0.265 OA
BRANCH   8  10
ATOM     10  C   UNL d   1      14.827  17.974  -4.535  0.00  0.00     0.058 A 
ATOM     11  C   UNL d   1      15.484  18.332  -4.885  0.00  0.00     0.005 A 
ATOM     12  C   UNL d   1      15.391  19.002  -5.343  0.00  0.00     0.013 A 
ATOM     13  C   UNL d   1      14.628  19.329  -5.460  0.00  0.00     0.107 A 
ATOM     14  C   UNL d   1      13.970  18.975  -5.112  0.00  0.00     0.013 A 
ATOM     15  C   UNL d   1      14.066  18.295  -4.647  0.00  0.00     0.005 A 
BRANCH  13  16
ATOM     16  S   UNL d   1      14.533  20.009  -5.925  0.00  0.00     0.302 S 
ATOM     17  O   UNL d   1      13.721  19.895  -5.925  0.00  0.00    -0.197 OA
ATOM     18  O   UNL d   1      15.351  20.113  -5.919  0.00  0.00    -0.197 OA
ATOM     19  N   UNL d   1      14.448  20.683  -6.386  0.00  0.00    -0.043 N 
ENDBRANCH  13  16
ENDBRANCH   8  10
ENDBRANCH   4   7
BRANCH   1  20
ATOM     20  C   UNL d   1      14.644  14.240  -1.881  0.00  0.00     0.112 A 
ATOM     21  S   UNL d   1      14.655  13.452  -2.162  0.00  0.00    -0.047 SA
ATOM     22  C   UNL d   1      14.765  12.951  -1.506  0.00  0.00     0.130 A 
ATOM     23  N   UNL d   1      14.821  12.130  -1.441  0.00  0.00    -0.236 NA
ATOM     24  C   UNL d   1      14.821  13.425  -0.824  0.00  0.00     0.106 A 
ATOM     25  C   UNL d   1      14.932  11.779  -0.700  0.00  0.00     0.100 A 
ATOM     26  C   UNL d   1      14.988  12.259  -0.017  0.00  0.00     0.022 A 
ATOM     27  C   UNL d   1      14.932  13.077  -0.086  0.00  0.00     0.023 A 
ATOM     28  N   UNL d   1      14.744  14.227  -1.068  0.00  0.00    -0.237 NA
ENDBRANCH   1  20
TORSDOF 4
ENDMDL
