MODEL 1
REMARK VINA RESULT:      -6.8      0.000      0.000
REMARK  6 active torsions:
REMARK  status: ('A' for Active; 'I' for Inactive)
REMARK    1  A    between atoms: C_7  and  C_1 
REMARK    2  A    between atoms: C_10  and  C_2 
REMARK    3  A    between atoms: C_9  and  C_5 
REMARK    4  A    between atoms: O_15  and  C_7 
REMARK    5  A    between atoms: N_14  and  C_9 
REMARK    6  A    between atoms: C_21  and  O_15 
ROOT
ATOM      1  C   UNL d   1     -48.055  13.638  22.542  0.00  0.00     0.088 A 
ATOM      2  C   UNL d   1     -47.316  13.999  22.592  0.00  0.00     0.105 A 
ATOM      3  C   UNL d   1     -48.618  14.223  22.584  0.00  0.00     0.034 A 
ATOM      4  O   UNL d   1     -47.452  14.804  22.663  0.00  0.00    -0.307 OA
ATOM      5  C   UNL d   1     -49.447  14.197  22.563  0.00  0.00     0.059 A 
ATOM      6  C   UNL d   1     -48.262  14.949  22.659  0.00  0.00     0.100 A 
ATOM      7  C   UNL d   1     -49.893  14.870  22.615  0.00  0.00     0.197 A 
ATOM      8  C   UNL d   1     -48.691  15.638  22.713  0.00  0.00     0.028 A 
ATOM      9  C   UNL d   1     -49.516  15.609  22.692  0.00  0.00     0.044 A 
ATOM     10  O   UNL d   1     -50.724  14.840  22.594  0.00  0.00    -0.286 OA
ENDROOT
BRANCH   2  11
ATOM     11  C   UNL d   1     -46.589  13.617  22.573  0.00  0.00     0.023 A 
ATOM     12  C   UNL d   1     -46.224  13.468  21.839  0.00  0.00     0.002 A 
ATOM     13  C   UNL d   1     -45.486  13.080  21.807  0.00  0.00     0.000 A 
ATOM     14  C   UNL d   1     -45.129  12.850  22.517  0.00  0.00     0.000 A 
ATOM     15  C   UNL d   1     -45.491  12.999  23.238  0.00  0.00     0.000 A 
ATOM     16  C   UNL d   1     -46.217  13.380  23.267  0.00  0.00     0.002 A 
ENDBRANCH   2  11
BRANCH   1  17
ATOM     17  C   UNL d   1     -47.810  12.851  22.474  0.00  0.00     0.302 C 
ATOM     18  O   UNL d   1     -47.528  12.569  21.752  0.00  0.00    -0.259 OA
BRANCH  17  19
ATOM     19  O   UNL d   1     -47.842  12.343  23.117  0.00  0.00    -0.271 OA
BRANCH  19  20
ATOM     20  C   UNL d   1     -48.100  11.568  23.036  0.00  0.00     0.126 C 
ATOM     21  C   UNL d   1     -48.204  11.078  23.697  0.00  0.00     0.029 C 
ENDBRANCH  19  20
ENDBRANCH  17  19
ENDBRANCH   1  17
BRANCH   5  22
ATOM     22  C   UNL d   1     -49.833  13.467  22.486  0.00  0.00     0.084 C 
BRANCH  22  23
ATOM     23  N   UNL d   1     -50.657  13.424  22.473  0.00  0.00    -0.300 N 
ATOM     24  C   UNL d   1     -51.064  13.349  23.181  0.00  0.00     0.100 C 
ATOM     25  C   UNL d   1     -51.064  13.455  21.771  0.00  0.00     0.100 C 
ENDBRANCH  22  23
ENDBRANCH   5  22
TORSDOF 6
ENDMDL
MODEL 2
REMARK VINA RESULT:      -6.4      1.381      3.637
REMARK  6 active torsions:
REMARK  status: ('A' for Active; 'I' for Inactive)
REMARK    1  A    between atoms: C_7  and  C_1 
REMARK    2  A    between atoms: C_10  and  C_2 
REMARK    3  A    between atoms: C_9  and  C_5 
REMARK    4  A    between atoms: O_15  and  C_7 
REMARK    5  A    between atoms: N_14  and  C_9 
REMARK    6  A    between atoms: C_21  and  O_15 
ROOT
ATOM      1  C   UNL d   1     -48.561  13.823  22.903  0.00  0.00     0.088 A 
ATOM      2  C   UNL d   1     -48.767  14.621  22.940  0.00  0.00     0.105 A 
ATOM      3  C   UNL d   1     -47.749  13.780  22.886  0.00  0.00     0.034 A 
ATOM      4  O   UNL d   1     -48.066  15.044  22.944  0.00  0.00    -0.307 OA
ATOM      5  C   UNL d   1     -47.230  13.134  22.849  0.00  0.00     0.059 A 
ATOM      6  C   UNL d   1     -47.428  14.526  22.911  0.00  0.00     0.100 A 
ATOM      7  C   UNL d   1     -46.427  13.237  22.838  0.00  0.00     0.197 A 
ATOM      8  C   UNL d   1     -46.625  14.651  22.900  0.00  0.00     0.028 A 
ATOM      9  C   UNL d   1     -46.109  14.007  22.864  0.00  0.00     0.044 A 
ATOM     10  O   UNL d   1     -45.909  12.587  22.801  0.00  0.00    -0.286 OA
ENDROOT
BRANCH   2  11
ATOM     11  C   UNL d   1     -49.530  14.922  22.967  0.00  0.00     0.023 A 
ATOM     12  C   UNL d   1     -49.897  15.174  22.263  0.00  0.00     0.002 A 
ATOM     13  C   UNL d   1     -50.672  15.481  22.278  0.00  0.00     0.000 A 
ATOM     14  C   UNL d   1     -51.064  15.528  23.005  0.00  0.00     0.000 A 
ATOM     15  C   UNL d   1     -50.701  15.279  23.697  0.00  0.00     0.000 A 
ATOM     16  C   UNL d   1     -49.938  14.977  23.679  0.00  0.00     0.002 A 
ENDBRANCH   2  11
BRANCH   1  17
ATOM     17  C   UNL d   1     -49.320  13.494  22.904  0.00  0.00     0.302 C 
ATOM     18  O   UNL d   1     -49.748  13.453  23.607  0.00  0.00    -0.259 OA
BRANCH  17  19
ATOM     19  O   UNL d   1     -49.654  13.205  22.214  0.00  0.00    -0.271 OA
BRANCH  19  20
ATOM     20  C   UNL d   1     -50.037  12.479  22.196  0.00  0.00     0.126 C 
ATOM     21  C   UNL d   1     -50.375  12.188  21.496  0.00  0.00     0.029 C 
ENDBRANCH  19  20
ENDBRANCH  17  19
ENDBRANCH   1  17
BRANCH   5  22
ATOM     22  C   UNL d   1     -47.534  12.363  22.822  0.00  0.00     0.084 C 
BRANCH  22  23
ATOM     23  N   UNL d   1     -47.042  11.710  22.936  0.00  0.00    -0.300 N 
ATOM     24  C   UNL d   1     -46.842  11.245  22.292  0.00  0.00     0.100 C 
ATOM     25  C   UNL d   1     -46.758  11.527  23.674  0.00  0.00     0.100 C 
ENDBRANCH  22  23
ENDBRANCH   5  22
TORSDOF 6
ENDMDL
MODEL 3
REMARK VINA RESULT:      -6.2      7.902     10.019
REMARK  6 active torsions:
REMARK  status: ('A' for Active; 'I' for Inactive)
REMARK    1  A    between atoms: C_7  and  C_1 
REMARK    2  A    between atoms: C_10  and  C_2 
REMARK    3  A    between atoms: C_9  and  C_5 
REMARK    4  A    between atoms: O_15  and  C_7 
REMARK    5  A    between atoms: N_14  and  C_9 
REMARK    6  A    between atoms: C_21  and  O_15 
ROOT
ATOM      1  C   UNL d   1     -39.297  14.831  18.673  0.00  0.00     0.088 A 
ATOM      2  C   UNL d   1     -38.583  14.638  18.309  0.00  0.00     0.105 A 
ATOM      3  C   UNL d   1     -39.126  15.113  19.416  0.00  0.00     0.034 A 
ATOM      4  O   UNL d   1     -37.991  14.810  18.848  0.00  0.00    -0.307 OA
ATOM      5  C   UNL d   1     -39.612  15.389  20.029  0.00  0.00     0.059 A 
ATOM      6  C   UNL d   1     -38.323  15.106  19.540  0.00  0.00     0.100 A 
ATOM      7  C   UNL d   1     -39.301  15.645  20.731  0.00  0.00     0.197 A 
ATOM      8  C   UNL d   1     -37.991  15.359  20.237  0.00  0.00     0.028 A 
ATOM      9  C   UNL d   1     -38.476  15.634  20.847  0.00  0.00     0.044 A 
ATOM     10  O   UNL d   1     -39.791  15.922  21.344  0.00  0.00    -0.286 OA
ENDROOT
BRANCH   2  11
ATOM     11  C   UNL d   1     -38.494  14.332  17.552  0.00  0.00     0.023 A 
ATOM     12  C   UNL d   1     -38.307  14.844  16.922  0.00  0.00     0.002 A 
ATOM     13  C   UNL d   1     -38.214  14.546  16.149  0.00  0.00     0.000 A 
ATOM     14  C   UNL d   1     -38.313  13.734  16.025  0.00  0.00     0.000 A 
ATOM     15  C   UNL d   1     -38.497  13.231  16.646  0.00  0.00     0.000 A 
ATOM     16  C   UNL d   1     -38.587  13.528  17.406  0.00  0.00     0.002 A 
ENDBRANCH   2  11
BRANCH   1  17
ATOM     17  C   UNL d   1     -39.814  14.625  18.061  0.00  0.00     0.302 C 
ATOM     18  O   UNL d   1     -39.986  13.831  17.919  0.00  0.00    -0.259 OA
BRANCH  17  19
ATOM     19  O   UNL d   1     -40.161  15.200  17.590  0.00  0.00    -0.271 OA
BRANCH  19  20
ATOM     20  C   UNL d   1     -40.949  15.151  17.366  0.00  0.00     0.126 C 
ATOM     21  C   UNL d   1     -41.317  15.767  16.950  0.00  0.00     0.029 C 
ENDBRANCH  19  20
ENDBRANCH  17  19
ENDBRANCH   1  17
BRANCH   5  22
ATOM     22  C   UNL d   1     -40.434  15.405  19.926  0.00  0.00     0.084 C 
BRANCH  22  23
ATOM     23  N   UNL d   1     -40.943  15.285  20.565  0.00  0.00    -0.300 N 
ATOM     24  C   UNL d   1     -41.378  15.917  20.852  0.00  0.00     0.100 C 
ATOM     25  C   UNL d   1     -41.014  14.552  20.907  0.00  0.00     0.100 C 
ENDBRANCH  22  23
ENDBRANCH   5  22
TORSDOF 6
ENDMDL
MODEL 4
REMARK VINA RESULT:      -5.8      7.782      9.791
REMARK  6 active torsions:
REMARK  status: ('A' for Active; 'I' for Inactive)
REMARK    1  A    between atoms: C_7  and  C_1 
REMARK    2  A    between atoms: C_10  and  C_2 
REMARK    3  A    between atoms: C_9  and  C_5 
REMARK    4  A    between atoms: O_15  and  C_7 
REMARK    5  A    between atoms: N_14  and  C_9 
REMARK    6  A    between atoms: C_21  and  O_15 
ROOT
ATOM      1  C   UNL d   1     -39.393  14.690  19.558  0.00  0.00     0.088 A 
ATOM      2  C   UNL d   1     -38.910  14.279  20.086  0.00  0.00     0.105 A 
ATOM      3  C   UNL d   1     -39.340  14.318  18.837  0.00  0.00     0.034 A 
ATOM      4  O   UNL d   1     -38.575  13.662  19.665  0.00  0.00    -0.307 OA
ATOM      5  C   UNL d   1     -39.696  14.477  18.105  0.00  0.00     0.059 A 
ATOM      6  C   UNL d   1     -38.839  13.681  18.887  0.00  0.00     0.100 A 
ATOM      7  C   UNL d   1     -39.552  14.015  17.456  0.00  0.00     0.197 A 
ATOM      8  C   UNL d   1     -38.681  13.204  18.247  0.00  0.00     0.028 A 
ATOM      9  C   UNL d   1     -39.036  13.364  17.518  0.00  0.00     0.044 A 
ATOM     10  O   UNL d   1     -39.910  14.177  16.723  0.00  0.00    -0.286 OA
ENDROOT
BRANCH   2  11
ATOM     11  C   UNL d   1     -38.796  14.463  20.878  0.00  0.00     0.023 A 
ATOM     12  C   UNL d   1     -38.233  15.039  21.089  0.00  0.00     0.002 A 
ATOM     13  C   UNL d   1     -38.108  15.233  21.890  0.00  0.00     0.000 A 
ATOM     14  C   UNL d   1     -38.555  14.842  22.466  0.00  0.00     0.000 A 
ATOM     15  C   UNL d   1     -39.110  14.275  22.256  0.00  0.00     0.000 A 
ATOM     16  C   UNL d   1     -39.230  14.086  21.466  0.00  0.00     0.002 A 
ENDBRANCH   2  11
BRANCH   1  17
ATOM     17  C   UNL d   1     -39.675  15.276  20.069  0.00  0.00     0.302 C 
ATOM     18  O   UNL d   1     -39.183  15.899  20.290  0.00  0.00    -0.259 OA
BRANCH  17  19
ATOM     19  O   UNL d   1     -40.440  15.246  20.362  0.00  0.00    -0.271 OA
BRANCH  19  20
ATOM     20  C   UNL d   1     -40.903  15.922  20.416  0.00  0.00     0.126 C 
ATOM     21  C   UNL d   1     -41.679  15.890  20.707  0.00  0.00     0.029 C 
ENDBRANCH  19  20
ENDBRANCH  17  19
ENDBRANCH   1  17
BRANCH   5  22
ATOM     22  C   UNL d   1     -40.211  15.122  18.030  0.00  0.00     0.084 C 
BRANCH  22  23
ATOM     23  N   UNL d   1     -40.320  15.494  17.301  0.00  0.00    -0.300 N 
ATOM     24  C   UNL d   1     -41.044  15.425  16.923  0.00  0.00     0.100 C 
ATOM     25  C   UNL d   1     -39.721  15.922  16.958  0.00  0.00     0.100 C 
ENDBRANCH  22  23
ENDBRANCH   5  22
TORSDOF 6
ENDMDL
MODEL 5
REMARK VINA RESULT:      -5.7      8.618     10.030
REMARK  6 active torsions:
REMARK  status: ('A' for Active; 'I' for Inactive)
REMARK    1  A    between atoms: C_7  and  C_1 
REMARK    2  A    between atoms: C_10  and  C_2 
REMARK    3  A    between atoms: C_9  and  C_5 
REMARK    4  A    between atoms: O_15  and  C_7 
REMARK    5  A    between atoms: N_14  and  C_9 
REMARK    6  A    between atoms: C_21  and  O_15 
ROOT
ATOM      1  C   UNL d   1     -39.586  15.160  18.913  0.00  0.00     0.088 A 
ATOM      2  C   UNL d   1     -40.117  15.399  19.497  0.00  0.00     0.105 A 
ATOM      3  C   UNL d   1     -39.930  15.310  18.192  0.00  0.00     0.034 A 
ATOM      4  O   UNL d   1     -40.777  15.690  19.109  0.00  0.00    -0.307 OA
ATOM      5  C   UNL d   1     -39.664  15.189  17.415  0.00  0.00     0.059 A 
ATOM      6  C   UNL d   1     -40.666  15.638  18.295  0.00  0.00     0.100 A 
ATOM      7  C   UNL d   1     -40.119  15.389  16.776  0.00  0.00     0.197 A 
ATOM      8  C   UNL d   1     -41.139  15.846  17.668  0.00  0.00     0.028 A 
ATOM      9  C   UNL d   1     -40.872  15.724  16.895  0.00  0.00     0.044 A 
ATOM     10  O   UNL d   1     -39.849  15.266  15.999  0.00  0.00    -0.286 OA
ENDROOT
BRANCH   2  11
ATOM     11  C   UNL d   1     -39.998  15.349  20.308  0.00  0.00     0.023 A 
ATOM     12  C   UNL d   1     -40.325  14.711  20.732  0.00  0.00     0.002 A 
ATOM     13  C   UNL d   1     -40.211  14.649  21.556  0.00  0.00     0.000 A 
ATOM     14  C   UNL d   1     -39.767  15.234  21.937  0.00  0.00     0.000 A 
ATOM     15  C   UNL d   1     -39.446  15.861  21.518  0.00  0.00     0.000 A 
ATOM     16  C   UNL d   1     -39.560  15.919  20.707  0.00  0.00     0.002 A 
ENDBRANCH   2  11
BRANCH   1  17
ATOM     17  C   UNL d   1     -38.973  14.890  19.398  0.00  0.00     0.302 C 
ATOM     18  O   UNL d   1     -38.489  15.432  19.788  0.00  0.00    -0.259 OA
BRANCH  17  19
ATOM     19  O   UNL d   1     -38.838  14.088  19.500  0.00  0.00    -0.271 OA
BRANCH  19  20
ATOM     20  C   UNL d   1     -38.077  13.783  19.533  0.00  0.00     0.126 C 
ATOM     21  C   UNL d   1     -37.942  12.974  19.650  0.00  0.00     0.029 C 
ENDBRANCH  19  20
ENDBRANCH  17  19
ENDBRANCH   1  17
BRANCH   5  22
ATOM     22  C   UNL d   1     -38.916  14.856  17.285  0.00  0.00     0.084 C 
BRANCH  22  23
ATOM     23  N   UNL d   1     -38.525  14.964  16.565  0.00  0.00    -0.300 N 
ATOM     24  C   UNL d   1     -38.508  14.348  16.025  0.00  0.00     0.100 C 
ATOM     25  C   UNL d   1     -38.161  15.669  16.391  0.00  0.00     0.100 C 
ENDBRANCH  22  23
ENDBRANCH   5  22
TORSDOF 6
ENDMDL
MODEL 6
REMARK VINA RESULT:      -5.6      8.280     10.578
REMARK  6 active torsions:
REMARK  status: ('A' for Active; 'I' for Inactive)
REMARK    1  A    between atoms: C_7  and  C_1 
REMARK    2  A    between atoms: C_10  and  C_2 
REMARK    3  A    between atoms: C_9  and  C_5 
REMARK    4  A    between atoms: O_15  and  C_7 
REMARK    5  A    between atoms: N_14  and  C_9 
REMARK    6  A    between atoms: C_21  and  O_15 
ROOT
ATOM      1  C   UNL d   1     -39.454  14.568  18.225  0.00  0.00     0.088 A 
ATOM      2  C   UNL d   1     -39.492  14.313  19.008  0.00  0.00     0.105 A 
ATOM      3  C   UNL d   1     -38.965  14.059  17.824  0.00  0.00     0.034 A 
ATOM      4  O   UNL d   1     -39.018  13.647  19.060  0.00  0.00    -0.307 OA
ATOM      5  C   UNL d   1     -38.719  14.035  17.031  0.00  0.00     0.059 A 
ATOM      6  C   UNL d   1     -38.686  13.484  18.326  0.00  0.00     0.100 A 
ATOM      7  C   UNL d   1     -38.219  13.459  16.761  0.00  0.00     0.197 A 
ATOM      8  C   UNL d   1     -38.183  12.897  18.074  0.00  0.00     0.028 A 
ATOM      9  C   UNL d   1     -37.940  12.875  17.285  0.00  0.00     0.044 A 
ATOM     10  O   UNL d   1     -37.975  13.438  15.966  0.00  0.00    -0.286 OA
ENDROOT
BRANCH   2  11
ATOM     11  C   UNL d   1     -39.924  14.665  19.611  0.00  0.00     0.023 A 
ATOM     12  C   UNL d   1     -40.654  14.336  19.838  0.00  0.00     0.002 A 
ATOM     13  C   UNL d   1     -41.102  14.685  20.449  0.00  0.00     0.000 A 
ATOM     14  C   UNL d   1     -40.805  15.362  20.820  0.00  0.00     0.000 A 
ATOM     15  C   UNL d   1     -40.085  15.685  20.594  0.00  0.00     0.000 A 
ATOM     16  C   UNL d   1     -39.646  15.339  19.992  0.00  0.00     0.002 A 
ENDBRANCH   2  11
BRANCH   1  17
ATOM     17  C   UNL d   1     -39.953  15.226  18.279  0.00  0.00     0.302 C 
ATOM     18  O   UNL d   1     -39.711  15.891  18.703  0.00  0.00    -0.259 OA
BRANCH  17  19
ATOM     19  O   UNL d   1     -40.689  15.228  17.918  0.00  0.00    -0.271 OA
BRANCH  19  20
ATOM     20  C   UNL d   1     -41.022  15.921  17.630  0.00  0.00     0.126 C 
ATOM     21  C   UNL d   1     -41.761  15.919  17.253  0.00  0.00     0.029 C 
ENDBRANCH  19  20
ENDBRANCH  17  19
ENDBRANCH   1  17
BRANCH   5  22
ATOM     22  C   UNL d   1     -38.990  14.611  16.500  0.00  0.00     0.084 C 
BRANCH  22  23
ATOM     23  N   UNL d   1     -38.507  14.882  15.888  0.00  0.00    -0.300 N 
ATOM     24  C   UNL d   1     -38.607  14.573  15.135  0.00  0.00     0.100 C 
ATOM     25  C   UNL d   1     -37.940  15.446  16.024  0.00  0.00     0.100 C 
ENDBRANCH  22  23
ENDBRANCH   5  22
TORSDOF 6
ENDMDL
MODEL 7
REMARK VINA RESULT:      -5.6      8.214      9.804
REMARK  6 active torsions:
REMARK  status: ('A' for Active; 'I' for Inactive)
REMARK    1  A    between atoms: C_7  and  C_1 
REMARK    2  A    between atoms: C_10  and  C_2 
REMARK    3  A    between atoms: C_9  and  C_5 
REMARK    4  A    between atoms: O_15  and  C_7 
REMARK    5  A    between atoms: N_14  and  C_9 
REMARK    6  A    between atoms: C_21  and  O_15 
ROOT
ATOM      1  C   UNL d   1     -39.621  14.726  19.194  0.00  0.00     0.088 A 
ATOM      2  C   UNL d   1     -40.151  15.145  18.721  0.00  0.00     0.105 A 
ATOM      3  C   UNL d   1     -39.880  14.782  19.962  0.00  0.00     0.034 A 
ATOM      4  O   UNL d   1     -40.723  15.448  19.223  0.00  0.00    -0.307 OA
ATOM      5  C   UNL d   1     -39.577  14.476  20.672  0.00  0.00     0.059 A 
ATOM      6  C   UNL d   1     -40.560  15.224  19.998  0.00  0.00     0.100 A 
ATOM      7  C   UNL d   1     -39.944  14.612  21.381  0.00  0.00     0.197 A 
ATOM      8  C   UNL d   1     -40.943  15.372  20.699  0.00  0.00     0.028 A 
ATOM      9  C   UNL d   1     -40.641  15.068  21.405  0.00  0.00     0.044 A 
ATOM     10  O   UNL d   1     -39.638  14.304  22.091  0.00  0.00    -0.286 OA
ENDROOT
BRANCH   2  11
ATOM     11  C   UNL d   1     -40.104  15.236  17.907  0.00  0.00     0.023 A 
ATOM     12  C   UNL d   1     -39.600  15.817  17.587  0.00  0.00     0.002 A 
ATOM     13  C   UNL d   1     -39.544  15.919  16.761  0.00  0.00     0.000 A 
ATOM     14  C   UNL d   1     -39.999  15.431  16.272  0.00  0.00     0.000 A 
ATOM     15  C   UNL d   1     -40.494  14.859  16.589  0.00  0.00     0.000 A 
ATOM     16  C   UNL d   1     -40.547  14.762  17.402  0.00  0.00     0.002 A 
ENDBRANCH   2  11
BRANCH   1  17
ATOM     17  C   UNL d   1     -39.099  14.469  18.606  0.00  0.00     0.302 C 
ATOM     18  O   UNL d   1     -38.571  15.003  18.265  0.00  0.00    -0.259 OA
BRANCH  17  19
ATOM     19  O   UNL d   1     -39.097  13.689  18.354  0.00  0.00    -0.271 OA
BRANCH  19  20
ATOM     20  C   UNL d   1     -38.396  13.295  18.190  0.00  0.00     0.126 C 
ATOM     21  C   UNL d   1     -38.396  12.506  17.934  0.00  0.00     0.029 C 
ENDBRANCH  19  20
ENDBRANCH  17  19
ENDBRANCH   1  17
BRANCH   5  22
ATOM     22  C   UNL d   1     -38.884  14.021  20.661  0.00  0.00     0.084 C 
BRANCH  22  23
ATOM     23  N   UNL d   1     -38.380  14.003  21.315  0.00  0.00    -0.300 N 
ATOM     24  C   UNL d   1     -38.323  13.314  21.754  0.00  0.00     0.100 C 
ATOM     25  C   UNL d   1     -37.945  14.656  21.523  0.00  0.00     0.100 C 
ENDBRANCH  22  23
ENDBRANCH   5  22
TORSDOF 6
ENDMDL
MODEL 8
REMARK VINA RESULT:      -4.0      8.932     10.384
REMARK  6 active torsions:
REMARK  status: ('A' for Active; 'I' for Inactive)
REMARK    1  A    between atoms: C_7  and  C_1 
REMARK    2  A    between atoms: C_10  and  C_2 
REMARK    3  A    between atoms: C_9  and  C_5 
REMARK    4  A    between atoms: O_15  and  C_7 
REMARK    5  A    between atoms: N_14  and  C_9 
REMARK    6  A    between atoms: C_21  and  O_15 
ROOT
ATOM      1  C   UNL d   1     -38.593  14.232  20.088  0.00  0.00     0.088 A 
ATOM      2  C   UNL d   1     -38.369  13.650  19.548  0.00  0.00     0.105 A 
ATOM      3  C   UNL d   1     -38.448  13.942  20.834  0.00  0.00     0.034 A 
ATOM      4  O   UNL d   1     -38.092  13.017  19.986  0.00  0.00    -0.307 OA
ATOM      5  C   UNL d   1     -38.560  14.271  21.587  0.00  0.00     0.059 A 
ATOM      6  C   UNL d   1     -38.139  13.192  20.789  0.00  0.00     0.100 A 
ATOM      7  C   UNL d   1     -38.369  13.864  22.260  0.00  0.00     0.197 A 
ATOM      8  C   UNL d   1     -37.940  12.766  21.451  0.00  0.00     0.028 A 
ATOM      9  C   UNL d   1     -38.052  13.095  22.201  0.00  0.00     0.044 A 
ATOM     10  O   UNL d   1     -38.482  14.197  23.014  0.00  0.00    -0.286 OA
ENDROOT
BRANCH   2  11
ATOM     11  C   UNL d   1     -38.419  13.707  18.730  0.00  0.00     0.023 A 
ATOM     12  C   UNL d   1     -37.940  14.255  18.327  0.00  0.00     0.002 A 
ATOM     13  C   UNL d   1     -37.982  14.322  17.496  0.00  0.00     0.000 A 
ATOM     14  C   UNL d   1     -38.508  13.832  17.087  0.00  0.00     0.000 A 
ATOM     15  C   UNL d   1     -38.980  13.292  17.487  0.00  0.00     0.000 A 
ATOM     16  C   UNL d   1     -38.936  13.229  18.304  0.00  0.00     0.002 A 
ENDBRANCH   2  11
BRANCH   1  17
ATOM     17  C   UNL d   1     -38.851  14.811  19.557  0.00  0.00     0.302 C 
ATOM     18  O   UNL d   1     -38.298  15.264  19.144  0.00  0.00    -0.259 OA
BRANCH  17  19
ATOM     19  O   UNL d   1     -39.650  14.942  19.432  0.00  0.00    -0.271 OA
BRANCH  19  20
ATOM     20  C   UNL d   1     -39.946  15.700  19.319  0.00  0.00     0.126 C 
ATOM     21  C   UNL d   1     -40.758  15.835  19.223  0.00  0.00     0.029 C 
ENDBRANCH  19  20
ENDBRANCH  17  19
ENDBRANCH   1  17
BRANCH   5  22
ATOM     22  C   UNL d   1     -38.875  15.035  21.659  0.00  0.00     0.084 C 
BRANCH  22  23
ATOM     23  N   UNL d   1     -38.746  15.483  22.340  0.00  0.00    -0.300 N 
ATOM     24  C   UNL d   1     -39.343  15.540  22.899  0.00  0.00     0.100 C 
ATOM     25  C   UNL d   1     -38.039  15.864  22.460  0.00  0.00     0.100 C 
ENDBRANCH  22  23
ENDBRANCH   5  22
TORSDOF 6
ENDMDL
