MODEL 1
REMARK VINA RESULT:       0.5      0.000      0.000
REMARK  6 active torsions:
REMARK  status: ('A' for Active; 'I' for Inactive)
REMARK    1  A    between atoms: N_5  and  S_1 
REMARK    2  A    between atoms: C_8  and  S_1 
REMARK    3  A    between atoms: C_2  and  C_14 
REMARK    4  A    between atoms: C_7  and  N_5 
REMARK    5  A    between atoms: C_6  and  C_7 
REMARK       I    between atoms: N_11  and  C_6 
REMARK    6  A    between atoms: C_19  and  N_11 
ROOT
ATOM      1  C   UNL d   1     -41.963-123.383 -50.758  0.00  0.00     0.298 C 
ATOM      2  N   UNL d   1     -41.350-123.063 -51.186  0.00  0.00    -0.207 NA
ATOM      3  O   UNL d   1     -42.699-123.516 -51.114  0.00  0.00    -0.264 OA
ENDROOT
BRANCH   2   4
ATOM      4  C   UNL d   1     -41.460-122.870 -51.981  0.00  0.00     0.085 A 
ATOM      5  C   UNL d   1     -41.852-122.173 -52.175  0.00  0.00     0.019 A 
ATOM      6  C   UNL d   1     -41.970-121.964 -52.973  0.00  0.00     0.004 A 
ATOM      7  C   UNL d   1     -41.694-122.457 -53.571  0.00  0.00     0.024 A 
ATOM      8  C   UNL d   1     -41.301-123.156 -53.378  0.00  0.00     0.004 A 
ATOM      9  C   UNL d   1     -41.180-123.368 -52.589  0.00  0.00     0.019 A 
BRANCH   7  10
ATOM     10  C   UNL d   1     -41.819-122.238 -54.363  0.00  0.00     0.111 A 
ATOM     11  N   UNL d   1     -42.503-122.426 -54.775  0.00  0.00    -0.239 NA
ATOM     12  C   UNL d   1     -42.438-122.123 -55.541  0.00  0.00     0.088 A 
ATOM     13  C   UNL d   1     -42.945-122.141 -56.189  0.00  0.00     0.020 A 
ATOM     14  C   UNL d   1     -41.707-121.746 -55.600  0.00  0.00     0.049 A 
ATOM     15  C   UNL d   1     -42.722-121.783 -56.896  0.00  0.00     0.002 A 
ATOM     16  C   UNL d   1     -41.990-121.405 -56.954  0.00  0.00     0.001 A 
ATOM     17  C   UNL d   1     -41.482-121.387 -56.306  0.00  0.00     0.008 A 
ATOM     18  S   UNL d   1     -41.324-121.817 -54.869  0.00  0.00    -0.066 SA
ENDBRANCH   7  10
ENDBRANCH   2   4
BRANCH   1  19
ATOM     19  C   UNL d   1     -41.860-123.579 -49.963  0.00  0.00     0.151 C 
ATOM     20  C   UNL d   1     -41.123-123.809 -49.677  0.00  0.00     0.027 C 
BRANCH  19  21
ATOM     21  N   UNL d   1     -42.339-123.617 -49.283  0.00  0.00    -0.153 NA
BRANCH  21  22
ATOM     22  S   UNL d   1     -42.817-122.978 -49.086  0.00  0.00     0.285 S 
ATOM     23  O   UNL d   1     -42.955-122.843 -49.873  0.00  0.00    -0.198 OA
ATOM     24  O   UNL d   1     -43.290-122.345 -48.892  0.00  0.00    -0.198 OA
BRANCH  22  25
ATOM     25  C   UNL d   1     -42.669-123.124 -48.283  0.00  0.00     0.106 A 
ATOM     26  C   UNL d   1     -42.055-122.733 -47.892  0.00  0.00     0.024 A 
ATOM     27  C   UNL d   1     -41.917-122.889 -47.080  0.00  0.00     0.059 A 
ATOM     28 CL   UNL d   1     -41.300-122.495 -46.690  0.00  0.00    -0.082 Cl
ATOM     29  C   UNL d   1     -42.389-123.429 -46.676  0.00  0.00     0.011 A 
ATOM     30  C   UNL d   1     -43.001-123.817 -47.067  0.00  0.00     0.002 A 
ATOM     31  C   UNL d   1     -43.139-123.661 -47.879  0.00  0.00     0.013 A 
ENDBRANCH  22  25
ENDBRANCH  21  22
ENDBRANCH  19  21
ENDBRANCH   1  19
TORSDOF 6
ENDMDL
