MODEL 1
REMARK VINA RESULT:      -7.8      0.000      0.000
REMARK  4 active torsions:
REMARK  status: ('A' for Active; 'I' for Inactive)
REMARK    1  A    between atoms: N_2  and  C_1 
REMARK       I    between atoms: C_6  and  N_2 
REMARK    2  A    between atoms: C_16  and  N_3 
REMARK    3  A    between atoms: C_8  and  C_6 
REMARK    4  A    between atoms: O_19  and  C_12 
ROOT
ATOM      1  C   UNL d   1     -48.488  11.807  23.345  0.00  0.00    -0.031 C 
ATOM      2  C   UNL d   1     -49.055  11.306  22.991  0.00  0.00    -0.008 C 
ATOM      3  C   UNL d   1     -47.927  12.302  23.698  0.00  0.00     0.133 C 
ENDROOT
BRANCH   3   4
ATOM      4  N   UNL d   1     -47.539  12.888  23.238  0.00  0.00    -0.276 N 
ATOM      5  C   UNL d   1     -47.868  13.597  22.954  0.00  0.00     0.183 A 
ATOM      6  S   UNL d   1     -47.307  13.995  22.541  0.00  0.00    -0.048 SA
ATOM      7  C   UNL d   1     -46.604  13.556  22.547  0.00  0.00     0.050 A 
ATOM      8  C   UNL d   1     -45.873  13.688  22.223  0.00  0.00     0.008 A 
ATOM      9  C   UNL d   1     -46.761  12.871  22.983  0.00  0.00     0.095 A 
ATOM     10  C   UNL d   1     -45.262  13.138  22.323  0.00  0.00     0.003 A 
ATOM     11  C   UNL d   1     -45.419  12.438  22.768  0.00  0.00     0.026 A 
ATOM     12  C   UNL d   1     -46.155  12.320  23.084  0.00  0.00     0.111 A 
BRANCH   5  13
ATOM     13  N   UNL d   1     -48.665  13.865  23.076  0.00  0.00    -0.183 NA
ATOM     14  C   UNL d   1     -48.835  14.663  23.011  0.00  0.00     0.287 C 
ATOM     15  O   UNL d   1     -48.244  15.211  22.828  0.00  0.00    -0.265 OA
BRANCH  14  16
ATOM     16  C   UNL d   1     -49.609  14.922  23.129  0.00  0.00     0.087 A 
ATOM     17  S   UNL d   1     -50.295  14.668  22.714  0.00  0.00    -0.082 SA
ATOM     18  C   UNL d   1     -50.941  15.069  23.011  0.00  0.00     0.036 A 
ATOM     19  C   UNL d   1     -50.679  15.572  23.606  0.00  0.00     0.008 A 
ATOM     20  C   UNL d   1     -49.867  15.482  23.677  0.00  0.00     0.012 A 
ENDBRANCH  14  16
ENDBRANCH   5  13
BRANCH  12  21
ATOM     21  O   UNL d   1     -46.298  11.619  23.525  0.00  0.00    -0.327 OA
ATOM     22  C   UNL d   1     -45.682  11.080  23.645  0.00  0.00     0.181 C 
ENDBRANCH  12  21
ENDBRANCH   3   4
TORSDOF 4
ENDMDL
MODEL 2
REMARK VINA RESULT:      -6.8      1.308      4.032
REMARK  4 active torsions:
REMARK  status: ('A' for Active; 'I' for Inactive)
REMARK    1  A    between atoms: N_2  and  C_1 
REMARK       I    between atoms: C_6  and  N_2 
REMARK    2  A    between atoms: C_16  and  N_3 
REMARK    3  A    between atoms: C_8  and  C_6 
REMARK    4  A    between atoms: O_19  and  C_12 
ROOT
ATOM      1  C   UNL d   1     -49.539  11.940  22.899  0.00  0.00    -0.031 C 
ATOM      2  C   UNL d   1     -49.849  11.437  23.490  0.00  0.00    -0.008 C 
ATOM      3  C   UNL d   1     -49.234  12.437  22.312  0.00  0.00     0.133 C 
ENDROOT
BRANCH   3   4
ATOM      4  N   UNL d   1     -48.805  13.125  22.529  0.00  0.00    -0.276 N 
ATOM      5  C   UNL d   1     -48.032  13.156  22.834  0.00  0.00     0.183 A 
ATOM      6  S   UNL d   1     -47.836  13.922  22.966  0.00  0.00    -0.048 SA
ATOM      7  C   UNL d   1     -48.474  14.406  22.750  0.00  0.00     0.050 A 
ATOM      8  C   UNL d   1     -48.582  15.209  22.765  0.00  0.00     0.008 A 
ATOM      9  C   UNL d   1     -49.069  13.899  22.481  0.00  0.00     0.095 A 
ATOM     10  C   UNL d   1     -49.296  15.542  22.510  0.00  0.00     0.003 A 
ATOM     11  C   UNL d   1     -49.905  15.028  22.234  0.00  0.00     0.026 A 
ATOM     12  C   UNL d   1     -49.782  14.228  22.225  0.00  0.00     0.111 A 
BRANCH   5  13
ATOM     13  N   UNL d   1     -47.525  12.491  22.985  0.00  0.00    -0.183 NA
ATOM     14  C   UNL d   1     -46.724  12.612  23.098  0.00  0.00     0.287 C 
ATOM     15  O   UNL d   1     -46.402  13.373  23.068  0.00  0.00    -0.265 OA
BRANCH  14  16
ATOM     16  C   UNL d   1     -46.233  11.966  23.244  0.00  0.00     0.087 A 
ATOM     17  S   UNL d   1     -45.450  11.854  22.961  0.00  0.00    -0.082 SA
ATOM     18  C   UNL d   1     -45.173  11.139  23.241  0.00  0.00     0.036 A 
ATOM     19  C   UNL d   1     -45.764  10.796  23.696  0.00  0.00     0.008 A 
ATOM     20  C   UNL d   1     -46.410  11.300  23.698  0.00  0.00     0.012 A 
ENDBRANCH  14  16
ENDBRANCH   5  13
BRANCH  12  21
ATOM     21  O   UNL d   1     -50.397  13.727  21.948  0.00  0.00    -0.327 OA
ATOM     22  C   UNL d   1     -51.059  14.060  21.582  0.00  0.00     0.181 C 
ENDBRANCH  12  21
ENDBRANCH   3   4
TORSDOF 4
ENDMDL
MODEL 3
REMARK VINA RESULT:      -6.0      8.100     10.033
REMARK  4 active torsions:
REMARK  status: ('A' for Active; 'I' for Inactive)
REMARK    1  A    between atoms: N_2  and  C_1 
REMARK       I    between atoms: C_6  and  N_2 
REMARK    2  A    between atoms: C_16  and  N_3 
REMARK    3  A    between atoms: C_8  and  C_6 
REMARK    4  A    between atoms: O_19  and  C_12 
ROOT
ATOM      1  C   UNL d   1     -40.316  15.756  17.097  0.00  0.00    -0.031 C 
ATOM      2  C   UNL d   1     -41.096  15.920  16.846  0.00  0.00    -0.008 C 
ATOM      3  C   UNL d   1     -39.544  15.595  17.346  0.00  0.00     0.133 C 
ENDROOT
BRANCH   3   4
ATOM      4  N   UNL d   1     -39.352  14.838  17.652  0.00  0.00    -0.276 N 
ATOM      5  C   UNL d   1     -39.561  14.533  18.397  0.00  0.00     0.183 A 
ATOM      6  S   UNL d   1     -39.267  13.790  18.466  0.00  0.00    -0.048 SA
ATOM      7  C   UNL d   1     -38.862  13.595  17.769  0.00  0.00     0.050 A 
ATOM      8  C   UNL d   1     -38.463  12.929  17.537  0.00  0.00     0.008 A 
ATOM      9  C   UNL d   1     -38.922  14.253  17.273  0.00  0.00     0.095 A 
ATOM     10  C   UNL d   1     -38.104  12.892  16.791  0.00  0.00     0.003 A 
ATOM     11  C   UNL d   1     -38.163  13.562  16.281  0.00  0.00     0.026 A 
ATOM     12  C   UNL d   1     -38.565  14.220  16.529  0.00  0.00     0.111 A 
BRANCH   5  13
ATOM     13  N   UNL d   1     -40.012  14.935  18.995  0.00  0.00    -0.183 NA
ATOM     14  C   UNL d   1     -39.841  14.805  19.784  0.00  0.00     0.287 C 
ATOM     15  O   UNL d   1     -39.236  14.287  20.008  0.00  0.00    -0.265 OA
BRANCH  14  16
ATOM     16  C   UNL d   1     -40.279  15.195  20.364  0.00  0.00     0.087 A 
ATOM     17  S   UNL d   1     -39.977  15.630  21.016  0.00  0.00    -0.082 SA
ATOM     18  C   UNL d   1     -40.606  15.922  21.447  0.00  0.00     0.036 A 
ATOM     19  C   UNL d   1     -41.300  15.682  21.080  0.00  0.00     0.008 A 
ATOM     20  C   UNL d   1     -41.101  15.239  20.420  0.00  0.00     0.012 A 
ENDBRANCH  14  16
ENDBRANCH   5  13
BRANCH  12  21
ATOM     21  O   UNL d   1     -38.617  14.881  16.011  0.00  0.00    -0.327 OA
ATOM     22  C   UNL d   1     -38.159  14.895  15.323  0.00  0.00     0.181 C 
ENDBRANCH  12  21
ENDBRANCH   3   4
TORSDOF 4
ENDMDL
MODEL 4
REMARK VINA RESULT:      -5.8      8.053      9.440
REMARK  4 active torsions:
REMARK  status: ('A' for Active; 'I' for Inactive)
REMARK    1  A    between atoms: N_2  and  C_1 
REMARK       I    between atoms: C_6  and  N_2 
REMARK    2  A    between atoms: C_16  and  N_3 
REMARK    3  A    between atoms: C_8  and  C_6 
REMARK    4  A    between atoms: O_19  and  C_12 
ROOT
ATOM      1  C   UNL d   1     -40.662  15.882  21.011  0.00  0.00    -0.031 C 
ATOM      2  C   UNL d   1     -41.496  15.922  21.036  0.00  0.00    -0.008 C 
ATOM      3  C   UNL d   1     -39.836  15.845  20.987  0.00  0.00     0.133 C 
ENDROOT
BRANCH   3   4
ATOM      4  N   UNL d   1     -39.456  15.126  20.778  0.00  0.00    -0.276 N 
ATOM      5  C   UNL d   1     -39.456  14.760  20.031  0.00  0.00     0.183 A 
ATOM      6  S   UNL d   1     -39.027  14.084  20.074  0.00  0.00    -0.048 SA
ATOM      7  C   UNL d   1     -38.740  13.994  20.848  0.00  0.00     0.050 A 
ATOM      8  C   UNL d   1     -38.284  13.424  21.199  0.00  0.00     0.008 A 
ATOM      9  C   UNL d   1     -39.013  14.647  21.274  0.00  0.00     0.095 A 
ATOM     10  C   UNL d   1     -38.080  13.483  22.000  0.00  0.00     0.003 A 
ATOM     11  C   UNL d   1     -38.357  14.148  22.439  0.00  0.00     0.026 A 
ATOM     12  C   UNL d   1     -38.812  14.709  22.072  0.00  0.00     0.111 A 
BRANCH   5  13
ATOM     13  N   UNL d   1     -39.842  15.047  19.332  0.00  0.00    -0.183 NA
ATOM     14  C   UNL d   1     -39.552  14.838  18.596  0.00  0.00     0.287 C 
ATOM     15  O   UNL d   1     -38.887  14.351  18.525  0.00  0.00    -0.265 OA
BRANCH  14  16
ATOM     16  C   UNL d   1     -39.928  15.117  17.917  0.00  0.00     0.087 A 
ATOM     17  S   UNL d   1     -39.668  15.742  17.418  0.00  0.00    -0.082 SA
ATOM     18  C   UNL d   1     -40.208  15.831  16.813  0.00  0.00     0.036 A 
ATOM     19  C   UNL d   1     -40.805  15.277  16.918  0.00  0.00     0.008 A 
ATOM     20  C   UNL d   1     -40.634  14.841  17.591  0.00  0.00     0.012 A 
ENDBRANCH  14  16
ENDBRANCH   5  13
BRANCH  12  21
ATOM     21  O   UNL d   1     -39.082  15.368  22.521  0.00  0.00    -0.327 OA
ATOM     22  C   UNL d   1     -38.770  15.501  23.275  0.00  0.00     0.181 C 
ENDBRANCH  12  21
ENDBRANCH   3   4
TORSDOF 4
ENDMDL
MODEL 5
REMARK VINA RESULT:      -5.7      8.808      9.971
REMARK  4 active torsions:
REMARK  status: ('A' for Active; 'I' for Inactive)
REMARK    1  A    between atoms: N_2  and  C_1 
REMARK       I    between atoms: C_6  and  N_2 
REMARK    2  A    between atoms: C_16  and  N_3 
REMARK    3  A    between atoms: C_8  and  C_6 
REMARK    4  A    between atoms: O_19  and  C_12 
ROOT
ATOM      1  C   UNL d   1     -38.128  13.409  18.466  0.00  0.00    -0.031 C 
ATOM      2  C   UNL d   1     -37.940  12.597  18.515  0.00  0.00    -0.008 C 
ATOM      3  C   UNL d   1     -38.314  14.214  18.418  0.00  0.00     0.133 C 
ENDROOT
BRANCH   3   4
ATOM      4  N   UNL d   1     -39.109  14.466  18.513  0.00  0.00    -0.276 N 
ATOM      5  C   UNL d   1     -39.545  14.485  19.221  0.00  0.00     0.183 A 
ATOM      6  S   UNL d   1     -40.281  14.762  19.064  0.00  0.00    -0.048 SA
ATOM      7  C   UNL d   1     -40.340  14.930  18.254  0.00  0.00     0.050 A 
ATOM      8  C   UNL d   1     -40.944  15.218  17.797  0.00  0.00     0.008 A 
ATOM      9  C   UNL d   1     -39.607  14.742  17.923  0.00  0.00     0.095 A 
ATOM     10  C   UNL d   1     -40.840  15.331  16.984  0.00  0.00     0.003 A 
ATOM     11  C   UNL d   1     -40.092  15.140  16.642  0.00  0.00     0.026 A 
ATOM     12  C   UNL d   1     -39.498  14.853  17.112  0.00  0.00     0.111 A 
BRANCH   5  13
ATOM     13  N   UNL d   1     -39.266  14.250  19.988  0.00  0.00    -0.183 NA
ATOM     14  C   UNL d   1     -39.565  14.618  20.655  0.00  0.00     0.287 C 
ATOM     15  O   UNL d   1     -40.135  15.215  20.591  0.00  0.00    -0.265 OA
BRANCH  14  16
ATOM     16  C   UNL d   1     -39.294  14.390  21.399  0.00  0.00     0.087 A 
ATOM     17  S   UNL d   1     -38.823  14.846  21.925  0.00  0.00    -0.082 SA
ATOM     18  C   UNL d   1     -38.685  14.405  22.598  0.00  0.00     0.036 A 
ATOM     19  C   UNL d   1     -39.059  13.679  22.509  0.00  0.00     0.008 A 
ATOM     20  C   UNL d   1     -39.431  13.670  21.778  0.00  0.00     0.012 A 
ENDBRANCH  14  16
ENDBRANCH   5  13
BRANCH  12  21
ATOM     21  O   UNL d   1     -38.758  14.667  16.760  0.00  0.00    -0.327 OA
ATOM     22  C   UNL d   1     -38.609  14.898  15.980  0.00  0.00     0.181 C 
ENDBRANCH  12  21
ENDBRANCH   3   4
TORSDOF 4
ENDMDL
MODEL 6
REMARK VINA RESULT:      -5.7      8.206     10.156
REMARK  4 active torsions:
REMARK  status: ('A' for Active; 'I' for Inactive)
REMARK    1  A    between atoms: N_2  and  C_1 
REMARK       I    between atoms: C_6  and  N_2 
REMARK    2  A    between atoms: C_16  and  N_3 
REMARK    3  A    between atoms: C_8  and  C_6 
REMARK    4  A    between atoms: O_19  and  C_12 
ROOT
ATOM      1  C   UNL d   1     -38.186  14.073  20.127  0.00  0.00    -0.031 C 
ATOM      2  C   UNL d   1     -37.941  13.279  20.208  0.00  0.00    -0.008 C 
ATOM      3  C   UNL d   1     -38.427  14.861  20.048  0.00  0.00     0.133 C 
ENDROOT
BRANCH   3   4
ATOM      4  N   UNL d   1     -39.207  15.035  19.790  0.00  0.00    -0.276 N 
ATOM      5  C   UNL d   1     -39.512  14.939  19.022  0.00  0.00     0.183 A 
ATOM      6  S   UNL d   1     -40.279  15.172  19.017  0.00  0.00    -0.048 SA
ATOM      7  C   UNL d   1     -40.490  15.424  19.778  0.00  0.00     0.050 A 
ATOM      8  C   UNL d   1     -41.182  15.711  20.087  0.00  0.00     0.008 A 
ATOM      9  C   UNL d   1     -39.817  15.334  20.249  0.00  0.00     0.095 A 
ATOM     10  C   UNL d   1     -41.230  15.922  20.886  0.00  0.00     0.003 A 
ATOM     11  C   UNL d   1     -40.545  15.832  21.370  0.00  0.00     0.026 A 
ATOM     12  C   UNL d   1     -39.861  15.544  21.046  0.00  0.00     0.111 A 
BRANCH   5  13
ATOM     13  N   UNL d   1     -39.088  14.644  18.348  0.00  0.00    -0.183 NA
ATOM     14  C   UNL d   1     -39.270  14.927  17.602  0.00  0.00     0.287 C 
ATOM     15  O   UNL d   1     -39.861  15.496  17.496  0.00  0.00    -0.265 OA
BRANCH  14  16
ATOM     16  C   UNL d   1     -38.858  14.640  16.948  0.00  0.00     0.087 A 
ATOM     17  S   UNL d   1     -38.364  15.081  16.430  0.00  0.00    -0.082 SA
ATOM     18  C   UNL d   1     -38.070  14.576  15.860  0.00  0.00     0.036 A 
ATOM     19  C   UNL d   1     -38.367  13.824  16.006  0.00  0.00     0.008 A 
ATOM     20  C   UNL d   1     -38.848  13.863  16.669  0.00  0.00     0.012 A 
ENDBRANCH  14  16
ENDBRANCH   5  13
BRANCH  12  21
ATOM     21  O   UNL d   1     -39.184  15.459  21.538  0.00  0.00    -0.327 OA
ATOM     22  C   UNL d   1     -39.205  15.750  22.312  0.00  0.00     0.181 C 
ENDBRANCH  12  21
ENDBRANCH   3   4
TORSDOF 4
ENDMDL
MODEL 7
REMARK VINA RESULT:      -4.8      8.938      9.259
REMARK  4 active torsions:
REMARK  status: ('A' for Active; 'I' for Inactive)
REMARK    1  A    between atoms: N_2  and  C_1 
REMARK       I    between atoms: C_6  and  N_2 
REMARK    2  A    between atoms: C_16  and  N_3 
REMARK    3  A    between atoms: C_8  and  C_6 
REMARK    4  A    between atoms: O_19  and  C_12 
ROOT
ATOM      1  C   UNL d   1     -38.600  13.515  19.537  0.00  0.00    -0.031 C 
ATOM      2  C   UNL d   1     -37.940  13.364  19.047  0.00  0.00    -0.008 C 
ATOM      3  C   UNL d   1     -39.254  13.662  20.022  0.00  0.00     0.133 C 
ENDROOT
BRANCH   3   4
ATOM      4  N   UNL d   1     -39.401  14.441  20.298  0.00  0.00    -0.276 N 
ATOM      5  C   UNL d   1     -39.655  15.091  19.846  0.00  0.00     0.183 A 
ATOM      6  S   UNL d   1     -39.727  15.728  20.328  0.00  0.00    -0.048 SA
ATOM      7  C   UNL d   1     -39.523  15.508  21.101  0.00  0.00     0.050 A 
ATOM      8  C   UNL d   1     -39.496  15.920  21.798  0.00  0.00     0.008 A 
ATOM      9  C   UNL d   1     -39.323  14.707  21.069  0.00  0.00     0.095 A 
ATOM     10  C   UNL d   1     -39.265  15.545  22.499  0.00  0.00     0.003 A 
ATOM     11  C   UNL d   1     -39.060  14.727  22.471  0.00  0.00     0.026 A 
ATOM     12  C   UNL d   1     -39.092  14.330  21.766  0.00  0.00     0.111 A 
BRANCH   5  13
ATOM     13  N   UNL d   1     -39.815  15.091  19.012  0.00  0.00    -0.183 NA
ATOM     14  C   UNL d   1     -40.460  15.504  18.725  0.00  0.00     0.287 C 
ATOM     15  O   UNL d   1     -40.958  15.922  19.236  0.00  0.00    -0.265 OA
BRANCH  14  16
ATOM     16  C   UNL d   1     -40.614  15.503  17.915  0.00  0.00     0.087 A 
ATOM     17  S   UNL d   1     -41.296  15.197  17.532  0.00  0.00    -0.082 SA
ATOM     18  C   UNL d   1     -41.217  15.313  16.728  0.00  0.00     0.036 A 
ATOM     19  C   UNL d   1     -40.497  15.686  16.593  0.00  0.00     0.008 A 
ATOM     20  C   UNL d   1     -40.130  15.802  17.317  0.00  0.00     0.012 A 
ENDBRANCH  14  16
ENDBRANCH   5  13
BRANCH  12  21
ATOM     21  O   UNL d   1     -38.886  13.515  21.751  0.00  0.00    -0.327 OA
ATOM     22  C   UNL d   1     -38.677  13.135  22.456  0.00  0.00     0.181 C 
ENDBRANCH  12  21
ENDBRANCH   3   4
TORSDOF 4
ENDMDL
