MODEL 1
REMARK VINA RESULT:      16.8      0.000      0.000
REMARK  4 active torsions:
REMARK  status: ('A' for Active; 'I' for Inactive)
REMARK    1  A    between atoms: C_6  and  C_1 
REMARK    2  A    between atoms: C_8  and  N_3 
REMARK       I    between atoms: N_7  and  C_6 
REMARK    3  A    between atoms: C_9  and  N_7 
REMARK    4  A    between atoms: O_19  and  C_16 
ROOT
ATOM      1  C   UNL d   1      45.703 -15.857  44.447  0.00  0.00     0.199 A 
ATOM      2  C   UNL d   1      46.073 -16.433  43.992  0.00  0.00     0.211 A 
ATOM      3  N   UNL d   1      45.773 -17.168  44.209  0.00  0.00    -0.191 N 
ATOM      4  N   UNL d   1      45.212 -17.045  44.804  0.00  0.00    -0.058 NA
ATOM      5  N   UNL d   1      45.165 -16.239  44.955  0.00  0.00    -0.122 NA
ATOM      6  N   UNL d   1      46.647 -16.296  43.417  0.00  0.00    -0.125 N 
ENDROOT
BRANCH   1   7
ATOM      7  C   UNL d   1      45.841 -15.042  44.409  0.00  0.00     0.302 C 
ATOM      8  N   UNL d   1      45.203 -14.525  44.286  0.00  0.00    -0.204 NA
ATOM      9  O   UNL d   1      46.605 -14.745  44.492  0.00  0.00    -0.263 OA
BRANCH   8  10
ATOM     10  C   UNL d   1      45.347 -13.713  44.248  0.00  0.00     0.112 A 
ATOM     11  C   UNL d   1      44.939 -13.257  43.696  0.00  0.00     0.158 A 
ATOM     12  F   UNL d   1      44.397 -13.606  43.188  0.00  0.00    -0.203 F 
ATOM     13  C   UNL d   1      45.080 -12.437  43.653  0.00  0.00     0.031 A 
ATOM     14  C   UNL d   1      45.623 -12.092  44.162  0.00  0.00     0.002 A 
ATOM     15  C   UNL d   1      46.031 -12.552  44.717  0.00  0.00     0.002 A 
ATOM     16  C   UNL d   1      45.888 -13.364  44.755  0.00  0.00     0.021 A 
ENDBRANCH   8  10
ENDBRANCH   1   7
BRANCH   3  17
ATOM     17  C   UNL d   1      45.991 -17.896  43.892  0.00  0.00     0.086 A 
ATOM     18  C   UNL d   1      45.953 -18.018  43.076  0.00  0.00     0.021 A 
ATOM     19  C   UNL d   1      46.171 -18.748  42.759  0.00  0.00     0.026 A 
ATOM     20  C   UNL d   1      46.427 -19.354  43.256  0.00  0.00     0.094 A 
ATOM     21  C   UNL d   1      46.465 -19.232  44.071  0.00  0.00     0.026 A 
ATOM     22  C   UNL d   1      46.246 -18.502  44.389  0.00  0.00     0.021 A 
BRANCH  20  23
ATOM     23  O   UNL d   1      46.645 -20.083  42.938  0.00  0.00    -0.328 OA
ATOM     24  C   UNL d   1      46.500 -20.246  42.143  0.00  0.00     0.181 C 
ENDBRANCH  20  23
ENDBRANCH   3  17
TORSDOF 4
ENDMDL
