MODEL 1
REMARK VINA RESULT:      56.6      0.000      0.000
REMARK  8 active torsions:
REMARK  status: ('A' for Active; 'I' for Inactive)
REMARK    1  A    between atoms: C_11  and  C_3 
REMARK    2  A    between atoms: C_10  and  C_4 
REMARK    3  A    between atoms: O_18  and  C_10 
REMARK    4  A    between atoms: N_17  and  C_11 
REMARK    5  A    between atoms: C_12  and  C_15 
REMARK    6  A    between atoms: C_15  and  C_23 
REMARK    7  A    between atoms: C_23  and  N_17 
REMARK    8  A    between atoms: C_24  and  O_18 
ROOT
ATOM      1  C   UNL d   1     -50.799  25.096  33.401  0.00  0.00     0.035 A 
ATOM      2  C   UNL d   1     -51.461  24.597  33.379  0.00  0.00     0.100 A 
ATOM      3  C   UNL d   1     -50.899  25.917  33.398  0.00  0.00     0.060 A 
ATOM      4  C   UNL d   1     -50.129  24.632  33.421  0.00  0.00     0.088 A 
ATOM      5  O   UNL d   1     -51.193  23.848  33.387  0.00  0.00    -0.307 OA
ATOM      6  C   UNL d   1     -50.389  23.854  33.413  0.00  0.00     0.105 A 
ATOM      7  C   UNL d   1     -51.660  26.233  33.374  0.00  0.00     0.197 A 
ATOM      8  C   UNL d   1     -52.197  24.926  33.356  0.00  0.00     0.026 A 
ATOM      9  C   UNL d   1     -52.297  25.746  33.354  0.00  0.00     0.041 A 
ATOM     10  O   UNL d   1     -51.762  27.072  33.372  0.00  0.00    -0.286 OA
ATOM     11  C   UNL d   1     -49.892  23.200  33.428  0.00  0.00     0.027 C 
ATOM     12  C   UNL d   1     -52.859  24.427  33.335  0.00  0.00     0.002 A 
ATOM     13  C   UNL d   1     -53.058  26.063  33.330  0.00  0.00     0.003 A 
ATOM     14  C   UNL d   1     -53.712  25.574  33.309  0.00  0.00     0.000 A 
ATOM     15  C   UNL d   1     -53.613  24.753  33.312  0.00  0.00     0.000 A 
ENDROOT
BRANCH   3  16
ATOM     16  C   UNL d   1     -50.217  26.436  33.420  0.00  0.00     0.102 C 
BRANCH  16  17
ATOM     17  N   UNL d   1     -50.150  27.024  34.016  0.00  0.00    -0.242 NA
BRANCH  17  18
ATOM     18  C   UNL d   1     -49.450  27.155  34.388  0.00  0.00     0.105 C 
BRANCH  18  19
ATOM     19  C   UNL d   1     -49.087  27.897  34.357  0.00  0.00     0.091 C 
BRANCH  19  20
ATOM     20  C   UNL d   1     -48.445  28.067  34.854  0.00  0.00     0.213 C 
ATOM     21  O   UNL d   1     -48.400  28.798  35.236  0.00  0.00    -0.644 OA
ATOM     22  O   UNL d   1     -47.856  27.504  34.962  0.00  0.00    -0.644 OA
ENDBRANCH  19  20
ENDBRANCH  18  19
ENDBRANCH  17  18
ENDBRANCH  16  17
ENDBRANCH   3  16
BRANCH   4  23
ATOM     23  C   UNL d   1     -49.329  24.856  33.447  0.00  0.00     0.302 C 
ATOM     24  O   UNL d   1     -49.114  25.654  33.307  0.00  0.00    -0.259 OA
BRANCH  23  25
ATOM     25  O   UNL d   1     -48.747  24.311  33.606  0.00  0.00    -0.271 OA
BRANCH  25  26
ATOM     26  C   UNL d   1     -48.029  24.557  33.891  0.00  0.00     0.126 C 
ATOM     27  C   UNL d   1     -47.417  24.024  33.882  0.00  0.00     0.029 C 
ENDBRANCH  25  26
ENDBRANCH  23  25
ENDBRANCH   4  23
TORSDOF 8
ENDMDL
