MODEL 1
REMARK VINA RESULT:      -4.4      0.000      0.000
REMARK  5 active torsions:
REMARK  status: ('A' for Active; 'I' for Inactive)
REMARK    1  A    between atoms: C_3  and  C_1 
REMARK    2  A    between atoms: C_2  and  C_3 
REMARK       I    between atoms: N_4  and  C_2 
REMARK    3  A    between atoms: C_10  and  C_8 
REMARK    4  A    between atoms: O_16  and  C_10 
REMARK    5  A    between atoms: C_21  and  O_16 
ROOT
ATOM      1  C   UNL d   1      57.008  -0.131  31.506  0.00  0.00     0.304 C 
ATOM      2  N   UNL d   1      56.532  -0.437  32.100  0.00  0.00    -0.269 N 
ATOM      3  C   UNL d   1      55.662  -0.234  33.216  0.00  0.00     0.081 A 
ATOM      4  C   UNL d   1      56.142   0.072  32.616  0.00  0.00     0.088 A 
ATOM      5  O   UNL d   1      57.095   0.681  31.427  0.00  0.00    -0.263 OA
ATOM      6  C   UNL d   1      56.446  -1.246  32.179  0.00  0.00     0.083 A 
ATOM      7  C   UNL d   1      55.571  -1.049  33.299  0.00  0.00     0.008 A 
ATOM      8  C   UNL d   1      55.963  -1.559  32.781  0.00  0.00     0.019 A 
ENDROOT
BRANCH   1   9
ATOM      9  C   UNL d   1      57.402  -0.645  30.985  0.00  0.00     0.253 C 
ATOM     10  O   UNL d   1      57.234  -1.451  31.001  0.00  0.00    -0.281 OA
BRANCH   9  11
ATOM     11  C   UNL d   1      57.954  -0.346  30.459  0.00  0.00     0.064 A 
ATOM     12  C   UNL d   1      58.189   0.440  30.379  0.00  0.00     0.102 A 
ATOM     13  N   UNL d   1      58.754   0.492  29.786  0.00  0.00    -0.244 NA
ATOM     14  C   UNL d   1      58.874  -0.268  29.492  0.00  0.00     0.082 A 
ATOM     15  C   UNL d   1      58.382  -0.785  29.906  0.00  0.00     0.022 A 
ATOM     16  C   UNL d   1      59.368  -0.556  28.900  0.00  0.00     0.019 A 
ATOM     17  C   UNL d   1      58.384  -1.586  29.728  0.00  0.00     0.002 A 
ATOM     18  C   UNL d   1      58.884  -1.875  29.130  0.00  0.00     0.000 A 
ATOM     19  C   UNL d   1      59.370  -1.357  28.723  0.00  0.00     0.002 A 
ENDBRANCH   9  11
ENDBRANCH   1   9
BRANCH   3  20
ATOM     20  C   UNL d   1      55.269   0.272  33.735  0.00  0.00     0.302 C 
ATOM     21  O   UNL d   1      54.519   0.545  33.555  0.00  0.00    -0.259 OA
BRANCH  20  22
ATOM     22  O   UNL d   1      55.633   0.499  34.430  0.00  0.00    -0.271 OA
BRANCH  22  23
ATOM     23  C   UNL d   1      55.174   0.681  35.097  0.00  0.00     0.126 C 
ATOM     24  C   UNL d   1      55.494   0.560  35.854  0.00  0.00     0.029 C 
ENDBRANCH  22  23
ENDBRANCH  20  22
ENDBRANCH   3  20
TORSDOF 5
ENDMDL
MODEL 2
REMARK VINA RESULT:      -3.8      1.306      2.160
REMARK  5 active torsions:
REMARK  status: ('A' for Active; 'I' for Inactive)
REMARK    1  A    between atoms: C_3  and  C_1 
REMARK    2  A    between atoms: C_2  and  C_3 
REMARK       I    between atoms: N_4  and  C_2 
REMARK    3  A    between atoms: C_10  and  C_8 
REMARK    4  A    between atoms: O_16  and  C_10 
REMARK    5  A    between atoms: C_21  and  O_16 
ROOT
ATOM      1  C   UNL d   1      57.811  -1.093  30.381  0.00  0.00     0.304 C 
ATOM      2  N   UNL d   1      57.589  -0.580  30.981  0.00  0.00    -0.269 N 
ATOM      3  C   UNL d   1      56.791  -0.292  32.132  0.00  0.00     0.081 A 
ATOM      4  C   UNL d   1      57.016  -0.808  31.526  0.00  0.00     0.088 A 
ATOM      5  O   UNL d   1      57.461  -1.833  30.324  0.00  0.00    -0.263 OA
ATOM      6  C   UNL d   1      57.938   0.158  31.037  0.00  0.00     0.083 A 
ATOM      7  C   UNL d   1      57.139   0.452  32.193  0.00  0.00     0.008 A 
ATOM      8  C   UNL d   1      57.714   0.681  31.646  0.00  0.00     0.019 A 
ENDROOT
BRANCH   1   9
ATOM      9  C   UNL d   1      58.389  -0.863  29.831  0.00  0.00     0.253 C 
ATOM     10  O   UNL d   1      58.493  -0.064  29.658  0.00  0.00    -0.281 OA
BRANCH   9  11
ATOM     11  C   UNL d   1      58.852  -1.430  29.465  0.00  0.00     0.064 A 
ATOM     12  C   UNL d   1      58.644  -2.211  29.303  0.00  0.00     0.102 A 
ATOM     13  N   UNL d   1      59.273  -2.584  28.930  0.00  0.00    -0.244 NA
ATOM     14  C   UNL d   1      59.880  -2.033  28.858  0.00  0.00     0.082 A 
ATOM     15  C   UNL d   1      59.622  -1.322  29.187  0.00  0.00     0.022 A 
ATOM     16  C   UNL d   1      60.635  -2.087  28.536  0.00  0.00     0.019 A 
ATOM     17  C   UNL d   1      60.117  -0.667  29.193  0.00  0.00     0.002 A 
ATOM     18  C   UNL d   1      60.879  -0.723  28.866  0.00  0.00     0.000 A 
ATOM     19  C   UNL d   1      61.130  -1.432  28.542  0.00  0.00     0.002 A 
ENDBRANCH   9  11
ENDBRANCH   1   9
BRANCH   3  20
ATOM     20  C   UNL d   1      56.217  -0.517  32.680  0.00  0.00     0.302 C 
ATOM     21  O   UNL d   1      56.256  -1.253  33.037  0.00  0.00    -0.259 OA
BRANCH  20  22
ATOM     22  O   UNL d   1      55.611  -0.002  32.864  0.00  0.00    -0.271 OA
BRANCH  22  23
ATOM     23  C   UNL d   1      55.061  -0.204  33.451  0.00  0.00     0.126 C 
ATOM     24  C   UNL d   1      54.671   0.401  33.866  0.00  0.00     0.029 C 
ENDBRANCH  22  23
ENDBRANCH  20  22
ENDBRANCH   3  20
TORSDOF 5
ENDMDL
MODEL 3
REMARK VINA RESULT:      -3.3      1.829      3.369
REMARK  5 active torsions:
REMARK  status: ('A' for Active; 'I' for Inactive)
REMARK    1  A    between atoms: C_3  and  C_1 
REMARK    2  A    between atoms: C_2  and  C_3 
REMARK       I    between atoms: N_4  and  C_2 
REMARK    3  A    between atoms: C_10  and  C_8 
REMARK    4  A    between atoms: O_16  and  C_10 
REMARK    5  A    between atoms: C_21  and  O_16 
ROOT
ATOM      1  C   UNL d   1      58.449  -1.656  29.681  0.00  0.00     0.304 C 
ATOM      2  N   UNL d   1      58.418  -0.881  29.947  0.00  0.00    -0.269 N 
ATOM      3  C   UNL d   1      57.810   0.127  30.757  0.00  0.00     0.081 A 
ATOM      4  C   UNL d   1      57.842  -0.654  30.488  0.00  0.00     0.088 A 
ATOM      5  O   UNL d   1      57.904  -2.205  29.955  0.00  0.00    -0.263 OA
ATOM      6  C   UNL d   1      58.962  -0.334  29.673  0.00  0.00     0.083 A 
ATOM      7  C   UNL d   1      58.355   0.682  30.484  0.00  0.00     0.008 A 
ATOM      8  C   UNL d   1      58.934   0.455  29.941  0.00  0.00     0.019 A 
ENDROOT
BRANCH   1   9
ATOM      9  C   UNL d   1      59.031  -1.885  29.134  0.00  0.00     0.253 C 
ATOM     10  O   UNL d   1      59.550  -1.322  28.832  0.00  0.00    -0.281 OA
BRANCH   9  11
ATOM     11  C   UNL d   1      59.084  -2.668  28.900  0.00  0.00     0.064 A 
ATOM     12  C   UNL d   1      58.470  -3.148  28.630  0.00  0.00     0.102 A 
ATOM     13  N   UNL d   1      58.769  -3.892  28.456  0.00  0.00    -0.244 NA
ATOM     14  C   UNL d   1      59.576  -3.879  28.619  0.00  0.00     0.082 A 
ATOM     15  C   UNL d   1      59.771  -3.125  28.892  0.00  0.00     0.022 A 
ATOM     16  C   UNL d   1      60.159  -4.455  28.553  0.00  0.00     0.019 A 
ATOM     17  C   UNL d   1      60.546  -2.950  29.099  0.00  0.00     0.002 A 
ATOM     18  C   UNL d   1      61.133  -3.534  29.032  0.00  0.00     0.000 A 
ATOM     19  C   UNL d   1      60.934  -4.280  28.760  0.00  0.00     0.002 A 
ENDBRANCH   9  11
ENDBRANCH   1   9
BRANCH   3  20
ATOM     20  C   UNL d   1      57.234   0.359  31.300  0.00  0.00     0.302 C 
ATOM     21  O   UNL d   1      56.521   0.665  31.037  0.00  0.00    -0.259 OA
BRANCH  20  22
ATOM     22  O   UNL d   1      57.379   0.282  32.100  0.00  0.00    -0.271 OA
BRANCH  22  23
ATOM     23  C   UNL d   1      56.750   0.328  32.640  0.00  0.00     0.126 C 
ATOM     24  C   UNL d   1      56.915   0.315  33.454  0.00  0.00     0.029 C 
ENDBRANCH  22  23
ENDBRANCH  20  22
ENDBRANCH   3  20
TORSDOF 5
ENDMDL
