MODEL 1
REMARK VINA RESULT:      83.7      0.000      0.000
REMARK  5 active torsions:
REMARK  status: ('A' for Active; 'I' for Inactive)
REMARK    1  A    between atoms: C_7  and  C_1 
REMARK    2  A    between atoms: C_8  and  C_2 
REMARK    3  A    between atoms: O_16  and  C_8 
REMARK    4  A    between atoms: O_17  and  C_12 
REMARK    5  A    between atoms: C_21  and  O_16 
ROOT
ATOM      1  C   UNL d   1     -50.172  26.652  33.824  0.00  0.00     0.069 A 
ATOM      2  C   UNL d   1     -50.993  26.735  33.849  0.00  0.00     0.166 A 
ATOM      3  C   UNL d   1     -49.838  25.906  33.699  0.00  0.00     0.200 A 
ATOM      4  O   UNL d   1     -51.490  26.078  33.751  0.00  0.00    -0.301 OA
ATOM      5  C   UNL d   1     -50.327  25.248  33.601  0.00  0.00     0.062 A 
ATOM      6  C   UNL d   1     -51.146  25.335  33.627  0.00  0.00     0.106 A 
ATOM      7  C   UNL d   1     -51.640  24.666  33.527  0.00  0.00     0.067 A 
ATOM      8  C   UNL d   1     -49.991  24.499  33.476  0.00  0.00     0.009 A 
ATOM      9  O   UNL d   1     -49.018  25.815  33.672  0.00  0.00    -0.286 OA
ATOM     10  C   UNL d   1     -51.305  23.925  33.404  0.00  0.00     0.198 A 
ATOM     11  C   UNL d   1     -50.476  23.841  33.378  0.00  0.00     0.042 A 
ATOM     12  O   UNL d   1     -51.789  23.267  33.306  0.00  0.00    -0.286 OA
ENDROOT
BRANCH   1  13
ATOM     13  C   UNL d   1     -49.688  27.310  33.922  0.00  0.00     0.028 A 
ATOM     14  C   UNL d   1     -49.265  27.396  34.625  0.00  0.00     0.094 A 
ATOM     15  C   UNL d   1     -48.780  28.055  34.724  0.00  0.00     0.024 A 
ATOM     16  C   UNL d   1     -48.716  28.627  34.127  0.00  0.00     0.002 A 
ATOM     17  C   UNL d   1     -49.144  28.531  33.428  0.00  0.00     0.000 A 
ATOM     18  C   UNL d   1     -49.632  27.872  33.323  0.00  0.00     0.002 A 
BRANCH  14  19
ATOM     19  O   UNL d   1     -49.327  26.834  35.214  0.00  0.00    -0.328 OA
ATOM     20  C   UNL d   1     -48.872  26.906  35.898  0.00  0.00     0.181 C 
ENDBRANCH  14  19
ENDBRANCH   1  13
BRANCH   2  21
ATOM     21  C   UNL d   1     -51.328  27.485  33.974  0.00  0.00     0.323 C 
ATOM     22  O   UNL d   1     -51.410  27.772  34.746  0.00  0.00    -0.257 OA
BRANCH  21  23
ATOM     23  O   UNL d   1     -51.578  27.938  33.332  0.00  0.00    -0.270 OA
BRANCH  23  24
ATOM     24  C   UNL d   1     -52.340  28.231  33.317  0.00  0.00     0.126 C 
ATOM     25  C   UNL d   1     -52.477  29.037  33.424  0.00  0.00     0.029 C 
ENDBRANCH  23  24
ENDBRANCH  21  23
ENDBRANCH   2  21
TORSDOF 5
ENDMDL
MODEL 2
REMARK VINA RESULT:      85.1      1.450      3.834
REMARK  5 active torsions:
REMARK  status: ('A' for Active; 'I' for Inactive)
REMARK    1  A    between atoms: C_7  and  C_1 
REMARK    2  A    between atoms: C_8  and  C_2 
REMARK    3  A    between atoms: O_16  and  C_8 
REMARK    4  A    between atoms: O_17  and  C_12 
REMARK    5  A    between atoms: C_21  and  O_16 
ROOT
ATOM      1  C   UNL d   1     -50.159  27.176  34.545  0.00  0.00     0.069 A 
ATOM      2  C   UNL d   1     -50.185  27.212  35.369  0.00  0.00     0.166 A 
ATOM      3  C   UNL d   1     -49.585  27.604  34.132  0.00  0.00     0.200 A 
ATOM      4  O   UNL d   1     -49.642  27.674  35.792  0.00  0.00    -0.301 OA
ATOM      5  C   UNL d   1     -49.041  28.066  34.547  0.00  0.00     0.062 A 
ATOM      6  C   UNL d   1     -49.071  28.100  35.370  0.00  0.00     0.106 A 
ATOM      7  C   UNL d   1     -48.517  28.570  35.788  0.00  0.00     0.067 A 
ATOM      8  C   UNL d   1     -48.464  28.497  34.133  0.00  0.00     0.009 A 
ATOM      9  O   UNL d   1     -49.553  27.573  33.308  0.00  0.00    -0.286 OA
ATOM     10  C   UNL d   1     -47.947  28.995  35.375  0.00  0.00     0.198 A 
ATOM     11  C   UNL d   1     -47.920  28.959  34.543  0.00  0.00     0.042 A 
ATOM     12  O   UNL d   1     -47.403  29.457  35.785  0.00  0.00    -0.286 OA
ENDROOT
BRANCH   1  13
ATOM     13  C   UNL d   1     -50.704  26.713  34.135  0.00  0.00     0.028 A 
ATOM     14  C   UNL d   1     -50.441  26.036  33.743  0.00  0.00     0.094 A 
ATOM     15  C   UNL d   1     -50.986  25.573  33.333  0.00  0.00     0.024 A 
ATOM     16  C   UNL d   1     -51.788  25.782  33.312  0.00  0.00     0.002 A 
ATOM     17  C   UNL d   1     -52.038  26.461  33.708  0.00  0.00     0.000 A 
ATOM     18  C   UNL d   1     -51.497  26.930  34.121  0.00  0.00     0.002 A 
BRANCH  14  19
ATOM     19  O   UNL d   1     -49.651  25.830  33.763  0.00  0.00    -0.328 OA
ATOM     20  C   UNL d   1     -49.386  25.187  33.319  0.00  0.00     0.181 C 
ENDBRANCH  14  19
ENDBRANCH   1  13
BRANCH   2  21
ATOM     21  C   UNL d   1     -50.762  26.780  35.783  0.00  0.00     0.323 C 
ATOM     22  O   UNL d   1     -51.482  26.603  35.415  0.00  0.00    -0.257 OA
BRANCH  21  23
ATOM     23  O   UNL d   1     -50.617  26.531  36.556  0.00  0.00    -0.270 OA
BRANCH  23  24
ATOM     24  C   UNL d   1     -51.169  26.682  37.139  0.00  0.00     0.126 C 
ATOM     25  C   UNL d   1     -51.229  26.183  37.792  0.00  0.00     0.029 C 
ENDBRANCH  23  24
ENDBRANCH  21  23
ENDBRANCH   2  21
TORSDOF 5
ENDMDL
