MODEL 1
REMARK VINA RESULT:      20.2      0.000      0.000
REMARK  2 active torsions:
REMARK  status: ('A' for Active; 'I' for Inactive)
REMARK    1  A    between atoms: C_10  and  N_3 
REMARK    2  A    between atoms: C_15  and  C_10 
ROOT
ATOM      1  C   UNL d   1      46.246 -17.737  43.390  0.00  0.00     0.166 A 
ATOM      2  C   UNL d   1      46.123 -17.929  44.184  0.00  0.00     0.117 A 
ATOM      3  N   UNL d   1      46.461 -18.433  43.015  0.00  0.00    -0.289 N 
ATOM      4  N   UNL d   1      46.145 -16.959  43.122  0.00  0.00    -0.225 NA
ATOM      5  N   UNL d   1      45.898 -17.322  44.692  0.00  0.00    -0.241 NA
ATOM      6  C   UNL d   1      46.261 -18.720  44.282  0.00  0.00     0.037 A 
ATOM      7  C   UNL d   1      46.473 -19.036  43.550  0.00  0.00     0.067 A 
ATOM      8  C   UNL d   1      45.923 -16.376  43.639  0.00  0.00     0.101 A 
ATOM      9  C   UNL d   1      45.800 -16.569  44.434  0.00  0.00     0.099 A 
ATOM     10  C   UNL d   1      46.223 -19.208  44.946  0.00  0.00     0.003 A 
ATOM     11  C   UNL d   1      46.646 -19.837  43.486  0.00  0.00     0.018 A 
ATOM     12  C   UNL d   1      45.578 -15.988  44.954  0.00  0.00     0.021 A 
ATOM     13  C   UNL d   1      45.825 -15.625  43.383  0.00  0.00     0.021 A 
ATOM     14  C   UNL d   1      46.398 -20.012  44.878  0.00  0.00     0.000 A 
ATOM     15  C   UNL d   1      46.610 -20.327  44.146  0.00  0.00     0.002 A 
ATOM     16  C   UNL d   1      45.596 -15.031  43.927  0.00  0.00     0.002 A 
ATOM     17  C   UNL d   1      45.471 -15.201  44.708  0.00  0.00     0.002 A 
ENDROOT
BRANCH   3  18
ATOM     18  C   UNL d   1      46.636 -18.504  42.225  0.00  0.00     0.082 C 
BRANCH  18  19
ATOM     19  C   UNL d   1      46.167 -19.018  41.759  0.00  0.00     0.019 C 
ATOM     20  C   UNL d   1      46.346 -19.137  40.986  0.00  0.00     0.002 C 
ENDBRANCH  18  19
ENDBRANCH   3  18
TORSDOF 2
ENDMDL
