MODEL 1
REMARK VINA RESULT:      86.9      0.000      0.000
REMARK  8 active torsions:
REMARK  status: ('A' for Active; 'I' for Inactive)
REMARK    1  A    between atoms: N_3  and  C_1 
REMARK    2  A    between atoms: S_2  and  C_9 
REMARK    3  A    between atoms: N_10  and  S_2 
REMARK       I    between atoms: C_8  and  N_3 
REMARK    4  A    between atoms: C_15  and  C_8 
REMARK    5  A    between atoms: C_27  and  N_10 
REMARK       I    between atoms: C_16  and  N_17 
REMARK    6  A    between atoms: N_17  and  C_18 
REMARK    7  A    between atoms: C_30  and  C_27 
REMARK    8  A    between atoms: C_31  and  C_30 
ROOT
ATOM      1  N   UNL d   1      41.771 -15.916  36.756  0.00  0.00    -0.184 NA
ATOM      2  C   UNL d   1      41.407 -16.633  36.569  0.00  0.00     0.281 C 
ATOM      3  O   UNL d   1      41.865 -17.290  36.340  0.00  0.00    -0.265 OA
ENDROOT
BRANCH   2   4
ATOM      4  C   UNL d   1      40.586 -16.703  36.607  0.00  0.00     0.058 A 
ATOM      5  C   UNL d   1      40.229 -17.441  36.505  0.00  0.00     0.005 A 
ATOM      6  C   UNL d   1      39.407 -17.511  36.543  0.00  0.00     0.013 A 
ATOM      7  C   UNL d   1      38.932 -16.849  36.683  0.00  0.00     0.104 A 
ATOM      8  C   UNL d   1      39.288 -16.113  36.786  0.00  0.00     0.013 A 
ATOM      9  C   UNL d   1      40.114 -16.040  36.747  0.00  0.00     0.005 A 
BRANCH   7  10
ATOM     10  S   UNL d   1      38.099 -16.924  36.722  0.00  0.00     0.271 S 
ATOM     11  O   UNL d   1      37.275 -17.008  36.764  0.00  0.00    -0.200 OA
ATOM     12  O   UNL d   1      38.013 -16.210  36.331  0.00  0.00    -0.200 OA
BRANCH  10  13
ATOM     13  N   UNL d   1      38.195 -17.650  37.119  0.00  0.00    -0.228 N 
ATOM     14  C   UNL d   1      38.806 -18.169  36.904  0.00  0.00     0.111 C 
BRANCH  13  15
ATOM     15  C   UNL d   1      37.680 -17.854  37.729  0.00  0.00     0.092 C 
BRANCH  15  16
ATOM     16  C   UNL d   1      37.708 -18.607  38.050  0.00  0.00     0.020 C 
BRANCH  16  17
ATOM     17  C   UNL d   1      37.406 -18.743  38.794  0.00  0.00     0.002 C 
ATOM     18  C   UNL d   1      37.617 -19.446  39.202  0.00  0.00     0.000 C 
ENDBRANCH  16  17
ENDBRANCH  15  16
ENDBRANCH  13  15
ENDBRANCH  10  13
ENDBRANCH   7  10
ENDBRANCH   2   4
BRANCH   1  19
ATOM     19  C   UNL d   1      42.600 -15.847  36.717  0.00  0.00     0.182 A 
ATOM     20  N   UNL d   1      43.122 -16.451  36.522  0.00  0.00    -0.283 N 
ATOM     21  C   UNL d   1      43.891 -16.159  36.545  0.00  0.00     0.072 A 
ATOM     22  C   UNL d   1      42.902 -17.233  36.330  0.00  0.00     0.101 C 
ATOM     23  C   UNL d   1      44.626 -16.515  36.400  0.00  0.00     0.020 A 
ATOM     24  C   UNL d   1      43.864 -15.363  36.757  0.00  0.00     0.050 A 
ATOM     25  C   UNL d   1      45.314 -16.072  36.470  0.00  0.00     0.021 A 
ATOM     26  C   UNL d   1      45.283 -15.277  36.681  0.00  0.00     0.085 A 
ATOM     27  C   UNL d   1      44.553 -14.920  36.826  0.00  0.00     0.027 A 
ATOM     28  S   UNL d   1      43.062 -15.167  36.865  0.00  0.00    -0.048 SA
BRANCH  26  29
ATOM     29  N   UNL d   1      45.989 -14.832  36.750  0.00  0.00    -0.208 NA
ATOM     30  C   UNL d   1      45.955 -14.061  37.062  0.00  0.00     0.279 C 
ATOM     31  O   UNL d   1      46.645 -13.618  37.132  0.00  0.00    -0.265 OA
ATOM     32  C   UNL d   1      45.227 -13.751  37.297  0.00  0.00     0.068 C 
ENDBRANCH  26  29
ENDBRANCH   1  19
TORSDOF 8
ENDMDL
