MODEL 1
REMARK VINA RESULT:      -4.6      0.000      0.000
REMARK  3 active torsions:
REMARK  status: ('A' for Active; 'I' for Inactive)
REMARK    1  A    between atoms: C_2  and  C_1 
REMARK    2  A    between atoms: C_5  and  C_2 
REMARK    3  A    between atoms: C_4  and  C_3 
ROOT
ATOM      1  C   UNL d   1     -41.395-122.439 -52.479  0.00  0.00     0.045 A 
ATOM      2  C   UNL d   1     -41.579-122.325 -51.683  0.00  0.00     0.068 A 
ATOM      3  C   UNL d   1     -41.168-123.182 -52.753  0.00  0.00     0.003 A 
ATOM      4  C   UNL d   1     -41.534-122.961 -51.156  0.00  0.00     0.006 A 
ATOM      5  C   UNL d   1     -41.123-123.815 -52.233  0.00  0.00     0.000 A 
ATOM      6  C   UNL d   1     -41.308-123.704 -51.425  0.00  0.00     0.000 A 
ENDROOT
BRANCH   1   7
ATOM      7  C   UNL d   1     -41.439-121.801 -53.011  0.00  0.00     0.196 C 
ATOM      8  O   UNL d   1     -41.194-121.053 -52.769  0.00  0.00    -0.287 OA
BRANCH   7   9
ATOM      9  C   UNL d   1     -41.728-121.916 -53.776  0.00  0.00     0.039 A 
ATOM     10  C   UNL d   1     -41.216-122.161 -54.383  0.00  0.00     0.005 A 
ATOM     11  C   UNL d   1     -41.510-122.276 -55.148  0.00  0.00     0.030 A 
ATOM     12  C   UNL d   1     -42.305-122.147 -55.308  0.00  0.00     0.140 A 
ATOM     13  C   UNL d   1     -42.811-121.905 -54.707  0.00  0.00     0.030 A 
ATOM     14  F   UNL d   1     -42.588-122.265 -56.080  0.00  0.00    -0.204 F 
ATOM     15  C   UNL d   1     -42.529-121.788 -53.941  0.00  0.00     0.005 A 
ENDBRANCH   7   9
ENDBRANCH   1   7
BRANCH   2  16
ATOM     16  C   UNL d   1     -41.805-121.578 -51.421  0.00  0.00     0.211 C 
ATOM     17  O   UNL d   1     -42.601-121.417 -51.265  0.00  0.00    -0.644 OA
ATOM     18  O   UNL d   1     -41.230-121.000 -51.318  0.00  0.00    -0.644 OA
ENDBRANCH   2  16
TORSDOF 3
ENDMDL
MODEL 2
REMARK VINA RESULT:      -4.3      1.878      3.194
REMARK  3 active torsions:
REMARK  status: ('A' for Active; 'I' for Inactive)
REMARK    1  A    between atoms: C_2  and  C_1 
REMARK    2  A    between atoms: C_5  and  C_2 
REMARK    3  A    between atoms: C_4  and  C_3 
ROOT
ATOM      1  C   UNL d   1     -41.573-122.487 -53.527  0.00  0.00     0.045 A 
ATOM      2  C   UNL d   1     -41.839-122.430 -54.306  0.00  0.00     0.068 A 
ATOM      3  C   UNL d   1     -41.216-123.178 -53.257  0.00  0.00     0.003 A 
ATOM      4  C   UNL d   1     -41.747-123.072 -54.819  0.00  0.00     0.006 A 
ATOM      5  C   UNL d   1     -41.123-123.817 -53.764  0.00  0.00     0.000 A 
ATOM      6  C   UNL d   1     -41.391-123.764 -54.554  0.00  0.00     0.000 A 
ENDROOT
BRANCH   1   7
ATOM      7  C   UNL d   1     -41.664-121.843 -53.009  0.00  0.00     0.196 C 
ATOM      8  O   UNL d   1     -41.685-121.078 -53.312  0.00  0.00    -0.287 OA
BRANCH   7   9
ATOM      9  C   UNL d   1     -41.734-121.969 -52.196  0.00  0.00     0.039 A 
ATOM     10  C   UNL d   1     -42.417-122.327 -51.886  0.00  0.00     0.005 A 
ATOM     11  C   UNL d   1     -42.481-122.452 -51.070  0.00  0.00     0.030 A 
ATOM     12  C   UNL d   1     -41.873-122.223 -50.569  0.00  0.00     0.140 A 
ATOM     13  C   UNL d   1     -41.198-121.869 -50.875  0.00  0.00     0.030 A 
ATOM     14  F   UNL d   1     -41.950-122.353 -49.751  0.00  0.00    -0.204 F 
ATOM     15  C   UNL d   1     -41.123-121.740 -51.687  0.00  0.00     0.005 A 
ENDBRANCH   7   9
ENDBRANCH   1   7
BRANCH   2  16
ATOM     16  C   UNL d   1     -42.194-121.733 -54.564  0.00  0.00     0.211 C 
ATOM     17  O   UNL d   1     -42.979-121.569 -54.361  0.00  0.00    -0.644 OA
ATOM     18  O   UNL d   1     -41.759-121.209 -55.023  0.00  0.00    -0.644 OA
ENDBRANCH   2  16
TORSDOF 3
ENDMDL
MODEL 3
REMARK VINA RESULT:      -3.4      2.174      3.620
REMARK  3 active torsions:
REMARK  status: ('A' for Active; 'I' for Inactive)
REMARK    1  A    between atoms: C_2  and  C_1 
REMARK    2  A    between atoms: C_5  and  C_2 
REMARK    3  A    between atoms: C_4  and  C_3 
ROOT
ATOM      1  C   UNL d   1     -41.438-122.561 -51.724  0.00  0.00     0.045 A 
ATOM      2  C   UNL d   1     -41.518-122.209 -52.466  0.00  0.00     0.068 A 
ATOM      3  C   UNL d   1     -41.241-123.357 -51.658  0.00  0.00     0.003 A 
ATOM      4  C   UNL d   1     -41.399-122.660 -53.149  0.00  0.00     0.006 A 
ATOM      5  C   UNL d   1     -41.123-123.808 -52.334  0.00  0.00     0.000 A 
ATOM      6  C   UNL d   1     -41.203-123.456 -53.089  0.00  0.00     0.000 A 
ENDROOT
BRANCH   1   7
ATOM      7  C   UNL d   1     -41.557-122.109 -51.036  0.00  0.00     0.196 C 
ATOM      8  O   UNL d   1     -41.296-121.328 -51.012  0.00  0.00    -0.287 OA
BRANCH   7   9
ATOM      9  C   UNL d   1     -41.934-122.441 -50.381  0.00  0.00     0.039 A 
ATOM     10  C   UNL d   1     -41.497-122.873 -49.822  0.00  0.00     0.005 A 
ATOM     11  C   UNL d   1     -41.880-123.203 -49.166  0.00  0.00     0.030 A 
ATOM     12  C   UNL d   1     -42.689-123.105 -49.069  0.00  0.00     0.140 A 
ATOM     13  C   UNL d   1     -43.121-122.677 -49.622  0.00  0.00     0.030 A 
ATOM     14  F   UNL d   1     -43.062-123.442 -48.407  0.00  0.00    -0.204 F 
ATOM     15  C   UNL d   1     -42.750-122.344 -50.278  0.00  0.00     0.005 A 
ENDBRANCH   7   9
ENDBRANCH   1   7
BRANCH   2  16
ATOM     16  C   UNL d   1     -41.715-121.411 -52.519  0.00  0.00     0.211 C 
ATOM     17  O   UNL d   1     -41.151-120.832 -52.341  0.00  0.00    -0.644 OA
ATOM     18  O   UNL d   1     -42.475-121.202 -52.749  0.00  0.00    -0.644 OA
ENDBRANCH   2  16
TORSDOF 3
ENDMDL
MODEL 4
REMARK VINA RESULT:      -3.0      2.246      3.306
REMARK  3 active torsions:
REMARK  status: ('A' for Active; 'I' for Inactive)
REMARK    1  A    between atoms: C_2  and  C_1 
REMARK    2  A    between atoms: C_5  and  C_2 
REMARK    3  A    between atoms: C_4  and  C_3 
ROOT
ATOM      1  C   UNL d   1     -42.355-122.984 -49.693  0.00  0.00     0.045 A 
ATOM      2  C   UNL d   1     -42.342-123.219 -48.902  0.00  0.00     0.068 A 
ATOM      3  C   UNL d   1     -43.043-123.054 -50.139  0.00  0.00     0.003 A 
ATOM      4  C   UNL d   1     -43.027-123.527 -48.555  0.00  0.00     0.006 A 
ATOM      5  C   UNL d   1     -43.725-123.359 -49.797  0.00  0.00     0.000 A 
ATOM      6  C   UNL d   1     -43.717-123.598 -48.996  0.00  0.00     0.000 A 
ENDROOT
BRANCH   1   7
ATOM      7  C   UNL d   1     -41.667-122.674 -50.044  0.00  0.00     0.196 C 
ATOM      8  O   UNL d   1     -41.124-122.265 -49.582  0.00  0.00    -0.287 OA
BRANCH   7   9
ATOM      9  C   UNL d   1     -41.531-122.777 -50.852  0.00  0.00     0.039 A 
ATOM     10  C   UNL d   1     -41.621-122.138 -51.376  0.00  0.00     0.005 A 
ATOM     11  C   UNL d   1     -41.483-122.247 -52.185  0.00  0.00     0.030 A 
ATOM     12  C   UNL d   1     -41.258-122.982 -52.470  0.00  0.00     0.140 A 
ATOM     13  C   UNL d   1     -41.169-123.615 -51.952  0.00  0.00     0.030 A 
ATOM     14  F   UNL d   1     -41.123-123.079 -53.284  0.00  0.00    -0.204 F 
ATOM     15  C   UNL d   1     -41.304-123.518 -51.144  0.00  0.00     0.005 A 
ENDBRANCH   7   9
ENDBRANCH   1   7
BRANCH   2  16
ATOM     16  C   UNL d   1     -41.647-123.144 -48.467  0.00  0.00     0.211 C 
ATOM     17  O   UNL d   1     -41.483-122.438 -48.067  0.00  0.00    -0.644 OA
ATOM     18  O   UNL d   1     -41.125-123.777 -48.436  0.00  0.00    -0.644 OA
ENDBRANCH   2  16
TORSDOF 3
ENDMDL
MODEL 5
REMARK VINA RESULT:      -2.4      2.869      4.450
REMARK  3 active torsions:
REMARK  status: ('A' for Active; 'I' for Inactive)
REMARK    1  A    between atoms: C_2  and  C_1 
REMARK    2  A    between atoms: C_5  and  C_2 
REMARK    3  A    between atoms: C_4  and  C_3 
ROOT
ATOM      1  C   UNL d   1     -41.731-122.483 -50.863  0.00  0.00     0.045 A 
ATOM      2  C   UNL d   1     -41.649-122.484 -51.684  0.00  0.00     0.068 A 
ATOM      3  C   UNL d   1     -41.515-121.824 -50.422  0.00  0.00     0.003 A 
ATOM      4  C   UNL d   1     -41.346-121.815 -52.066  0.00  0.00     0.006 A 
ATOM      5  C   UNL d   1     -41.214-121.158 -50.797  0.00  0.00     0.000 A 
ATOM      6  C   UNL d   1     -41.128-121.153 -51.629  0.00  0.00     0.000 A 
ENDROOT
BRANCH   1   7
ATOM      7  C   UNL d   1     -42.036-123.155 -50.478  0.00  0.00     0.196 C 
ATOM      8  O   UNL d   1     -42.244-123.817 -50.918  0.00  0.00    -0.287 OA
BRANCH   7   9
ATOM      9  C   UNL d   1     -42.128-123.156 -49.657  0.00  0.00     0.039 A 
ATOM     10  C   UNL d   1     -41.490-123.363 -49.166  0.00  0.00     0.005 A 
ATOM     11  C   UNL d   1     -41.588-123.362 -48.343  0.00  0.00     0.030 A 
ATOM     12  C   UNL d   1     -42.312-123.159 -48.014  0.00  0.00     0.140 A 
ATOM     13  C   UNL d   1     -42.942-122.955 -48.500  0.00  0.00     0.030 A 
ATOM     14  F   UNL d   1     -42.397-123.163 -47.187  0.00  0.00    -0.204 F 
ATOM     15  C   UNL d   1     -42.856-122.952 -49.321  0.00  0.00     0.005 A 
ENDBRANCH   7   9
ENDBRANCH   1   7
BRANCH   2  16
ATOM     16  C   UNL d   1     -41.869-123.150 -52.115  0.00  0.00     0.211 C 
ATOM     17  O   UNL d   1     -42.581-123.154 -52.537  0.00  0.00    -0.644 OA
ATOM     18  O   UNL d   1     -41.373-123.805 -52.119  0.00  0.00    -0.644 OA
ENDBRANCH   2  16
TORSDOF 3
ENDMDL
