MODEL 1
REMARK VINA RESULT:      -8.8      0.000      0.000
REMARK  3 active torsions:
REMARK  status: ('A' for Active; 'I' for Inactive)
REMARK    1  A    between atoms: N_4  and  C_1 
REMARK    2  A    between atoms: C_11  and  C_3 
REMARK       I    between atoms: C_5  and  N_4 
REMARK    3  A    between atoms: C_8  and  C_5 
ROOT
ATOM      1  N   UNL d   1     -49.430  11.514  23.010  0.00  0.00    -0.183 NA
ATOM      2  C   UNL d   1     -50.184  11.818  23.162  0.00  0.00     0.281 C 
ATOM      3  O   UNL d   1     -50.737  11.341  23.559  0.00  0.00    -0.265 OA
ENDROOT
BRANCH   1   4
ATOM      4  C   UNL d   1     -48.867  11.969  22.618  0.00  0.00     0.197 A 
ATOM      5  N   UNL d   1     -48.244  12.379  22.978  0.00  0.00    -0.219 NA
ATOM      6  C   UNL d   1     -47.811  12.764  22.379  0.00  0.00     0.108 A 
ATOM      7  C   UNL d   1     -48.170  12.588  21.653  0.00  0.00     0.059 A 
ATOM      8  S   UNL d   1     -48.825  12.096  21.803  0.00  0.00    -0.046 SA
BRANCH   6   9
ATOM      9  C   UNL d   1     -47.138  13.239  22.493  0.00  0.00     0.100 A 
ATOM     10  N   UNL d   1     -47.209  13.964  22.867  0.00  0.00    -0.242 NA
ATOM     11  C   UNL d   1     -46.546  14.443  22.985  0.00  0.00     0.099 A 
ATOM     12  C   UNL d   1     -45.816  14.174  22.718  0.00  0.00     0.021 A 
ATOM     13  C   UNL d   1     -45.747  13.453  22.347  0.00  0.00     0.003 A 
ATOM     14  C   UNL d   1     -46.398  12.971  22.226  0.00  0.00     0.021 A 
ENDBRANCH   6   9
ENDBRANCH   1   4
BRANCH   2  15
ATOM     15  C   UNL d   1     -50.352  12.597  22.906  0.00  0.00     0.060 A 
ATOM     16  C   UNL d   1     -50.280  13.229  23.426  0.00  0.00     0.032 A 
ATOM     17  C   UNL d   1     -50.445  13.998  23.176  0.00  0.00     0.123 A 
ATOM     18  O   UNL d   1     -50.373  14.636  23.697  0.00  0.00    -0.301 OA
ATOM     19  C   UNL d   1     -50.686  14.121  22.386  0.00  0.00     0.123 A 
ATOM     20  C   UNL d   1     -50.539  15.406  23.442  0.00  0.00     0.149 A 
ATOM     21  C   UNL d   1     -50.781  15.532  22.650  0.00  0.00     0.149 A 
ATOM     22  O   UNL d   1     -50.854  14.900  22.130  0.00  0.00    -0.301 OA
ATOM     23  C   UNL d   1     -50.756  13.487  21.873  0.00  0.00     0.027 A 
ATOM     24  C   UNL d   1     -50.590  12.723  22.129  0.00  0.00     0.007 A 
ENDBRANCH   2  15
TORSDOF 3
ENDMDL
MODEL 2
REMARK VINA RESULT:      -7.9      1.022      1.362
REMARK  3 active torsions:
REMARK  status: ('A' for Active; 'I' for Inactive)
REMARK    1  A    between atoms: N_4  and  C_1 
REMARK    2  A    between atoms: C_11  and  C_3 
REMARK       I    between atoms: C_5  and  N_4 
REMARK    3  A    between atoms: C_8  and  C_5 
ROOT
ATOM      1  N   UNL d   1     -49.579  12.035  21.550  0.00  0.00    -0.183 NA
ATOM      2  C   UNL d   1     -50.241  12.531  21.552  0.00  0.00     0.281 C 
ATOM      3  O   UNL d   1     -50.863  12.373  21.025  0.00  0.00    -0.265 OA
ENDROOT
BRANCH   1   4
ATOM      4  C   UNL d   1     -48.951  12.173  22.063  0.00  0.00     0.197 A 
ATOM      5  N   UNL d   1     -48.270  12.607  21.884  0.00  0.00    -0.219 NA
ATOM      6  C   UNL d   1     -47.781  12.607  22.560  0.00  0.00     0.108 A 
ATOM      7  C   UNL d   1     -48.165  12.172  23.151  0.00  0.00     0.059 A 
ATOM      8  S   UNL d   1     -48.890  11.903  22.842  0.00  0.00    -0.046 SA
BRANCH   6   9
ATOM      9  C   UNL d   1     -47.039  12.979  22.625  0.00  0.00     0.100 A 
ATOM     10  N   UNL d   1     -46.503  12.930  22.008  0.00  0.00    -0.242 NA
ATOM     11  C   UNL d   1     -45.764  13.296  22.063  0.00  0.00     0.099 A 
ATOM     12  C   UNL d   1     -45.583  13.709  22.751  0.00  0.00     0.021 A 
ATOM     13  C   UNL d   1     -46.117  13.757  23.363  0.00  0.00     0.003 A 
ATOM     14  C   UNL d   1     -46.851  13.398  23.318  0.00  0.00     0.021 A 
ENDBRANCH   6   9
ENDBRANCH   1   4
BRANCH   2  15
ATOM     15  C   UNL d   1     -50.248  13.172  22.090  0.00  0.00     0.060 A 
ATOM     16  C   UNL d   1     -49.970  13.910  21.859  0.00  0.00     0.032 A 
ATOM     17  C   UNL d   1     -49.976  14.545  22.387  0.00  0.00     0.123 A 
ATOM     18  O   UNL d   1     -49.698  15.288  22.157  0.00  0.00    -0.301 OA
ATOM     19  C   UNL d   1     -50.269  14.421  23.160  0.00  0.00     0.123 A 
ATOM     20  C   UNL d   1     -49.705  15.922  22.691  0.00  0.00     0.149 A 
ATOM     21  C   UNL d   1     -49.998  15.801  23.466  0.00  0.00     0.149 A 
ATOM     22  O   UNL d   1     -50.276  15.063  23.698  0.00  0.00    -0.301 OA
ATOM     23  C   UNL d   1     -50.544  13.684  23.384  0.00  0.00     0.027 A 
ATOM     24  C   UNL d   1     -50.535  13.056  22.852  0.00  0.00     0.007 A 
ENDBRANCH   2  15
TORSDOF 3
ENDMDL
MODEL 3
REMARK VINA RESULT:      -6.8      9.700     10.894
REMARK  3 active torsions:
REMARK  status: ('A' for Active; 'I' for Inactive)
REMARK    1  A    between atoms: N_4  and  C_1 
REMARK    2  A    between atoms: C_11  and  C_3 
REMARK       I    between atoms: C_5  and  N_4 
REMARK    3  A    between atoms: C_8  and  C_5 
ROOT
ATOM      1  N   UNL d   1     -40.951  15.521  18.535  0.00  0.00    -0.183 NA
ATOM      2  C   UNL d   1     -40.872  15.227  17.766  0.00  0.00     0.281 C 
ATOM      3  O   UNL d   1     -41.503  15.320  17.234  0.00  0.00    -0.265 OA
ENDROOT
BRANCH   1   4
ATOM      4  C   UNL d   1     -40.339  15.440  19.079  0.00  0.00     0.197 A 
ATOM      5  N   UNL d   1     -40.290  14.857  19.666  0.00  0.00    -0.219 NA
ATOM      6  C   UNL d   1     -39.583  14.980  20.090  0.00  0.00     0.108 A 
ATOM      7  C   UNL d   1     -39.201  15.638  19.762  0.00  0.00     0.059 A 
ATOM      8  S   UNL d   1     -39.670  15.922  19.135  0.00  0.00    -0.046 SA
BRANCH   6   9
ATOM      9  C   UNL d   1     -39.312  14.521  20.729  0.00  0.00     0.100 A 
ATOM     10  N   UNL d   1     -39.836  14.288  21.314  0.00  0.00    -0.242 NA
ATOM     11  C   UNL d   1     -39.577  13.832  21.953  0.00  0.00     0.099 A 
ATOM     12  C   UNL d   1     -38.783  13.620  21.986  0.00  0.00     0.021 A 
ATOM     13  C   UNL d   1     -38.264  13.853  21.404  0.00  0.00     0.003 A 
ATOM     14  C   UNL d   1     -38.511  14.305  20.767  0.00  0.00     0.021 A 
ENDBRANCH   6   9
ENDBRANCH   1   4
BRANCH   2  15
ATOM     15  C   UNL d   1     -40.154  14.848  17.563  0.00  0.00     0.060 A 
ATOM     16  C   UNL d   1     -40.076  14.035  17.648  0.00  0.00     0.032 A 
ATOM     17  C   UNL d   1     -39.369  13.659  17.449  0.00  0.00     0.123 A 
ATOM     18  O   UNL d   1     -39.288  12.840  17.533  0.00  0.00    -0.301 OA
ATOM     19  C   UNL d   1     -38.736  14.120  17.160  0.00  0.00     0.123 A 
ATOM     20  C   UNL d   1     -38.576  12.467  17.332  0.00  0.00     0.149 A 
ATOM     21  C   UNL d   1     -37.940  12.928  17.042  0.00  0.00     0.149 A 
ATOM     22  O   UNL d   1     -38.017  13.741  16.957  0.00  0.00    -0.301 OA
ATOM     23  C   UNL d   1     -38.819  14.930  17.077  0.00  0.00     0.027 A 
ATOM     24  C   UNL d   1     -39.527  15.298  17.278  0.00  0.00     0.007 A 
ENDBRANCH   2  15
TORSDOF 3
ENDMDL
MODEL 4
REMARK VINA RESULT:      -6.4      8.884     10.465
REMARK  3 active torsions:
REMARK  status: ('A' for Active; 'I' for Inactive)
REMARK    1  A    between atoms: N_4  and  C_1 
REMARK    2  A    between atoms: C_11  and  C_3 
REMARK       I    between atoms: C_5  and  N_4 
REMARK    3  A    between atoms: C_8  and  C_5 
ROOT
ATOM      1  N   UNL d   1     -40.972  15.616  19.863  0.00  0.00    -0.183 NA
ATOM      2  C   UNL d   1     -40.982  15.614  20.689  0.00  0.00     0.281 C 
ATOM      3  O   UNL d   1     -41.675  15.848  21.083  0.00  0.00    -0.265 OA
ENDROOT
BRANCH   1   4
ATOM      4  C   UNL d   1     -40.296  15.388  19.452  0.00  0.00     0.197 A 
ATOM      5  N   UNL d   1     -40.160  14.639  19.127  0.00  0.00    -0.219 NA
ATOM      6  C   UNL d   1     -39.410  14.650  18.762  0.00  0.00     0.108 A 
ATOM      7  C   UNL d   1     -39.089  15.406  18.865  0.00  0.00     0.059 A 
ATOM      8  S   UNL d   1     -39.639  15.863  19.293  0.00  0.00    -0.046 SA
BRANCH   6   9
ATOM      9  C   UNL d   1     -39.052  14.012  18.365  0.00  0.00     0.100 A 
ATOM     10  N   UNL d   1     -38.410  13.631  18.702  0.00  0.00    -0.242 NA
ATOM     11  C   UNL d   1     -38.048  12.997  18.316  0.00  0.00     0.099 A 
ATOM     12  C   UNL d   1     -38.347  12.759  17.588  0.00  0.00     0.021 A 
ATOM     13  C   UNL d   1     -38.985  13.139  17.255  0.00  0.00     0.003 A 
ATOM     14  C   UNL d   1     -39.351  13.769  17.629  0.00  0.00     0.021 A 
ENDBRANCH   6   9
ENDBRANCH   1   4
BRANCH   2  15
ATOM     15  C   UNL d   1     -40.287  15.373  21.089  0.00  0.00     0.060 A 
ATOM     16  C   UNL d   1     -40.204  14.597  21.345  0.00  0.00     0.032 A 
ATOM     17  C   UNL d   1     -39.520  14.357  21.740  0.00  0.00     0.123 A 
ATOM     18  O   UNL d   1     -39.433  13.577  21.999  0.00  0.00    -0.301 OA
ATOM     19  C   UNL d   1     -38.916  14.918  21.874  0.00  0.00     0.123 A 
ATOM     20  C   UNL d   1     -38.745  13.341  22.395  0.00  0.00     0.149 A 
ATOM     21  C   UNL d   1     -38.137  13.902  22.530  0.00  0.00     0.149 A 
ATOM     22  O   UNL d   1     -38.221  14.678  22.274  0.00  0.00    -0.301 OA
ATOM     23  C   UNL d   1     -39.004  15.690  21.616  0.00  0.00     0.027 A 
ATOM     24  C   UNL d   1     -39.689  15.922  21.224  0.00  0.00     0.007 A 
ENDBRANCH   2  15
TORSDOF 3
ENDMDL
MODEL 5
REMARK VINA RESULT:      -6.2      1.392      2.583
REMARK  3 active torsions:
REMARK  status: ('A' for Active; 'I' for Inactive)
REMARK    1  A    between atoms: N_4  and  C_1 
REMARK    2  A    between atoms: C_11  and  C_3 
REMARK       I    between atoms: C_5  and  N_4 
REMARK    3  A    between atoms: C_8  and  C_5 
ROOT
ATOM      1  N   UNL d   1     -49.687  15.299  21.827  0.00  0.00    -0.183 NA
ATOM      2  C   UNL d   1     -50.396  14.877  21.782  0.00  0.00     0.281 C 
ATOM      3  O   UNL d   1     -50.991  15.144  21.267  0.00  0.00    -0.265 OA
ENDROOT
BRANCH   1   4
ATOM      4  C   UNL d   1     -49.084  15.053  22.330  0.00  0.00     0.197 A 
ATOM      5  N   UNL d   1     -48.450  14.565  22.118  0.00  0.00    -0.219 NA
ATOM      6  C   UNL d   1     -47.974  14.456  22.794  0.00  0.00     0.108 A 
ATOM      7  C   UNL d   1     -48.318  14.878  23.418  0.00  0.00     0.059 A 
ATOM      8  S   UNL d   1     -49.007  15.247  23.130  0.00  0.00    -0.046 SA
BRANCH   6   9
ATOM      9  C   UNL d   1     -47.276  14.003  22.831  0.00  0.00     0.100 A 
ATOM     10  N   UNL d   1     -47.191  13.433  23.411  0.00  0.00    -0.242 NA
ATOM     11  C   UNL d   1     -46.502  12.978  23.456  0.00  0.00     0.099 A 
ATOM     12  C   UNL d   1     -45.908  13.113  22.904  0.00  0.00     0.021 A 
ATOM     13  C   UNL d   1     -45.995  13.681  22.328  0.00  0.00     0.003 A 
ATOM     14  C   UNL d   1     -46.673  14.136  22.275  0.00  0.00     0.021 A 
ENDBRANCH   6   9
ENDBRANCH   1   4
BRANCH   2  15
ATOM     15  C   UNL d   1     -50.478  14.196  22.262  0.00  0.00     0.060 A 
ATOM     16  C   UNL d   1     -50.237  13.461  21.983  0.00  0.00     0.032 A 
ATOM     17  C   UNL d   1     -50.316  12.788  22.455  0.00  0.00     0.123 A 
ATOM     18  O   UNL d   1     -50.075  12.048  22.177  0.00  0.00    -0.301 OA
ATOM     19  C   UNL d   1     -50.645  12.869  23.218  0.00  0.00     0.123 A 
ATOM     20  C   UNL d   1     -50.156  11.375  22.653  0.00  0.00     0.149 A 
ATOM     21  C   UNL d   1     -50.486  11.453  23.419  0.00  0.00     0.149 A 
ATOM     22  O   UNL d   1     -50.727  12.187  23.698  0.00  0.00    -0.301 OA
ATOM     23  C   UNL d   1     -50.884  13.603  23.490  0.00  0.00     0.027 A 
ATOM     24  C   UNL d   1     -50.802  14.269  23.015  0.00  0.00     0.007 A 
ENDBRANCH   2  15
TORSDOF 3
ENDMDL
