MODEL 1
REMARK VINA RESULT:      19.9      0.000      0.000
REMARK  5 active torsions:
REMARK  status: ('A' for Active; 'I' for Inactive)
REMARK    1  A    between atoms: C_7  and  C_4 
REMARK    2  A    between atoms: O_9  and  C_7 
REMARK    3  A    between atoms: O_15  and  C_8 
REMARK    4  A    between atoms: C_17  and  O_9 
REMARK    5  A    between atoms: O_16  and  C_11 
ROOT
ATOM      1  C   UNL d   1      45.811 -16.888  43.181  0.00  0.00     0.228 A 
ATOM      2  C   UNL d   1      45.981 -17.539  43.661  0.00  0.00     0.070 A 
ATOM      3  S   UNL d   1      45.563 -16.174  43.527  0.00  0.00    -0.040 SA
ATOM      4  C   UNL d   1      45.488 -16.121  44.355  0.00  0.00     0.096 A 
ATOM      5  C   UNL d   1      45.907 -17.485  44.481  0.00  0.00     0.006 A 
ATOM      6  C   UNL d   1      45.661 -16.781  44.829  0.00  0.00     0.012 A 
ATOM      7  C   UNL d   1      46.228 -18.245  43.307  0.00  0.00     0.120 A 
ATOM      8  O   UNL d   1      45.886 -16.941  42.361  0.00  0.00    -0.279 OA
ATOM      9  C   UNL d   1      46.398 -18.896  43.779  0.00  0.00     0.116 A 
ATOM     10  C   UNL d   1      46.078 -18.138  44.955  0.00  0.00     0.002 A 
ATOM     11  C   UNL d   1      46.324 -18.843  44.599  0.00  0.00     0.026 A 
ENDROOT
BRANCH   4  12
ATOM     12  C   UNL d   1      45.242 -15.412  44.694  0.00  0.00     0.306 C 
ATOM     13  O   UNL d   1      44.461 -15.332  44.944  0.00  0.00    -0.258 OA
BRANCH  12  14
ATOM     14  O   UNL d   1      45.770 -14.787  44.783  0.00  0.00    -0.273 OA
BRANCH  14  15
ATOM     15  C   UNL d   1      45.504 -14.008  44.726  0.00  0.00     0.103 C 
ATOM     16  C   UNL d   1      44.736 -13.818  44.954  0.00  0.00     0.027 C 
ATOM     17  C   UNL d   1      46.009 -13.420  44.439  0.00  0.00     0.027 C 
ENDBRANCH  14  15
ENDBRANCH  12  14
ENDBRANCH   4  12
BRANCH   7  18
ATOM     18  O   UNL d   1      46.302 -18.298  42.487  0.00  0.00    -0.326 OA
ATOM     19  C   UNL d   1      46.450 -19.035  42.133  0.00  0.00     0.181 C 
ENDBRANCH   7  18
BRANCH   9  20
ATOM     20  O   UNL d   1      46.645 -19.605  43.433  0.00  0.00    -0.326 OA
ATOM     21  C   UNL d   1      46.428 -20.325  43.768  0.00  0.00     0.181 C 
ENDBRANCH   9  20
TORSDOF 5
ENDMDL
