MODEL 1
REMARK VINA RESULT:      -6.1      0.000      0.000
REMARK  3 active torsions:
REMARK  status: ('A' for Active; 'I' for Inactive)
REMARK    1  A    between atoms: C_6  and  C_1 
REMARK    2  A    between atoms: C_7  and  C_5 
REMARK    3  A    between atoms: O_15  and  C_12 
ROOT
ATOM      1  C   UNL d   1     -41.925-122.120 -54.694  0.00  0.00     0.169 A 
ATOM      2  C   UNL d   1     -42.277-121.834 -54.080  0.00  0.00     0.048 A 
ATOM      3  N   UNL d   1     -41.123-122.804 -53.913  0.00  0.00    -0.148 NA
ATOM      4  N   UNL d   1     -41.352-122.602 -54.606  0.00  0.00    -0.142 NA
ATOM      5  C   UNL d   1     -41.475-122.518 -53.300  0.00  0.00     0.105 A 
ENDROOT
BRANCH   5   6
ATOM      6  C   UNL d   1     -41.388-122.603 -52.489  0.00  0.00     0.020 A 
ATOM      7  C   UNL d   1     -41.433-121.940 -51.996  0.00  0.00     0.004 A 
ATOM      8  C   UNL d   1     -41.345-122.024 -51.179  0.00  0.00     0.024 A 
ATOM      9  C   UNL d   1     -41.211-122.772 -50.852  0.00  0.00     0.094 A 
ATOM     10  C   UNL d   1     -41.166-123.436 -51.346  0.00  0.00     0.024 A 
ATOM     11  C   UNL d   1     -41.255-123.348 -52.165  0.00  0.00     0.004 A 
BRANCH   9  12
ATOM     12  O   UNL d   1     -41.124-122.857 -50.042  0.00  0.00    -0.328 OA
ATOM     13  C   UNL d   1     -41.701-123.247 -49.603  0.00  0.00     0.181 C 
ENDBRANCH   9  12
ENDBRANCH   5   6
BRANCH   1  14
ATOM     14  C   UNL d   1     -42.155-121.918 -55.387  0.00  0.00     0.231 C 
ATOM     15  O   UNL d   1     -42.868-122.072 -55.608  0.00  0.00    -0.643 OA
ATOM     16  O   UNL d   1     -41.684-121.565 -55.859  0.00  0.00    -0.643 OA
ENDBRANCH   1  14
TORSDOF 3
ENDMDL
MODEL 2
REMARK VINA RESULT:      -4.9      1.753      2.721
REMARK  3 active torsions:
REMARK  status: ('A' for Active; 'I' for Inactive)
REMARK    1  A    between atoms: C_6  and  C_1 
REMARK    2  A    between atoms: C_7  and  C_5 
REMARK    3  A    between atoms: O_15  and  C_12 
ROOT
ATOM      1  C   UNL d   1     -41.413-122.662 -52.294  0.00  0.00     0.169 A 
ATOM      2  C   UNL d   1     -41.123-123.222 -51.864  0.00  0.00     0.048 A 
ATOM      3  N   UNL d   1     -42.033-122.178 -51.244  0.00  0.00    -0.148 NA
ATOM      4  N   UNL d   1     -41.865-122.146 -51.982  0.00  0.00    -0.142 NA
ATOM      5  C   UNL d   1     -41.743-122.737 -50.814  0.00  0.00     0.105 A 
ENDROOT
BRANCH   5   6
ATOM      6  C   UNL d   1     -41.797-122.948 -50.024  0.00  0.00     0.020 A 
ATOM      7  C   UNL d   1     -41.124-123.203 -49.616  0.00  0.00     0.004 A 
ATOM      8  C   UNL d   1     -41.177-123.416 -48.821  0.00  0.00     0.024 A 
ATOM      9  C   UNL d   1     -41.904-123.374 -48.428  0.00  0.00     0.094 A 
ATOM     10  C   UNL d   1     -42.578-123.119 -48.836  0.00  0.00     0.024 A 
ATOM     11  C   UNL d   1     -42.521-122.906 -49.635  0.00  0.00     0.004 A 
BRANCH   9  12
ATOM     12  O   UNL d   1     -41.959-123.585 -47.638  0.00  0.00    -0.328 OA
ATOM     13  C   UNL d   1     -42.246-123.046 -47.086  0.00  0.00     0.181 C 
ENDBRANCH   9  12
ENDBRANCH   5   6
BRANCH   1  14
ATOM     14  C   UNL d   1     -41.244-122.630 -53.032  0.00  0.00     0.231 C 
ATOM     15  O   UNL d   1     -41.195-121.953 -53.379  0.00  0.00    -0.643 OA
ATOM     16  O   UNL d   1     -41.124-123.262 -53.425  0.00  0.00    -0.643 OA
ENDBRANCH   1  14
TORSDOF 3
ENDMDL
MODEL 3
REMARK VINA RESULT:      -4.8      2.163      4.720
REMARK  3 active torsions:
REMARK  status: ('A' for Active; 'I' for Inactive)
REMARK    1  A    between atoms: C_6  and  C_1 
REMARK    2  A    between atoms: C_7  and  C_5 
REMARK    3  A    between atoms: O_15  and  C_12 
ROOT
ATOM      1  C   UNL d   1     -42.165-123.146 -48.773  0.00  0.00     0.169 A 
ATOM      2  C   UNL d   1     -42.590-122.837 -49.326  0.00  0.00     0.048 A 
ATOM      3  N   UNL d   1     -41.171-123.291 -49.616  0.00  0.00    -0.148 NA
ATOM      4  N   UNL d   1     -41.461-123.370 -48.921  0.00  0.00    -0.142 NA
ATOM      5  C   UNL d   1     -41.595-122.983 -50.170  0.00  0.00     0.105 A 
ENDROOT
BRANCH   5   6
ATOM      6  C   UNL d   1     -41.478-122.812 -50.963  0.00  0.00     0.020 A 
ATOM      7  C   UNL d   1     -41.307-123.422 -51.497  0.00  0.00     0.004 A 
ATOM      8  C   UNL d   1     -41.188-123.252 -52.295  0.00  0.00     0.024 A 
ATOM      9  C   UNL d   1     -41.240-122.470 -52.565  0.00  0.00     0.094 A 
ATOM     10  C   UNL d   1     -41.411-121.861 -52.031  0.00  0.00     0.024 A 
ATOM     11  C   UNL d   1     -41.530-122.035 -51.230  0.00  0.00     0.004 A 
BRANCH   9  12
ATOM     12  O   UNL d   1     -41.123-122.300 -53.358  0.00  0.00    -0.328 OA
ATOM     13  C   UNL d   1     -41.381-122.826 -53.936  0.00  0.00     0.181 C 
ENDBRANCH   9  12
ENDBRANCH   5   6
BRANCH   1  14
ATOM     14  C   UNL d   1     -42.456-123.225 -48.077  0.00  0.00     0.231 C 
ATOM     15  O   UNL d   1     -42.940-123.796 -47.933  0.00  0.00    -0.643 OA
ATOM     16  O   UNL d   1     -42.270-122.744 -47.527  0.00  0.00    -0.643 OA
ENDBRANCH   1  14
TORSDOF 3
ENDMDL
MODEL 4
REMARK VINA RESULT:      -4.6      1.155      4.156
REMARK  3 active torsions:
REMARK  status: ('A' for Active; 'I' for Inactive)
REMARK    1  A    between atoms: C_6  and  C_1 
REMARK    2  A    between atoms: C_7  and  C_5 
REMARK    3  A    between atoms: O_15  and  C_12 
ROOT
ATOM      1  C   UNL d   1     -41.412-123.157 -50.663  0.00  0.00     0.169 A 
ATOM      2  C   UNL d   1     -41.399-122.488 -51.030  0.00  0.00     0.048 A 
ATOM      3  N   UNL d   1     -41.476-123.786 -51.813  0.00  0.00    -0.148 NA
ATOM      4  N   UNL d   1     -41.450-123.800 -51.057  0.00  0.00    -0.142 NA
ATOM      5  C   UNL d   1     -41.464-123.117 -52.180  0.00  0.00     0.105 A 
ENDROOT
BRANCH   5   6
ATOM      6  C   UNL d   1     -41.483-122.887 -52.966  0.00  0.00     0.020 A 
ATOM      7  C   UNL d   1     -41.123-123.358 -53.544  0.00  0.00     0.004 A 
ATOM      8  C   UNL d   1     -41.142-123.127 -54.337  0.00  0.00     0.024 A 
ATOM      9  C   UNL d   1     -41.520-122.424 -54.555  0.00  0.00     0.094 A 
ATOM     10  C   UNL d   1     -41.879-121.953 -53.977  0.00  0.00     0.024 A 
ATOM     11  C   UNL d   1     -41.859-122.187 -53.182  0.00  0.00     0.004 A 
BRANCH   9  12
ATOM     12  O   UNL d   1     -41.539-122.194 -55.341  0.00  0.00    -0.328 OA
ATOM     13  C   UNL d   1     -42.243-121.934 -55.679  0.00  0.00     0.181 C 
ENDBRANCH   9  12
ENDBRANCH   5   6
BRANCH   1  14
ATOM     14  C   UNL d   1     -41.386-123.171 -49.906  0.00  0.00     0.231 C 
ATOM     15  O   UNL d   1     -41.262-122.524 -49.522  0.00  0.00    -0.643 OA
ATOM     16  O   UNL d   1     -41.481-123.817 -49.531  0.00  0.00    -0.643 OA
ENDBRANCH   1  14
TORSDOF 3
ENDMDL
MODEL 5
REMARK VINA RESULT:      -3.3      2.595      5.231
REMARK  3 active torsions:
REMARK  status: ('A' for Active; 'I' for Inactive)
REMARK    1  A    between atoms: C_6  and  C_1 
REMARK    2  A    between atoms: C_7  and  C_5 
REMARK    3  A    between atoms: O_15  and  C_12 
ROOT
ATOM      1  C   UNL d   1     -41.962-123.124 -47.969  0.00  0.00     0.169 A 
ATOM      2  C   UNL d   1     -41.376-122.880 -48.393  0.00  0.00     0.048 A 
ATOM      3  N   UNL d   1     -42.671-123.313 -49.056  0.00  0.00    -0.148 NA
ATOM      4  N   UNL d   1     -42.603-123.339 -48.302  0.00  0.00    -0.142 NA
ATOM      5  C   UNL d   1     -42.086-123.069 -49.480  0.00  0.00     0.105 A 
ENDROOT
BRANCH   5   6
ATOM      6  C   UNL d   1     -41.955-122.968 -50.283  0.00  0.00     0.020 A 
ATOM      7  C   UNL d   1     -41.534-123.539 -50.710  0.00  0.00     0.004 A 
ATOM      8  C   UNL d   1     -41.402-123.437 -51.518  0.00  0.00     0.024 A 
ATOM      9  C   UNL d   1     -41.691-122.764 -51.904  0.00  0.00     0.094 A 
ATOM     10  C   UNL d   1     -42.111-122.193 -51.477  0.00  0.00     0.024 A 
ATOM     11  C   UNL d   1     -42.242-122.298 -50.666  0.00  0.00     0.004 A 
BRANCH   9  12
ATOM     12  O   UNL d   1     -41.560-122.663 -52.707  0.00  0.00    -0.328 OA
ATOM     13  C   UNL d   1     -41.326-123.300 -53.171  0.00  0.00     0.181 C 
ENDBRANCH   9  12
ENDBRANCH   5   6
BRANCH   1  14
ATOM     14  C   UNL d   1     -41.893-123.149 -47.214  0.00  0.00     0.231 C 
ATOM     15  O   UNL d   1     -41.340-122.751 -46.872  0.00  0.00    -0.643 OA
ATOM     16  O   UNL d   1     -42.367-123.564 -46.800  0.00  0.00    -0.643 OA
ENDBRANCH   1  14
TORSDOF 3
ENDMDL
