MODEL 1
REMARK VINA RESULT:      -5.2      0.000      0.000
REMARK  2 active torsions:
REMARK  status: ('A' for Active; 'I' for Inactive)
REMARK    1  A    between atoms: C_7  and  C_1 
REMARK    2  A    between atoms: C_8  and  C_7 
ROOT
ATOM      1  C   UNL d   1     -41.371-122.422 -52.493  0.00  0.00     0.118 A 
ATOM      2  N   UNL d   1     -41.835-123.325 -51.487  0.00  0.00    -0.178 NA
ATOM      3  N   UNL d   1     -41.646-121.947 -51.175  0.00  0.00    -0.178 NA
ATOM      4  C   UNL d   1     -41.588-123.182 -52.265  0.00  0.00     0.286 A 
ATOM      5  C   UNL d   1     -41.399-121.805 -51.952  0.00  0.00     0.286 A 
ATOM      6  C   UNL d   1     -41.870-122.709 -50.924  0.00  0.00     0.226 A 
ATOM      7  S   UNL d   1     -42.115-122.850 -50.152  0.00  0.00    -0.037 SA
ATOM      8  O   UNL d   1     -41.563-123.817 -52.810  0.00  0.00    -0.265 OA
ATOM      9  O   UNL d   1     -41.180-121.030 -52.177  0.00  0.00    -0.265 OA
ENDROOT
BRANCH   1  10
ATOM     10  C   UNL d   1     -41.123-122.279 -53.273  0.00  0.00     0.034 C 
BRANCH  10  11
ATOM     11  C   UNL d   1     -41.673-122.062 -53.837  0.00  0.00     0.100 A 
ATOM     12  O   UNL d   1     -41.525-122.226 -54.635  0.00  0.00    -0.307 OA
ATOM     13  C   UNL d   1     -42.170-121.947 -55.067  0.00  0.00     0.100 A 
ATOM     14  C   UNL d   1     -42.262-121.992 -55.888  0.00  0.00     0.027 C 
ATOM     15  C   UNL d   1     -42.697-121.622 -54.551  0.00  0.00     0.027 A 
ATOM     16  C   UNL d   1     -42.409-121.682 -53.780  0.00  0.00     0.027 A 
ENDBRANCH  10  11
ENDBRANCH   1  10
TORSDOF 2
ENDMDL
MODEL 2
REMARK VINA RESULT:      -4.9      1.807      3.680
REMARK  2 active torsions:
REMARK  status: ('A' for Active; 'I' for Inactive)
REMARK    1  A    between atoms: C_7  and  C_1 
REMARK    2  A    between atoms: C_8  and  C_7 
ROOT
ATOM      1  C   UNL d   1     -41.227-122.387 -51.772  0.00  0.00     0.118 A 
ATOM      2  N   UNL d   1     -41.405-121.795 -53.060  0.00  0.00    -0.178 NA
ATOM      3  N   UNL d   1     -41.304-123.211 -52.935  0.00  0.00    -0.178 NA
ATOM      4  C   UNL d   1     -41.319-121.716 -52.241  0.00  0.00     0.286 A 
ATOM      5  C   UNL d   1     -41.219-123.132 -52.115  0.00  0.00     0.286 A 
ATOM      6  C   UNL d   1     -41.399-122.546 -53.426  0.00  0.00     0.226 A 
ATOM      7  S   UNL d   1     -41.484-122.624 -54.241  0.00  0.00    -0.037 SA
ATOM      8  O   UNL d   1     -41.328-120.952 -51.899  0.00  0.00    -0.265 OA
ATOM      9  O   UNL d   1     -41.125-123.818 -51.645  0.00  0.00    -0.265 OA
ENDROOT
BRANCH   1  10
ATOM     10  C   UNL d   1     -41.141-122.308 -50.949  0.00  0.00     0.034 C 
BRANCH  10  11
ATOM     11  C   UNL d   1     -41.798-122.376 -50.468  0.00  0.00     0.100 A 
ATOM     12  O   UNL d   1     -41.723-122.735 -49.725  0.00  0.00    -0.307 OA
ATOM     13  C   UNL d   1     -42.469-122.724 -49.371  0.00  0.00     0.100 A 
ATOM     14  C   UNL d   1     -42.657-123.024 -48.623  0.00  0.00     0.027 C 
ATOM     15  C   UNL d   1     -42.984-122.371 -49.880  0.00  0.00     0.027 A 
ATOM     16  C   UNL d   1     -42.589-122.146 -50.569  0.00  0.00     0.027 A 
ENDBRANCH  10  11
ENDBRANCH   1  10
TORSDOF 2
ENDMDL
MODEL 3
REMARK VINA RESULT:      -4.3      1.840      3.438
REMARK  2 active torsions:
REMARK  status: ('A' for Active; 'I' for Inactive)
REMARK    1  A    between atoms: C_7  and  C_1 
REMARK    2  A    between atoms: C_8  and  C_7 
ROOT
ATOM      1  C   UNL d   1     -41.489-122.418 -53.041  0.00  0.00     0.118 A 
ATOM      2  N   UNL d   1     -41.876-121.507 -54.072  0.00  0.00    -0.178 NA
ATOM      3  N   UNL d   1     -42.191-122.892 -54.190  0.00  0.00    -0.178 NA
ATOM      4  C   UNL d   1     -41.511-121.653 -53.343  0.00  0.00     0.286 A 
ATOM      5  C   UNL d   1     -41.827-123.037 -53.461  0.00  0.00     0.286 A 
ATOM      6  C   UNL d   1     -42.224-122.125 -54.512  0.00  0.00     0.226 A 
ATOM      7  S   UNL d   1     -42.587-121.981 -55.237  0.00  0.00    -0.037 SA
ATOM      8  O   UNL d   1     -41.169-121.015 -52.921  0.00  0.00    -0.265 OA
ATOM      9  O   UNL d   1     -41.808-123.817 -53.160  0.00  0.00    -0.265 OA
ENDROOT
BRANCH   1  10
ATOM     10  C   UNL d   1     -41.123-122.564 -52.309  0.00  0.00     0.034 C 
BRANCH  10  11
ATOM     11  C   UNL d   1     -41.561-122.509 -51.622  0.00  0.00     0.100 A 
ATOM     12  O   UNL d   1     -41.526-123.122 -51.067  0.00  0.00    -0.307 OA
ATOM     13  C   UNL d   1     -42.020-122.914 -50.439  0.00  0.00     0.100 A 
ATOM     14  C   UNL d   1     -42.157-123.363 -49.757  0.00  0.00     0.027 C 
ATOM     15  C   UNL d   1     -42.348-122.197 -50.605  0.00  0.00     0.027 A 
ATOM     16  C   UNL d   1     -42.077-121.926 -51.336  0.00  0.00     0.027 A 
ENDBRANCH  10  11
ENDBRANCH   1  10
TORSDOF 2
ENDMDL
