MODEL 1
REMARK VINA RESULT:       0.4      0.000      0.000
REMARK  4 active torsions:
REMARK  status: ('A' for Active; 'I' for Inactive)
REMARK    1  A    between atoms: N_7  and  C_1 
REMARK    2  A    between atoms: C_8  and  C_4 
REMARK    3  A    between atoms: C_10  and  N_7 
REMARK    4  A    between atoms: C_12  and  C_8 
ROOT
ATOM      1  C   UNL d   1     -41.210-122.212 -51.068  0.00  0.00     0.184 A 
ATOM      2  N   UNL d   1     -41.211-122.906 -51.524  0.00  0.00    -0.129 NA
ATOM      3  N   UNL d   1     -41.182-122.856 -52.348  0.00  0.00    -0.147 NA
ATOM      4  C   UNL d   1     -41.154-122.129 -52.719  0.00  0.00     0.103 A 
ATOM      5  C   UNL d   1     -41.181-121.484 -51.448  0.00  0.00     0.039 A 
ATOM      6  C   UNL d   1     -41.152-121.434 -52.273  0.00  0.00     0.022 A 
ATOM      7  C   UNL d   1     -41.180-120.791 -50.981  0.00  0.00     0.003 A 
ATOM      8  C   UNL d   1     -41.123-120.691 -52.641  0.00  0.00     0.002 A 
ATOM      9  C   UNL d   1     -41.123-120.013 -52.186  0.00  0.00     0.000 A 
ATOM     10  C   UNL d   1     -41.151-120.063 -51.361  0.00  0.00     0.000 A 
ENDROOT
BRANCH   1  11
ATOM     11  N   UNL d   1     -41.238-122.261 -50.253  0.00  0.00    -0.225 NA
BRANCH  11  12
ATOM     12  C   UNL d   1     -41.857-122.646 -49.883  0.00  0.00     0.083 A 
ATOM     13  C   UNL d   1     -42.606-122.309 -49.868  0.00  0.00     0.020 A 
ATOM     14  C   UNL d   1     -43.220-122.695 -49.499  0.00  0.00     0.013 A 
ATOM     15  C   UNL d   1     -43.109-123.422 -49.137  0.00  0.00     0.058 A 
ATOM     16  C   UNL d   1     -42.355-123.762 -49.152  0.00  0.00     0.013 A 
ATOM     17 CL   UNL d   1     -43.709-123.815 -48.768  0.00  0.00    -0.082 Cl
ATOM     18  C   UNL d   1     -41.726-123.377 -49.524  0.00  0.00     0.020 A 
ENDBRANCH  11  12
ENDBRANCH   1  11
BRANCH   4  19
ATOM     19  C   UNL d   1     -41.125-122.079 -53.544  0.00  0.00     0.021 C 
BRANCH  19  20
ATOM     20  C   UNL d   1     -41.631-122.550 -54.003  0.00  0.00     0.005 A 
ATOM     21  C   UNL d   1     -42.348-122.249 -54.254  0.00  0.00     0.021 A 
ATOM     22  C   UNL d   1     -42.845-122.719 -54.709  0.00  0.00     0.099 A 
ATOM     23  N   UNL d   1     -42.622-123.484 -54.909  0.00  0.00    -0.242 NA
ATOM     24  C   UNL d   1     -41.900-123.784 -54.656  0.00  0.00     0.099 A 
ATOM     25  C   UNL d   1     -41.402-123.304 -54.196  0.00  0.00     0.021 A 
ENDBRANCH  19  20
ENDBRANCH   4  19
TORSDOF 4
ENDMDL
MODEL 2
REMARK VINA RESULT:       1.4      1.642      3.965
REMARK  4 active torsions:
REMARK  status: ('A' for Active; 'I' for Inactive)
REMARK    1  A    between atoms: N_7  and  C_1 
REMARK    2  A    between atoms: C_8  and  C_4 
REMARK    3  A    between atoms: C_10  and  N_7 
REMARK    4  A    between atoms: C_12  and  C_8 
ROOT
ATOM      1  C   UNL d   1     -41.214-122.291 -52.649  0.00  0.00     0.184 A 
ATOM      2  N   UNL d   1     -41.285-123.103 -52.492  0.00  0.00    -0.129 NA
ATOM      3  N   UNL d   1     -41.345-123.369 -51.712  0.00  0.00    -0.147 NA
ATOM      4  C   UNL d   1     -41.335-122.837 -51.092  0.00  0.00     0.103 A 
ATOM      5  C   UNL d   1     -41.205-121.763 -52.019  0.00  0.00     0.039 A 
ATOM      6  C   UNL d   1     -41.265-122.028 -51.238  0.00  0.00     0.022 A 
ATOM      7  C   UNL d   1     -41.133-120.947 -52.185  0.00  0.00     0.003 A 
ATOM      8  C   UNL d   1     -41.254-121.481 -50.614  0.00  0.00     0.002 A 
ATOM      9  C   UNL d   1     -41.184-120.684 -50.775  0.00  0.00     0.000 A 
ATOM     10  C   UNL d   1     -41.124-120.419 -51.556  0.00  0.00     0.000 A 
ENDROOT
BRANCH   1  11
ATOM     11  N   UNL d   1     -41.155-122.028 -53.420  0.00  0.00    -0.225 NA
BRANCH  11  12
ATOM     12  C   UNL d   1     -41.638-122.340 -54.001  0.00  0.00     0.083 A 
ATOM     13  C   UNL d   1     -42.254-121.893 -54.313  0.00  0.00     0.020 A 
ATOM     14  C   UNL d   1     -42.733-122.207 -54.891  0.00  0.00     0.013 A 
ATOM     15  C   UNL d   1     -42.616-122.968 -55.175  0.00  0.00     0.058 A 
ATOM     16  C   UNL d   1     -41.996-123.417 -54.861  0.00  0.00     0.013 A 
ATOM     17 CL   UNL d   1     -43.084-123.289 -55.747  0.00  0.00    -0.082 Cl
ATOM     18  C   UNL d   1     -41.504-123.107 -54.274  0.00  0.00     0.020 A 
ENDBRANCH  11  12
ENDBRANCH   1  11
BRANCH   4  19
ATOM     19  C   UNL d   1     -41.396-123.103 -50.311  0.00  0.00     0.021 C 
BRANCH  19  20
ATOM     20  C   UNL d   1     -42.132-123.343 -50.012  0.00  0.00     0.005 A 
ATOM     21  C   UNL d   1     -42.760-123.452 -50.522  0.00  0.00     0.021 A 
ATOM     22  C   UNL d   1     -43.487-123.689 -50.221  0.00  0.00     0.099 A 
ATOM     23  N   UNL d   1     -43.579-123.816 -49.414  0.00  0.00    -0.242 NA
ATOM     24  C   UNL d   1     -42.945-123.706 -48.904  0.00  0.00     0.099 A 
ATOM     25  C   UNL d   1     -42.213-123.466 -49.214  0.00  0.00     0.021 A 
ENDBRANCH  19  20
ENDBRANCH   4  19
TORSDOF 4
ENDMDL
