MODEL 1
REMARK VINA RESULT:      -4.0      0.000      0.000
REMARK  0 active torsions:
REMARK  status: ('A' for Active; 'I' for Inactive)
ROOT
ATOM      1  C   UNL d   1     -41.686-122.055 -51.162  0.00  0.00     0.166 A 
ATOM      2  C   UNL d   1     -41.817-122.805 -51.475  0.00  0.00     0.117 A 
ATOM      3  N   UNL d   1     -41.407-121.587 -51.784  0.00  0.00    -0.288 N 
ATOM      4  C   UNL d   1     -41.627-122.801 -52.260  0.00  0.00     0.038 A 
ATOM      5  N   UNL d   1     -41.833-121.890 -50.363  0.00  0.00    -0.225 NA
ATOM      6  C   UNL d   1     -41.371-122.041 -52.453  0.00  0.00     0.067 A 
ATOM      7  N   UNL d   1     -42.099-123.381 -50.962  0.00  0.00    -0.241 NA
ATOM      8  C   UNL d   1     -42.113-122.480 -49.876  0.00  0.00     0.101 A 
ATOM      9  C   UNL d   1     -42.242-123.225 -50.189  0.00  0.00     0.099 A 
ATOM     10  C   UNL d   1     -41.137-121.868 -53.224  0.00  0.00     0.018 A 
ATOM     11  C   UNL d   1     -41.649-123.388 -52.838  0.00  0.00     0.015 A 
ATOM     12  C   UNL d   1     -41.415-123.215 -53.610  0.00  0.00     0.058 A 
ATOM     13  C   UNL d   1     -41.205-120.804 -51.727  0.00  0.00     0.101 C 
ATOM     14  C   UNL d   1     -41.159-122.455 -53.803  0.00  0.00     0.013 A 
ATOM     15 CL   UNL d   1     -41.437-123.803 -54.189  0.00  0.00    -0.082 Cl
ATOM     16  C   UNL d   1     -42.256-122.323 -49.100  0.00  0.00     0.021 A 
ATOM     17  C   UNL d   1     -42.522-123.814 -49.702  0.00  0.00     0.021 A 
ATOM     18  C   UNL d   1     -42.679-123.677 -48.896  0.00  0.00     0.002 A 
ATOM     19  C   UNL d   1     -42.542-122.932 -48.612  0.00  0.00     0.002 A 
ENDROOT
TORSDOF 0
ENDMDL
MODEL 2
REMARK VINA RESULT:      -2.5      1.918      4.104
REMARK  0 active torsions:
REMARK  status: ('A' for Active; 'I' for Inactive)
ROOT
ATOM      1  C   UNL d   1     -41.638-122.782 -53.069  0.00  0.00     0.166 A 
ATOM      2  C   UNL d   1     -41.637-121.960 -53.042  0.00  0.00     0.117 A 
ATOM      3  N   UNL d   1     -41.469-123.041 -52.302  0.00  0.00    -0.288 N 
ATOM      4  C   UNL d   1     -41.473-121.720 -52.289  0.00  0.00     0.038 A 
ATOM      5  N   UNL d   1     -41.791-123.190 -53.774  0.00  0.00    -0.225 NA
ATOM      6  C   UNL d   1     -41.368-122.395 -51.827  0.00  0.00     0.067 A 
ATOM      7  N   UNL d   1     -41.793-121.561 -53.743  0.00  0.00    -0.241 NA
ATOM      8  C   UNL d   1     -41.942-122.771 -54.456  0.00  0.00     0.101 A 
ATOM      9  C   UNL d   1     -41.940-121.953 -54.427  0.00  0.00     0.099 A 
ATOM     10  C   UNL d   1     -41.193-122.322 -51.024  0.00  0.00     0.018 A 
ATOM     11  C   UNL d   1     -41.403-120.971 -51.949  0.00  0.00     0.015 A 
ATOM     12  C   UNL d   1     -41.228-120.899 -51.146  0.00  0.00     0.058 A 
ATOM     13  C   UNL d   1     -41.414-123.816 -52.071  0.00  0.00     0.101 C 
ATOM     14  C   UNL d   1     -41.123-121.574 -50.684  0.00  0.00     0.013 A 
ATOM     15 CL   UNL d   1     -41.157-120.150 -50.805  0.00  0.00    -0.082 Cl
ATOM     16  C   UNL d   1     -42.090-123.164 -55.142  0.00  0.00     0.021 A 
ATOM     17  C   UNL d   1     -42.092-121.535 -55.109  0.00  0.00     0.021 A 
ATOM     18  C   UNL d   1     -42.248-121.918 -55.831  0.00  0.00     0.002 A 
ATOM     19  C   UNL d   1     -42.244-122.727 -55.831  0.00  0.00     0.002 A 
ENDROOT
TORSDOF 0
ENDMDL
MODEL 3
REMARK VINA RESULT:      -1.8      1.500      2.391
REMARK  0 active torsions:
REMARK  status: ('A' for Active; 'I' for Inactive)
ROOT
ATOM      1  C   UNL d   1     -41.474-122.948 -53.053  0.00  0.00     0.166 A 
ATOM      2  C   UNL d   1     -41.808-122.198 -53.003  0.00  0.00     0.117 A 
ATOM      3  N   UNL d   1     -41.421-123.127 -53.858  0.00  0.00    -0.288 N 
ATOM      4  C   UNL d   1     -41.957-121.924 -53.748  0.00  0.00     0.038 A 
ATOM      5  N   UNL d   1     -41.261-123.370 -52.372  0.00  0.00    -0.225 NA
ATOM      6  C   UNL d   1     -41.715-122.504 -54.282  0.00  0.00     0.067 A 
ATOM      7  N   UNL d   1     -41.922-121.886 -52.252  0.00  0.00    -0.241 NA
ATOM      8  C   UNL d   1     -41.384-123.039 -51.639  0.00  0.00     0.101 A 
ATOM      9  C   UNL d   1     -41.717-122.293 -51.591  0.00  0.00     0.099 A 
ATOM     10  C   UNL d   1     -41.799-122.379 -55.093  0.00  0.00     0.018 A 
ATOM     11  C   UNL d   1     -42.282-121.218 -54.025  0.00  0.00     0.015 A 
ATOM     12  C   UNL d   1     -42.366-121.094 -54.836  0.00  0.00     0.058 A 
ATOM     13  C   UNL d   1     -41.123-123.815 -54.166  0.00  0.00     0.101 C 
ATOM     14  C   UNL d   1     -42.124-121.674 -55.370  0.00  0.00     0.013 A 
ATOM     15 CL   UNL d   1     -42.692-120.388 -55.113  0.00  0.00    -0.082 Cl
ATOM     16  C   UNL d   1     -41.178-123.447 -50.977  0.00  0.00     0.021 A 
ATOM     17  C   UNL d   1     -41.840-121.962 -50.858  0.00  0.00     0.021 A 
ATOM     18  C   UNL d   1     -41.636-122.363 -50.158  0.00  0.00     0.002 A 
ATOM     19  C   UNL d   1     -41.308-123.100 -50.233  0.00  0.00     0.002 A 
ENDROOT
TORSDOF 0
ENDMDL
MODEL 4
REMARK VINA RESULT:      -1.0      1.768      3.742
REMARK  0 active torsions:
REMARK  status: ('A' for Active; 'I' for Inactive)
ROOT
ATOM      1  C   UNL d   1     -42.692-122.425 -50.494  0.00  0.00     0.166 A 
ATOM      2  C   UNL d   1     -42.023-122.858 -50.288  0.00  0.00     0.117 A 
ATOM      3  N   UNL d   1     -43.109-122.291 -49.793  0.00  0.00    -0.288 N 
ATOM      4  C   UNL d   1     -42.026-122.987 -49.490  0.00  0.00     0.038 A 
ATOM      5  N   UNL d   1     -42.838-122.209 -51.280  0.00  0.00    -0.225 NA
ATOM      6  C   UNL d   1     -42.704-122.633 -49.181  0.00  0.00     0.067 A 
ATOM      7  N   UNL d   1     -41.509-123.066 -50.893  0.00  0.00    -0.241 NA
ATOM      8  C   UNL d   1     -42.313-122.427 -51.863  0.00  0.00     0.101 A 
ATOM      9  C   UNL d   1     -41.648-122.858 -51.655  0.00  0.00     0.099 A 
ATOM     10  C   UNL d   1     -42.858-122.674 -48.373  0.00  0.00     0.018 A 
ATOM     11  C   UNL d   1     -41.502-123.382 -48.991  0.00  0.00     0.015 A 
ATOM     12  C   UNL d   1     -41.657-123.422 -48.181  0.00  0.00     0.058 A 
ATOM     13  C   UNL d   1     -43.807-121.884 -49.734  0.00  0.00     0.101 C 
ATOM     14  C   UNL d   1     -42.335-123.068 -47.872  0.00  0.00     0.013 A 
ATOM     15 CL   UNL d   1     -41.133-123.817 -47.681  0.00  0.00    -0.082 Cl
ATOM     16  C   UNL d   1     -42.453-122.218 -52.626  0.00  0.00     0.021 A 
ATOM     17  C   UNL d   1     -41.123-123.076 -52.237  0.00  0.00     0.021 A 
ATOM     18  C   UNL d   1     -41.245-122.873 -53.035  0.00  0.00     0.002 A 
ATOM     19  C   UNL d   1     -41.910-122.447 -53.212  0.00  0.00     0.002 A 
ENDROOT
TORSDOF 0
ENDMDL
