MODEL 1
REMARK VINA RESULT:      -8.4      0.000      0.000
REMARK  3 active torsions:
REMARK  status: ('A' for Active; 'I' for Inactive)
REMARK    1  A    between atoms: C_10  and  N_1 
REMARK       I    between atoms: N_3  and  C_4 
REMARK    2  A    between atoms: C_4  and  C_10 
REMARK    3  A    between atoms: O_17  and  C_13 
ROOT
ATOM      1  N   UNL d   1     -46.962  13.312  22.956  0.00  0.00    -0.268 N 
ATOM      2  C   UNL d   1     -46.230  13.396  22.571  0.00  0.00     0.265 A 
ATOM      3  C   UNL d   1     -45.656  12.808  22.648  0.00  0.00     0.059 A 
ATOM      4  C   UNL d   1     -45.804  12.138  23.104  0.00  0.00     0.028 A 
ATOM      5  C   UNL d   1     -46.529  12.044  23.491  0.00  0.00     0.021 A 
ATOM      6  C   UNL d   1     -47.111  12.639  23.414  0.00  0.00     0.083 A 
ATOM      7  O   UNL d   1     -46.082  14.066  22.115  0.00  0.00    -0.267 OA
ATOM      8  C   UNL d   1     -45.230  11.554  23.178  0.00  0.00     0.094 A 
ATOM      9  C   UNL d   1     -44.932  12.899  22.263  0.00  0.00     0.005 A 
ATOM     10  C   UNL d   1     -44.357  12.314  22.337  0.00  0.00     0.002 A 
ATOM     11  C   UNL d   1     -44.505  11.644  22.793  0.00  0.00     0.024 A 
ENDROOT
BRANCH   1  12
ATOM     12  C   UNL d   1     -47.536  13.896  22.882  0.00  0.00     0.144 C 
BRANCH  12  13
ATOM     13  C   UNL d   1     -48.263  13.718  22.531  0.00  0.00     0.283 C 
ATOM     14  N   UNL d   1     -48.896  14.243  22.586  0.00  0.00    -0.272 N 
ATOM     15  C   UNL d   1     -49.611  14.058  22.237  0.00  0.00     0.067 A 
ATOM     16  C   UNL d   1     -48.798  14.959  22.999  0.00  0.00     0.083 A 
ATOM     17  C   UNL d   1     -50.244  14.589  22.295  0.00  0.00     0.016 A 
ATOM     18  C   UNL d   1     -49.702  13.355  21.833  0.00  0.00     0.018 A 
ATOM     19  C   UNL d   1     -50.965  14.410  21.946  0.00  0.00     0.001 A 
ATOM     20  C   UNL d   1     -50.157  15.305  22.704  0.00  0.00     0.003 A 
ATOM     21  C   UNL d   1     -51.061  13.702  21.537  0.00  0.00     0.000 A 
ATOM     22  C   UNL d   1     -50.425  13.168  21.479  0.00  0.00     0.002 A 
ATOM     23  C   UNL d   1     -49.440  15.487  23.053  0.00  0.00     0.019 A 
ATOM     24  O   UNL d   1     -48.353  13.003  22.122  0.00  0.00    -0.265 OA
ENDBRANCH  12  13
ENDBRANCH   1  12
BRANCH   8  25
ATOM     25  O   UNL d   1     -45.374  10.882  23.633  0.00  0.00    -0.328 OA
ATOM     26  C   UNL d   1     -44.827  10.270  23.649  0.00  0.00     0.181 C 
ENDBRANCH   8  25
TORSDOF 3
ENDMDL
MODEL 2
REMARK VINA RESULT:      -7.0      0.923      4.896
REMARK  3 active torsions:
REMARK  status: ('A' for Active; 'I' for Inactive)
REMARK    1  A    between atoms: C_10  and  N_1 
REMARK       I    between atoms: N_3  and  C_4 
REMARK    2  A    between atoms: C_4  and  C_10 
REMARK    3  A    between atoms: O_17  and  C_13 
ROOT
ATOM      1  N   UNL d   1     -47.412  13.704  22.455  0.00  0.00    -0.268 N 
ATOM      2  C   UNL d   1     -47.748  14.435  22.663  0.00  0.00     0.265 A 
ATOM      3  C   UNL d   1     -48.563  14.546  22.600  0.00  0.00     0.059 A 
ATOM      4  C   UNL d   1     -49.046  13.935  22.332  0.00  0.00     0.028 A 
ATOM      5  C   UNL d   1     -48.723  13.203  22.122  0.00  0.00     0.021 A 
ATOM      6  C   UNL d   1     -47.898  13.090  22.185  0.00  0.00     0.083 A 
ATOM      7  O   UNL d   1     -47.264  15.046  22.932  0.00  0.00    -0.267 OA
ATOM      8  C   UNL d   1     -49.859  14.048  22.270  0.00  0.00     0.094 A 
ATOM      9  C   UNL d   1     -48.889  15.274  22.809  0.00  0.00     0.005 A 
ATOM     10  C   UNL d   1     -49.702  15.388  22.748  0.00  0.00     0.002 A 
ATOM     11  C   UNL d   1     -50.185  14.777  22.479  0.00  0.00     0.024 A 
ENDROOT
BRANCH   1  12
ATOM     12  C   UNL d   1     -46.599  13.591  22.516  0.00  0.00     0.144 C 
BRANCH  12  13
ATOM     13  C   UNL d   1     -46.304  12.877  22.811  0.00  0.00     0.283 C 
ATOM     14  N   UNL d   1     -45.545  12.624  22.614  0.00  0.00    -0.272 N 
ATOM     15  C   UNL d   1     -45.261  11.918  22.909  0.00  0.00     0.067 A 
ATOM     16  C   UNL d   1     -45.074  13.095  22.113  0.00  0.00     0.083 A 
ATOM     17  C   UNL d   1     -44.496  11.668  22.708  0.00  0.00     0.016 A 
ATOM     18  C   UNL d   1     -45.725  11.460  23.399  0.00  0.00     0.018 A 
ATOM     19  C   UNL d   1     -44.205  10.959  23.002  0.00  0.00     0.001 A 
ATOM     20  C   UNL d   1     -44.020  12.129  22.211  0.00  0.00     0.003 A 
ATOM     21  C   UNL d   1     -44.670  10.494  23.496  0.00  0.00     0.000 A 
ATOM     22  C   UNL d   1     -45.438  10.745  23.698  0.00  0.00     0.002 A 
ATOM     23  C   UNL d   1     -44.307  12.836  21.917  0.00  0.00     0.019 A 
ATOM     24  O   UNL d   1     -46.778  12.414  23.307  0.00  0.00    -0.265 OA
ENDBRANCH  12  13
ENDBRANCH   1  12
BRANCH   8  25
ATOM     25  O   UNL d   1     -50.346  13.440  22.002  0.00  0.00    -0.328 OA
ATOM     26  C   UNL d   1     -51.064  13.614  21.646  0.00  0.00     0.181 C 
ENDBRANCH   8  25
TORSDOF 3
ENDMDL
MODEL 3
REMARK VINA RESULT:      -6.8      1.192      5.060
REMARK  3 active torsions:
REMARK  status: ('A' for Active; 'I' for Inactive)
REMARK    1  A    between atoms: C_10  and  N_1 
REMARK       I    between atoms: N_3  and  C_4 
REMARK    2  A    between atoms: C_4  and  C_10 
REMARK    3  A    between atoms: O_17  and  C_13 
ROOT
ATOM      1  N   UNL d   1     -48.251  12.664  23.296  0.00  0.00    -0.268 N 
ATOM      2  C   UNL d   1     -48.962  12.256  23.161  0.00  0.00     0.265 A 
ATOM      3  C   UNL d   1     -49.658  12.677  23.026  0.00  0.00     0.059 A 
ATOM      4  C   UNL d   1     -49.653  13.501  23.026  0.00  0.00     0.028 A 
ATOM      5  C   UNL d   1     -48.951  13.918  23.160  0.00  0.00     0.021 A 
ATOM      6  C   UNL d   1     -48.246  13.492  23.296  0.00  0.00     0.083 A 
ATOM      7  O   UNL d   1     -48.967  11.432  23.161  0.00  0.00    -0.267 OA
ATOM      8  C   UNL d   1     -50.350  13.919  22.892  0.00  0.00     0.094 A 
ATOM      9  C   UNL d   1     -50.360  12.265  22.892  0.00  0.00     0.005 A 
ATOM     10  C   UNL d   1     -51.057  12.682  22.758  0.00  0.00     0.002 A 
ATOM     11  C   UNL d   1     -51.052  13.506  22.758  0.00  0.00     0.024 A 
ENDROOT
BRANCH   1  12
ATOM     12  C   UNL d   1     -47.555  12.247  23.431  0.00  0.00     0.144 C 
BRANCH  12  13
ATOM     13  C   UNL d   1     -46.862  12.463  23.035  0.00  0.00     0.283 C 
ATOM     14  N   UNL d   1     -46.173  12.018  23.122  0.00  0.00    -0.272 N 
ATOM     15  C   UNL d   1     -45.493  12.239  22.727  0.00  0.00     0.067 A 
ATOM     16  C   UNL d   1     -46.180  11.346  23.613  0.00  0.00     0.083 A 
ATOM     17  C   UNL d   1     -44.803  11.789  22.817  0.00  0.00     0.016 A 
ATOM     18  C   UNL d   1     -45.491  12.899  22.247  0.00  0.00     0.018 A 
ATOM     19  C   UNL d   1     -44.116  12.005  22.424  0.00  0.00     0.001 A 
ATOM     20  C   UNL d   1     -44.799  11.118  23.304  0.00  0.00     0.003 A 
ATOM     21  C   UNL d   1     -44.110  12.670  21.939  0.00  0.00     0.000 A 
ATOM     22  C   UNL d   1     -44.804  13.122  21.848  0.00  0.00     0.002 A 
ATOM     23  C   UNL d   1     -45.483  10.899  23.697  0.00  0.00     0.019 A 
ATOM     24  O   UNL d   1     -46.863  13.133  22.549  0.00  0.00    -0.265 OA
ENDBRANCH  12  13
ENDBRANCH   1  12
BRANCH   8  25
ATOM     25  O   UNL d   1     -50.348  14.743  22.891  0.00  0.00    -0.328 OA
ATOM     26  C   UNL d   1     -51.057  15.155  22.867  0.00  0.00     0.181 C 
ENDBRANCH   8  25
TORSDOF 3
ENDMDL
MODEL 4
REMARK VINA RESULT:      -6.7      8.590      9.770
REMARK  3 active torsions:
REMARK  status: ('A' for Active; 'I' for Inactive)
REMARK    1  A    between atoms: C_10  and  N_1 
REMARK       I    between atoms: N_3  and  C_4 
REMARK    2  A    between atoms: C_4  and  C_10 
REMARK    3  A    between atoms: O_17  and  C_13 
ROOT
ATOM      1  N   UNL d   1     -39.413  14.316  19.351  0.00  0.00    -0.268 N 
ATOM      2  C   UNL d   1     -39.014  14.289  18.623  0.00  0.00     0.265 A 
ATOM      3  C   UNL d   1     -39.388  14.562  17.940  0.00  0.00     0.059 A 
ATOM      4  C   UNL d   1     -40.155  14.860  17.975  0.00  0.00     0.028 A 
ATOM      5  C   UNL d   1     -40.561  14.892  18.695  0.00  0.00     0.021 A 
ATOM      6  C   UNL d   1     -40.184  14.617  19.387  0.00  0.00     0.083 A 
ATOM      7  O   UNL d   1     -38.247  13.991  18.587  0.00  0.00    -0.267 OA
ATOM      8  C   UNL d   1     -40.525  15.131  17.292  0.00  0.00     0.094 A 
ATOM      9  C   UNL d   1     -38.985  14.532  17.220  0.00  0.00     0.005 A 
ATOM     10  C   UNL d   1     -39.355  14.803  16.537  0.00  0.00     0.002 A 
ATOM     11  C   UNL d   1     -40.122  15.101  16.572  0.00  0.00     0.024 A 
ENDROOT
BRANCH   1  12
ATOM     12  C   UNL d   1     -39.043  14.046  20.035  0.00  0.00     0.144 C 
BRANCH  12  13
ATOM     13  C   UNL d   1     -39.043  14.513  20.716  0.00  0.00     0.283 C 
ATOM     14  N   UNL d   1     -38.805  14.199  21.440  0.00  0.00    -0.272 N 
ATOM     15  C   UNL d   1     -38.809  14.669  22.109  0.00  0.00     0.067 A 
ATOM     16  C   UNL d   1     -38.563  13.404  21.482  0.00  0.00     0.083 A 
ATOM     17  C   UNL d   1     -38.568  14.349  22.835  0.00  0.00     0.016 A 
ATOM     18  C   UNL d   1     -39.047  15.447  22.064  0.00  0.00     0.018 A 
ATOM     19  C   UNL d   1     -38.569  14.814  23.510  0.00  0.00     0.001 A 
ATOM     20  C   UNL d   1     -38.325  13.558  22.886  0.00  0.00     0.003 A 
ATOM     21  C   UNL d   1     -38.809  15.600  23.469  0.00  0.00     0.000 A 
ATOM     22  C   UNL d   1     -39.050  15.922  22.740  0.00  0.00     0.002 A 
ATOM     23  C   UNL d   1     -38.323  13.090  22.214  0.00  0.00     0.019 A 
ATOM     24  O   UNL d   1     -39.285  15.303  20.668  0.00  0.00    -0.265 OA
ENDBRANCH  12  13
ENDBRANCH   1  12
BRANCH   8  25
ATOM     25  O   UNL d   1     -41.292  15.431  17.324  0.00  0.00    -0.328 OA
ATOM     26  C   UNL d   1     -41.606  15.827  16.677  0.00  0.00     0.181 C 
ENDBRANCH   8  25
TORSDOF 3
ENDMDL
MODEL 5
REMARK VINA RESULT:      -6.2      7.793     10.158
REMARK  3 active torsions:
REMARK  status: ('A' for Active; 'I' for Inactive)
REMARK    1  A    between atoms: C_10  and  N_1 
REMARK       I    between atoms: N_3  and  C_4 
REMARK    2  A    between atoms: C_4  and  C_10 
REMARK    3  A    between atoms: O_17  and  C_13 
ROOT
ATOM      1  N   UNL d   1     -38.910  14.258  17.643  0.00  0.00    -0.268 N 
ATOM      2  C   UNL d   1     -38.679  13.677  17.096  0.00  0.00     0.265 A 
ATOM      3  C   UNL d   1     -38.433  13.900  16.340  0.00  0.00     0.059 A 
ATOM      4  C   UNL d   1     -38.415  14.695  16.125  0.00  0.00     0.028 A 
ATOM      5  C   UNL d   1     -38.643  15.281  16.662  0.00  0.00     0.021 A 
ATOM      6  C   UNL d   1     -38.892  15.057  17.427  0.00  0.00     0.083 A 
ATOM      7  O   UNL d   1     -38.697  12.882  17.310  0.00  0.00    -0.267 OA
ATOM      8  C   UNL d   1     -38.169  14.913  15.371  0.00  0.00     0.094 A 
ATOM      9  C   UNL d   1     -38.205  13.317  15.802  0.00  0.00     0.005 A 
ATOM     10  C   UNL d   1     -37.959  13.536  15.048  0.00  0.00     0.002 A 
ATOM     11  C   UNL d   1     -37.941  14.331  14.833  0.00  0.00     0.024 A 
ENDROOT
BRANCH   1  12
ATOM     12  C   UNL d   1     -39.156  14.040  18.397  0.00  0.00     0.144 C 
BRANCH  12  13
ATOM     13  C   UNL d   1     -39.704  14.507  18.804  0.00  0.00     0.283 C 
ATOM     14  N   UNL d   1     -39.713  14.522  19.627  0.00  0.00    -0.272 N 
ATOM     15  C   UNL d   1     -40.257  14.987  20.021  0.00  0.00     0.067 A 
ATOM     16  C   UNL d   1     -39.164  14.061  20.051  0.00  0.00     0.083 A 
ATOM     17  C   UNL d   1     -40.262  14.999  20.850  0.00  0.00     0.016 A 
ATOM     18  C   UNL d   1     -40.793  15.437  19.602  0.00  0.00     0.018 A 
ATOM     19  C   UNL d   1     -40.806  15.464  21.251  0.00  0.00     0.001 A 
ATOM     20  C   UNL d   1     -39.720  14.544  21.280  0.00  0.00     0.003 A 
ATOM     21  C   UNL d   1     -41.349  15.919  20.833  0.00  0.00     0.000 A 
ATOM     22  C   UNL d   1     -41.344  15.907  20.000  0.00  0.00     0.002 A 
ATOM     23  C   UNL d   1     -39.176  14.079  20.883  0.00  0.00     0.019 A 
ATOM     24  O   UNL d   1     -40.247  14.963  18.376  0.00  0.00    -0.265 OA
ENDBRANCH  12  13
ENDBRANCH   1  12
BRANCH   8  25
ATOM     25  O   UNL d   1     -38.149  15.708  15.152  0.00  0.00    -0.328 OA
ATOM     26  C   UNL d   1     -38.056  15.915  14.364  0.00  0.00     0.181 C 
ENDBRANCH   8  25
TORSDOF 3
ENDMDL
MODEL 6
REMARK VINA RESULT:      -6.1      8.713      9.544
REMARK  3 active torsions:
REMARK  status: ('A' for Active; 'I' for Inactive)
REMARK    1  A    between atoms: C_10  and  N_1 
REMARK       I    between atoms: N_3  and  C_4 
REMARK    2  A    between atoms: C_4  and  C_10 
REMARK    3  A    between atoms: O_17  and  C_13 
ROOT
ATOM      1  N   UNL d   1     -38.605  14.337  19.937  0.00  0.00    -0.268 N 
ATOM      2  C   UNL d   1     -38.281  13.677  20.325  0.00  0.00     0.265 A 
ATOM      3  C   UNL d   1     -38.273  13.648  21.149  0.00  0.00     0.059 A 
ATOM      4  C   UNL d   1     -38.583  14.271  21.591  0.00  0.00     0.028 A 
ATOM      5  C   UNL d   1     -38.908  14.932  21.215  0.00  0.00     0.021 A 
ATOM      6  C   UNL d   1     -38.917  14.962  20.381  0.00  0.00     0.083 A 
ATOM      7  O   UNL d   1     -37.971  13.054  19.883  0.00  0.00    -0.267 OA
ATOM      8  C   UNL d   1     -38.573  14.239  22.413  0.00  0.00     0.094 A 
ATOM      9  C   UNL d   1     -37.950  12.989  21.527  0.00  0.00     0.005 A 
ATOM     10  C   UNL d   1     -37.940  12.958  22.349  0.00  0.00     0.002 A 
ATOM     11  C   UNL d   1     -38.250  13.580  22.791  0.00  0.00     0.024 A 
ENDROOT
BRANCH   1  12
ATOM     12  C   UNL d   1     -38.615  14.368  19.115  0.00  0.00     0.144 C 
BRANCH  12  13
ATOM     13  C   UNL d   1     -39.282  14.659  18.722  0.00  0.00     0.283 C 
ATOM     14  N   UNL d   1     -39.217  14.978  17.965  0.00  0.00    -0.272 N 
ATOM     15  C   UNL d   1     -39.880  15.263  17.584  0.00  0.00     0.067 A 
ATOM     16  C   UNL d   1     -38.471  15.005  17.595  0.00  0.00     0.083 A 
ATOM     17  C   UNL d   1     -39.810  15.582  16.822  0.00  0.00     0.016 A 
ATOM     18  C   UNL d   1     -40.609  15.234  17.949  0.00  0.00     0.018 A 
ATOM     19  C   UNL d   1     -40.473  15.870  16.434  0.00  0.00     0.001 A 
ATOM     20  C   UNL d   1     -39.072  15.614  16.446  0.00  0.00     0.003 A 
ATOM     21  C   UNL d   1     -41.210  15.843  16.799  0.00  0.00     0.000 A 
ATOM     22  C   UNL d   1     -41.281  15.522  17.564  0.00  0.00     0.002 A 
ATOM     23  C   UNL d   1     -38.409  15.327  16.831  0.00  0.00     0.019 A 
ATOM     24  O   UNL d   1     -40.020  14.629  19.095  0.00  0.00    -0.265 OA
ENDBRANCH  12  13
ENDBRANCH   1  12
BRANCH   8  25
ATOM     25  O   UNL d   1     -38.883  14.860  22.858  0.00  0.00    -0.328 OA
ATOM     26  C   UNL d   1     -38.731  14.904  23.664  0.00  0.00     0.181 C 
ENDBRANCH   8  25
TORSDOF 3
ENDMDL
MODEL 7
REMARK VINA RESULT:      -5.4      7.658     10.402
REMARK  3 active torsions:
REMARK  status: ('A' for Active; 'I' for Inactive)
REMARK    1  A    between atoms: C_10  and  N_1 
REMARK       I    between atoms: N_3  and  C_4 
REMARK    2  A    between atoms: C_4  and  C_10 
REMARK    3  A    between atoms: O_17  and  C_13 
ROOT
ATOM      1  N   UNL d   1     -39.255  14.404  19.083  0.00  0.00    -0.268 N 
ATOM      2  C   UNL d   1     -38.952  14.498  19.851  0.00  0.00     0.265 A 
ATOM      3  C   UNL d   1     -39.396  14.898  20.421  0.00  0.00     0.059 A 
ATOM      4  C   UNL d   1     -40.137  15.204  20.232  0.00  0.00     0.028 A 
ATOM      5  C   UNL d   1     -40.448  15.116  19.470  0.00  0.00     0.021 A 
ATOM      6  C   UNL d   1     -40.000  14.712  18.893  0.00  0.00     0.083 A 
ATOM      7  O   UNL d   1     -38.211  14.192  20.039  0.00  0.00    -0.267 OA
ATOM      8  C   UNL d   1     -40.577  15.602  20.803  0.00  0.00     0.094 A 
ATOM      9  C   UNL d   1     -39.089  14.987  21.181  0.00  0.00     0.005 A 
ATOM     10  C   UNL d   1     -39.529  15.385  21.752  0.00  0.00     0.002 A 
ATOM     11  C   UNL d   1     -40.270  15.691  21.563  0.00  0.00     0.024 A 
ENDROOT
BRANCH   1  12
ATOM     12  C   UNL d   1     -38.815  14.006  18.512  0.00  0.00     0.144 C 
BRANCH  12  13
ATOM     13  C   UNL d   1     -38.683  14.357  17.775  0.00  0.00     0.283 C 
ATOM     14  N   UNL d   1     -38.441  13.902  17.132  0.00  0.00    -0.272 N 
ATOM     15  C   UNL d   1     -38.313  14.256  16.407  0.00  0.00     0.067 A 
ATOM     16  C   UNL d   1     -38.330  13.082  17.229  0.00  0.00     0.083 A 
ATOM     17  C   UNL d   1     -38.070  13.795  15.763  0.00  0.00     0.016 A 
ATOM     18  C   UNL d   1     -38.423  15.059  16.316  0.00  0.00     0.018 A 
ATOM     19  C   UNL d   1     -37.940  14.145  15.032  0.00  0.00     0.001 A 
ATOM     20  C   UNL d   1     -37.956  12.978  15.849  0.00  0.00     0.003 A 
ATOM     21  C   UNL d   1     -38.050  14.954  14.936  0.00  0.00     0.000 A 
ATOM     22  C   UNL d   1     -38.294  15.418  15.584  0.00  0.00     0.002 A 
ATOM     23  C   UNL d   1     -38.085  12.626  16.577  0.00  0.00     0.019 A 
ATOM     24  O   UNL d   1     -38.796  15.172  17.686  0.00  0.00    -0.265 OA
ENDBRANCH  12  13
ENDBRANCH   1  12
BRANCH   8  25
ATOM     25  O   UNL d   1     -41.319  15.909  20.618  0.00  0.00    -0.328 OA
ATOM     26  C   UNL d   1     -41.912  15.922  21.184  0.00  0.00     0.181 C 
ENDBRANCH   8  25
TORSDOF 3
ENDMDL
