MODEL 1
REMARK VINA RESULT:      40.2      0.000      0.000
REMARK  9 active torsions:
REMARK  status: ('A' for Active; 'I' for Inactive)
REMARK    1  A    between atoms: C_10  and  S_1 
REMARK    2  A    between atoms: N_11  and  S_1 
REMARK    3  A    between atoms: C_8  and  C_2 
REMARK    4  A    between atoms: C_3  and  N_6 
REMARK       I    between atoms: N_6  and  C_9 
REMARK    5  A    between atoms: C_9  and  C_14 
REMARK    6  A    between atoms: C_23  and  N_11 
REMARK    7  A    between atoms: C_24  and  N_11 
REMARK    8  A    between atoms: C_26  and  C_24 
REMARK    9  A    between atoms: C_27  and  C_26 
ROOT
ATOM      1  C   UNL d   1      45.747 -16.534  44.323  0.00  0.00     0.104 A 
ATOM      2  C   UNL d   1      46.172 -18.138  44.283  0.00  0.00     0.058 A 
ATOM      3  C   UNL d   1      46.426 -16.800  44.710  0.00  0.00     0.013 A 
ATOM      4  C   UNL d   1      45.289 -17.072  43.921  0.00  0.00     0.013 A 
ATOM      5  C   UNL d   1      46.632 -17.604  44.686  0.00  0.00     0.005 A 
ATOM      6  C   UNL d   1      45.494 -17.871  43.896  0.00  0.00     0.005 A 
ENDROOT
BRANCH   2   7
ATOM      7  C   UNL d   1      46.383 -18.947  44.261  0.00  0.00     0.282 C 
ATOM      8  N   UNL d   1      46.563 -19.311  43.539  0.00  0.00    -0.165 NA
ATOM      9  O   UNL d   1      46.411 -19.376  44.948  0.00  0.00    -0.265 OA
BRANCH   8  10
ATOM     10  C   UNL d   1      46.535 -18.883  42.851  0.00  0.00     0.297 A 
ATOM     11  O   UNL d   1      46.508 -19.272  42.123  0.00  0.00    -0.253 OA
ATOM     12  C   UNL d   1      46.484 -18.699  41.535  0.00  0.00     0.207 A 
ATOM     13  N   UNL d   1      46.496 -17.967  41.902  0.00  0.00    -0.119 NA
ATOM     14  N   UNL d   1      46.527 -18.075  42.718  0.00  0.00    -0.101 NA
BRANCH  12  15
ATOM     15  C   UNL d   1      46.454 -18.900  40.734  0.00  0.00     0.054 A 
ATOM     16  C   UNL d   1      46.228 -18.329  40.186  0.00  0.00     0.061 A 
ATOM     17 CL   UNL d   1      46.034 -17.568  40.434  0.00  0.00    -0.082 Cl
ATOM     18  C   UNL d   1      46.197 -18.527  39.388  0.00  0.00     0.011 A 
ATOM     19  C   UNL d   1      46.390 -19.294  39.122  0.00  0.00     0.001 A 
ATOM     20  C   UNL d   1      46.614 -19.861  39.664  0.00  0.00     0.000 A 
ATOM     21  C   UNL d   1      46.646 -19.662  40.474  0.00  0.00     0.004 A 
ENDBRANCH  12  15
ENDBRANCH   8  10
ENDBRANCH   2   7
BRANCH   1  22
ATOM     22  S   UNL d   1      45.530 -15.728  44.341  0.00  0.00     0.271 S 
ATOM     23  O   UNL d   1      46.110 -15.549  43.775  0.00  0.00    -0.200 OA
ATOM     24  O   UNL d   1      44.954 -15.908  44.904  0.00  0.00    -0.200 OA
BRANCH  22  25
ATOM     25  N   UNL d   1      45.311 -14.910  44.359  0.00  0.00    -0.229 N 
BRANCH  25  26
ATOM     26  C   UNL d   1      44.522 -14.679  44.282  0.00  0.00     0.092 C 
ATOM     27  C   UNL d   1      44.329 -13.994  43.864  0.00  0.00     0.021 C 
ENDBRANCH  25  26
BRANCH  25  28
ATOM     28  C   UNL d   1      45.897 -14.340  44.455  0.00  0.00     0.092 C 
BRANCH  28  29
ATOM     29  C   UNL d   1      45.683 -13.568  44.649  0.00  0.00     0.020 C 
BRANCH  29  30
ATOM     30  C   UNL d   1      46.269 -13.003  44.761  0.00  0.00     0.002 C 
ATOM     31  C   UNL d   1      46.080 -12.203  44.711  0.00  0.00     0.000 C 
ENDBRANCH  29  30
ENDBRANCH  28  29
ENDBRANCH  25  28
ENDBRANCH  22  25
ENDBRANCH   1  22
TORSDOF 9
ENDMDL
MODEL 2
REMARK VINA RESULT:      41.7      1.616      5.052
REMARK  9 active torsions:
REMARK  status: ('A' for Active; 'I' for Inactive)
REMARK    1  A    between atoms: C_10  and  S_1 
REMARK    2  A    between atoms: N_11  and  S_1 
REMARK    3  A    between atoms: C_8  and  C_2 
REMARK    4  A    between atoms: C_3  and  N_6 
REMARK       I    between atoms: N_6  and  C_9 
REMARK    5  A    between atoms: C_9  and  C_14 
REMARK    6  A    between atoms: C_23  and  N_11 
REMARK    7  A    between atoms: C_24  and  N_11 
REMARK    8  A    between atoms: C_26  and  C_24 
REMARK    9  A    between atoms: C_27  and  C_26 
ROOT
ATOM      1  C   UNL d   1      45.947 -18.699  42.044  0.00  0.00     0.104 A 
ATOM      2  C   UNL d   1      45.961 -18.672  43.703  0.00  0.00     0.058 A 
ATOM      3  C   UNL d   1      46.647 -18.555  42.457  0.00  0.00     0.013 A 
ATOM      4  C   UNL d   1      45.263 -18.827  42.464  0.00  0.00     0.013 A 
ATOM      5  C   UNL d   1      46.647 -18.543  43.287  0.00  0.00     0.005 A 
ATOM      6  C   UNL d   1      45.262 -18.815  43.289  0.00  0.00     0.005 A 
ENDROOT
BRANCH   2   7
ATOM      7  C   UNL d   1      45.965 -18.658  44.540  0.00  0.00     0.282 C 
ATOM      8  N   UNL d   1      45.991 -17.937  44.945  0.00  0.00    -0.165 NA
ATOM      9  O   UNL d   1      45.943 -19.355  44.954  0.00  0.00    -0.265 OA
BRANCH   8  10
ATOM     10  C   UNL d   1      46.014 -17.240  44.531  0.00  0.00     0.297 A 
ATOM     11  O   UNL d   1      45.791 -16.535  44.897  0.00  0.00    -0.253 OA
ATOM     12  C   UNL d   1      45.870 -15.931  44.346  0.00  0.00     0.207 A 
ATOM     13  N   UNL d   1      46.140 -16.266  43.649  0.00  0.00    -0.119 NA
ATOM     14  N   UNL d   1      46.231 -17.078  43.758  0.00  0.00    -0.101 NA
BRANCH  12  15
ATOM     15  C   UNL d   1      45.691 -15.147  44.532  0.00  0.00     0.054 A 
ATOM     16  C   UNL d   1      44.926 -14.954  44.768  0.00  0.00     0.061 A 
ATOM     17 CL   UNL d   1      44.347 -15.539  44.817  0.00  0.00    -0.082 Cl
ATOM     18  C   UNL d   1      44.746 -14.173  44.953  0.00  0.00     0.011 A 
ATOM     19  C   UNL d   1      45.322 -13.571  44.908  0.00  0.00     0.001 A 
ATOM     20  C   UNL d   1      46.080 -13.760  44.675  0.00  0.00     0.000 A 
ATOM     21  C   UNL d   1      46.265 -14.552  44.486  0.00  0.00     0.004 A 
ENDBRANCH  12  15
ENDBRANCH   8  10
ENDBRANCH   2   7
BRANCH   1  22
ATOM     22  S   UNL d   1      45.936 -18.714  41.209  0.00  0.00     0.271 S 
ATOM     23  O   UNL d   1      45.309 -19.257  41.217  0.00  0.00    -0.200 OA
ATOM     24  O   UNL d   1      46.559 -18.173  41.203  0.00  0.00    -0.200 OA
BRANCH  22  25
ATOM     25  N   UNL d   1      45.924 -18.729  40.362  0.00  0.00    -0.229 N 
BRANCH  25  26
ATOM     26  C   UNL d   1      46.438 -19.215  39.938  0.00  0.00     0.092 C 
ATOM     27  C   UNL d   1      46.644 -19.958  40.232  0.00  0.00     0.021 C 
ENDBRANCH  25  26
BRANCH  25  28
ATOM     28  C   UNL d   1      45.389 -18.248  39.960  0.00  0.00     0.092 C 
BRANCH  28  29
ATOM     29  C   UNL d   1      45.632 -17.855  39.279  0.00  0.00     0.020 C 
BRANCH  29  30
ATOM     30  C   UNL d   1      45.067 -17.525  38.780  0.00  0.00     0.002 C 
ATOM     31  C   UNL d   1      45.305 -17.152  38.085  0.00  0.00     0.000 C 
ENDBRANCH  29  30
ENDBRANCH  28  29
ENDBRANCH  25  28
ENDBRANCH  22  25
ENDBRANCH   1  22
TORSDOF 9
ENDMDL
