MODEL 1
REMARK VINA RESULT:      -2.4      0.000      0.000
REMARK  5 active torsions:
REMARK  status: ('A' for Active; 'I' for Inactive)
REMARK    1  A    between atoms: C_6  and  N_1 
REMARK    2  A    between atoms: C_5  and  C_6 
REMARK       I    between atoms: N_7  and  C_5 
REMARK    3  A    between atoms: C_8  and  N_7 
REMARK    4  A    between atoms: O_19  and  C_9 
REMARK    5  A    between atoms: O_20  and  C_17 
ROOT
ATOM      1  C   UNL d   1      32.714  18.729 -23.430  0.00  0.00     0.297 C 
ATOM      2  N   UNL d   1      33.239  19.365 -23.452  0.00  0.00    -0.205 NA
ATOM      3  O   UNL d   1      32.185  18.652 -22.802  0.00  0.00    -0.264 OA
ENDROOT
BRANCH   1   4
ATOM      4  C   UNL d   1      32.717  18.172 -24.034  0.00  0.00     0.148 C 
BRANCH   4   5
ATOM      5  N   UNL d   1      32.186  17.541 -24.018  0.00  0.00    -0.235 N 
ATOM      6  C   UNL d   1      32.408  16.823 -23.658  0.00  0.00     0.273 A 
ATOM      7  C   UNL d   1      31.876  16.192 -23.642  0.00  0.00     0.086 A 
ATOM      8  O   UNL d   1      33.162  16.748 -23.320  0.00  0.00    -0.266 OA
ATOM      9  C   UNL d   1      32.090  15.476 -23.287  0.00  0.00     0.012 C 
ATOM     10  S   UNL d   1      31.122  16.279 -23.985  0.00  0.00    -0.077 SA
ATOM     11  C   UNL d   1      30.911  16.988 -24.336  0.00  0.00     0.097 A 
ATOM     12  C   UNL d   1      31.443  17.619 -24.352  0.00  0.00     0.274 A 
ATOM     13  O   UNL d   1      31.227  18.344 -24.711  0.00  0.00    -0.266 OA
ENDBRANCH   4   5
ENDBRANCH   1   4
BRANCH   2  14
ATOM     14  C   UNL d   1      33.235  19.923 -22.844  0.00  0.00     0.107 A 
ATOM     15  C   UNL d   1      33.235  20.720 -23.023  0.00  0.00     0.114 A 
ATOM     16  C   UNL d   1      33.231  21.275 -22.433  0.00  0.00     0.050 A 
ATOM     17  C   UNL d   1      33.225  21.031 -21.636  0.00  0.00     0.096 A 
ATOM     18  C   UNL d   1      33.225  20.234 -21.457  0.00  0.00     0.026 A 
ATOM     19  C   UNL d   1      33.229  19.674 -22.074  0.00  0.00     0.023 A 
BRANCH  15  20
ATOM     20  O   UNL d   1      33.241  20.978 -23.822  0.00  0.00    -0.327 OA
ATOM     21  C   UNL d   1      33.216  21.789 -23.991  0.00  0.00     0.181 C 
ENDBRANCH  15  20
BRANCH  17  22
ATOM     22  O   UNL d   1      33.220  21.605 -21.027  0.00  0.00    -0.328 OA
ATOM     23  C   UNL d   1      32.565  21.689 -20.533  0.00  0.00     0.181 C 
ENDBRANCH  17  22
ENDBRANCH   2  14
TORSDOF 5
ENDMDL
MODEL 2
REMARK VINA RESULT:      -2.3      0.845      1.531
REMARK  5 active torsions:
REMARK  status: ('A' for Active; 'I' for Inactive)
REMARK    1  A    between atoms: C_6  and  N_1 
REMARK    2  A    between atoms: C_5  and  C_6 
REMARK       I    between atoms: N_7  and  C_5 
REMARK    3  A    between atoms: C_8  and  N_7 
REMARK    4  A    between atoms: O_19  and  C_9 
REMARK    5  A    between atoms: O_20  and  C_17 
ROOT
ATOM      1  C   UNL d   1      32.379  17.958 -23.855  0.00  0.00     0.297 C 
ATOM      2  N   UNL d   1      32.958  18.539 -23.946  0.00  0.00    -0.205 NA
ATOM      3  O   UNL d   1      31.871  17.981 -23.205  0.00  0.00    -0.264 OA
ENDROOT
BRANCH   1   4
ATOM      4  C   UNL d   1      32.307  17.358 -24.410  0.00  0.00     0.148 C 
BRANCH   4   5
ATOM      5  N   UNL d   1      31.740  16.768 -24.310  0.00  0.00    -0.235 N 
ATOM      6  C   UNL d   1      30.978  16.868 -24.634  0.00  0.00     0.273 A 
ATOM      7  C   UNL d   1      30.410  16.278 -24.535  0.00  0.00     0.086 A 
ATOM      8  O   UNL d   1      30.798  17.561 -25.055  0.00  0.00    -0.266 OA
ATOM      9  C   UNL d   1      29.652  16.370 -24.854  0.00  0.00     0.012 C 
ATOM     10  S   UNL d   1      30.603  15.587 -24.111  0.00  0.00    -0.077 SA
ATOM     11  C   UNL d   1      31.352  15.496 -23.796  0.00  0.00     0.097 A 
ATOM     12  C   UNL d   1      31.920  16.086 -23.895  0.00  0.00     0.274 A 
ATOM     13  O   UNL d   1      32.688  15.992 -23.572  0.00  0.00    -0.266 OA
ENDBRANCH   4   5
ENDBRANCH   1   4
BRANCH   2  14
ATOM     14  C   UNL d   1      33.029  19.142 -23.387  0.00  0.00     0.107 A 
ATOM     15  C   UNL d   1      33.152  19.911 -23.630  0.00  0.00     0.114 A 
ATOM     16  C   UNL d   1      33.223  20.509 -23.089  0.00  0.00     0.050 A 
ATOM     17  C   UNL d   1      33.168  20.337 -22.275  0.00  0.00     0.096 A 
ATOM     18  C   UNL d   1      33.045  19.568 -22.031  0.00  0.00     0.026 A 
ATOM     19  C   UNL d   1      32.974  18.963 -22.599  0.00  0.00     0.023 A 
BRANCH  15  20
ATOM     20  O   UNL d   1      33.209  20.096 -24.448  0.00  0.00    -0.327 OA
ATOM     21  C   UNL d   1      33.101  20.879 -24.699  0.00  0.00     0.181 C 
ENDBRANCH  15  20
BRANCH  17  22
ATOM     22  O   UNL d   1      33.241  20.956 -21.715  0.00  0.00    -0.328 OA
ATOM     23  C   UNL d   1      32.825  20.930 -21.004  0.00  0.00     0.181 C 
ENDBRANCH  17  22
ENDBRANCH   2  14
TORSDOF 5
ENDMDL
MODEL 3
REMARK VINA RESULT:      -2.1      1.478      4.525
REMARK  5 active torsions:
REMARK  status: ('A' for Active; 'I' for Inactive)
REMARK    1  A    between atoms: C_6  and  N_1 
REMARK    2  A    between atoms: C_5  and  C_6 
REMARK       I    between atoms: N_7  and  C_5 
REMARK    3  A    between atoms: C_8  and  N_7 
REMARK    4  A    between atoms: O_19  and  C_9 
REMARK    5  A    between atoms: O_20  and  C_17 
ROOT
ATOM      1  C   UNL d   1      32.542  18.571 -23.621  0.00  0.00     0.297 C 
ATOM      2  N   UNL d   1      32.565  17.801 -23.915  0.00  0.00    -0.205 NA
ATOM      3  O   UNL d   1      31.821  18.968 -23.560  0.00  0.00    -0.264 OA
ENDROOT
BRANCH   1   4
ATOM      4  C   UNL d   1      33.236  18.943 -23.388  0.00  0.00     0.148 C 
BRANCH   4   5
ATOM      5  N   UNL d   1      33.208  19.693 -23.045  0.00  0.00    -0.235 N 
ATOM      6  C   UNL d   1      33.177  19.767 -22.215  0.00  0.00     0.273 A 
ATOM      7  C   UNL d   1      33.149  20.517 -21.872  0.00  0.00     0.086 A 
ATOM      8  O   UNL d   1      33.175  19.085 -21.741  0.00  0.00    -0.266 OA
ATOM      9  C   UNL d   1      33.119  20.597 -21.049  0.00  0.00     0.012 C 
ATOM     10  S   UNL d   1      33.152  21.194 -22.358  0.00  0.00    -0.077 SA
ATOM     11  C   UNL d   1      33.182  21.112 -23.172  0.00  0.00     0.097 A 
ATOM     12  C   UNL d   1      33.210  20.363 -23.515  0.00  0.00     0.274 A 
ATOM     13  O   UNL d   1      33.241  20.281 -24.348  0.00  0.00    -0.266 OA
ENDBRANCH   4   5
ENDBRANCH   1   4
BRANCH   2  14
ATOM     14  C   UNL d   1      31.866  17.428 -24.149  0.00  0.00     0.107 A 
ATOM     15  C   UNL d   1      31.682  16.688 -23.857  0.00  0.00     0.114 A 
ATOM     16  C   UNL d   1      30.999  16.315 -24.081  0.00  0.00     0.050 A 
ATOM     17  C   UNL d   1      30.479  16.690 -24.613  0.00  0.00     0.096 A 
ATOM     18  C   UNL d   1      30.663  17.430 -24.904  0.00  0.00     0.026 A 
ATOM     19  C   UNL d   1      31.369  17.802 -24.666  0.00  0.00     0.023 A 
BRANCH  15  20
ATOM     20  O   UNL d   1      32.199  16.300 -23.320  0.00  0.00    -0.327 OA
ATOM     21  C   UNL d   1      32.361  15.493 -23.418  0.00  0.00     0.181 C 
ENDBRANCH  15  20
BRANCH  17  22
ATOM     22  O   UNL d   1      29.773  16.304 -24.843  0.00  0.00    -0.328 OA
ATOM     23  C   UNL d   1      29.038  16.596 -24.609  0.00  0.00     0.181 C 
ENDBRANCH  17  22
ENDBRANCH   2  14
TORSDOF 5
ENDMDL
MODEL 4
REMARK VINA RESULT:       0.2      1.888      4.690
REMARK  5 active torsions:
REMARK  status: ('A' for Active; 'I' for Inactive)
REMARK    1  A    between atoms: C_6  and  N_1 
REMARK    2  A    between atoms: C_5  and  C_6 
REMARK       I    between atoms: N_7  and  C_5 
REMARK    3  A    between atoms: C_8  and  N_7 
REMARK    4  A    between atoms: O_19  and  C_9 
REMARK    5  A    between atoms: O_20  and  C_17 
ROOT
ATOM      1  C   UNL d   1      32.823  20.186 -22.427  0.00  0.00     0.297 C 
ATOM      2  N   UNL d   1      33.174  19.497 -22.712  0.00  0.00    -0.205 NA
ATOM      3  O   UNL d   1      32.049  20.375 -22.644  0.00  0.00    -0.264 OA
ENDROOT
BRANCH   1   4
ATOM      4  C   UNL d   1      33.241  20.686 -21.927  0.00  0.00     0.148 C 
BRANCH   4   5
ATOM      5  N   UNL d   1      32.945  21.435 -21.748  0.00  0.00    -0.235 N 
ATOM      6  C   UNL d   1      32.652  21.591 -20.984  0.00  0.00     0.273 A 
ATOM      7  C   UNL d   1      32.356  22.340 -20.805  0.00  0.00     0.086 A 
ATOM      8  O   UNL d   1      32.660  20.992 -20.409  0.00  0.00    -0.266 OA
ATOM      9  C   UNL d   1      32.063  22.503 -20.048  0.00  0.00     0.012 C 
ATOM     10  S   UNL d   1      32.354  22.934 -21.390  0.00  0.00    -0.077 SA
ATOM     11  C   UNL d   1      32.643  22.772 -22.137  0.00  0.00     0.097 A 
ATOM     12  C   UNL d   1      32.939  22.023 -22.316  0.00  0.00     0.274 A 
ATOM     13  O   UNL d   1      33.236  21.859 -23.083  0.00  0.00    -0.266 OA
ENDBRANCH   4   5
ENDBRANCH   1   4
BRANCH   2  14
ATOM     14  C   UNL d   1      32.752  18.996 -23.214  0.00  0.00     0.107 A 
ATOM     15  C   UNL d   1      32.743  18.192 -23.075  0.00  0.00     0.114 A 
ATOM     16  C   UNL d   1      32.331  17.693 -23.562  0.00  0.00     0.050 A 
ATOM     17  C   UNL d   1      31.912  18.004 -24.212  0.00  0.00     0.096 A 
ATOM     18  C   UNL d   1      31.921  18.808 -24.351  0.00  0.00     0.026 A 
ATOM     19  C   UNL d   1      32.348  19.310 -23.842  0.00  0.00     0.023 A 
BRANCH  15  20
ATOM     20  O   UNL d   1      33.162  17.867 -22.422  0.00  0.00    -0.327 OA
ATOM     21  C   UNL d   1      32.990  17.097 -22.168  0.00  0.00     0.181 C 
ENDBRANCH  15  20
BRANCH  17  22
ATOM     22  O   UNL d   1      31.487  17.488 -24.715  0.00  0.00    -0.328 OA
ATOM     23  C   UNL d   1      30.685  17.342 -24.587  0.00  0.00     0.181 C 
ENDBRANCH  17  22
ENDBRANCH   2  14
TORSDOF 5
ENDMDL
