MODEL 1
REMARK VINA RESULT:     136.0      0.000      0.000
REMARK  3 active torsions:
REMARK  status: ('A' for Active; 'I' for Inactive)
REMARK    1  A    between atoms: N_5  and  S_1 
REMARK    2  A    between atoms: C_6  and  S_1 
REMARK    3  A    between atoms: C_2  and  C_13 
ROOT
ATOM      1  N   UNL d   1      61.745  45.271  50.177  0.00  0.00    -0.229 N 
ATOM      2  C   UNL d   1      62.188  43.444  49.947  0.00  0.00     0.039 A 
ATOM      3  C   UNL d   1      61.941  44.938  49.311  0.00  0.00     0.092 A 
ATOM      4  C   UNL d   1      61.771  44.689  50.929  0.00  0.00     0.092 A 
ATOM      5  C   UNL d   1      62.164  44.019  49.194  0.00  0.00     0.023 A 
ATOM      6  C   UNL d   1      61.993  43.778  50.813  0.00  0.00     0.023 A 
ENDROOT
BRANCH   1   7
ATOM      7  S   UNL d   1      61.543  46.100  50.285  0.00  0.00     0.271 S 
ATOM      8  O   UNL d   1      61.048  45.903  50.914  0.00  0.00    -0.200 OA
ATOM      9  O   UNL d   1      62.039  46.298  49.655  0.00  0.00    -0.200 OA
BRANCH   7  10
ATOM     10  C   UNL d   1      61.352  46.897  50.384  0.00  0.00     0.106 A 
ATOM     11  C   UNL d   1      60.880  47.123  51.028  0.00  0.00     0.040 A 
ATOM     12  C   UNL d   1      60.695  47.914  51.120  0.00  0.00     0.123 A 
ATOM     13  O   UNL d   1      60.225  48.158  51.757  0.00  0.00    -0.301 OA
ATOM     14  C   UNL d   1      60.972  48.486  50.582  0.00  0.00     0.123 A 
ATOM     15  C   UNL d   1      59.917  49.078  52.002  0.00  0.00     0.149 A 
ATOM     16  C   UNL d   1      60.299  49.707  51.295  0.00  0.00     0.149 A 
ATOM     17  O   UNL d   1      60.784  49.275  50.680  0.00  0.00    -0.301 OA
ATOM     18  C   UNL d   1      61.447  48.234  49.941  0.00  0.00     0.028 A 
ATOM     19  C   UNL d   1      61.634  47.449  49.843  0.00  0.00     0.015 A 
ENDBRANCH   7  10
ENDBRANCH   1   7
BRANCH   2  20
ATOM     20  C   UNL d   1      62.412  42.526  49.830  0.00  0.00     0.163 A 
ATOM     21  N   UNL d   1      62.261  42.105  49.184  0.00  0.00    -0.225 NA
ATOM     22  C   UNL d   1      62.529  41.376  49.304  0.00  0.00     0.101 A 
ATOM     23  C   UNL d   1      62.518  40.738  48.833  0.00  0.00     0.021 A 
ATOM     24  C   UNL d   1      62.844  41.344  50.023  0.00  0.00     0.101 A 
ATOM     25  C   UNL d   1      62.834  40.067  49.106  0.00  0.00     0.002 A 
ATOM     26  C   UNL d   1      63.151  40.032  49.827  0.00  0.00     0.002 A 
ATOM     27  C   UNL d   1      63.153  40.667  50.275  0.00  0.00     0.021 A 
ATOM     28  N   UNL d   1      62.773  42.055  50.350  0.00  0.00    -0.225 NA
ENDBRANCH   2  20
TORSDOF 3
ENDMDL
