MODEL 1
REMARK VINA RESULT:      -5.7      0.000      0.000
REMARK  4 active torsions:
REMARK  status: ('A' for Active; 'I' for Inactive)
REMARK    1  A    between atoms: N_3  and  S_1 
REMARK    2  A    between atoms: C_4  and  S_1 
REMARK    3  A    between atoms: S_2  and  C_5 
REMARK    4  A    between atoms: C_13  and  N_3 
ROOT
ATOM      1  N   UNL d   1     -41.123-122.390 -51.984  0.00  0.00    -0.158 NA
ENDROOT
BRANCH   1   2
ATOM      2  S   UNL d   1     -41.421-122.362 -52.741  0.00  0.00     0.285 S 
ATOM      3  O   UNL d   1     -41.337-123.180 -52.816  0.00  0.00    -0.198 OA
ATOM      4  O   UNL d   1     -41.513-121.537 -52.685  0.00  0.00    -0.198 OA
BRANCH   2   5
ATOM      5  C   UNL d   1     -41.736-122.328 -53.541  0.00  0.00     0.105 A 
ATOM      6  C   UNL d   1     -41.618-122.956 -54.037  0.00  0.00     0.015 A 
ATOM      7  C   UNL d   1     -41.911-122.942 -54.804  0.00  0.00     0.022 A 
ATOM      8  C   UNL d   1     -42.324-122.291 -55.068  0.00  0.00     0.103 A 
ATOM      9  C   UNL d   1     -42.444-121.648 -54.556  0.00  0.00     0.022 A 
ATOM     10  N   UNL d   1     -42.622-122.282 -55.854  0.00  0.00    -0.148 N 
ATOM     11  C   UNL d   1     -42.139-121.686 -53.789  0.00  0.00     0.015 A 
ENDBRANCH   2   5
ENDBRANCH   1   2
BRANCH   1  12
ATOM     12  C   UNL d   1     -41.581-122.675 -51.367  0.00  0.00     0.094 A 
ATOM     13  C   UNL d   1     -42.079-122.174 -50.982  0.00  0.00     0.021 A 
ATOM     14  C   UNL d   1     -42.544-122.463 -50.357  0.00  0.00     0.015 A 
ATOM     15  C   UNL d   1     -42.490-123.241 -50.144  0.00  0.00     0.107 A 
ATOM     16  C   UNL d   1     -41.978-123.761 -50.537  0.00  0.00     0.015 A 
ATOM     17  C   UNL d   1     -41.513-123.472 -51.163  0.00  0.00     0.021 A 
BRANCH  15  18
ATOM     18  S   UNL d   1     -42.954-123.530 -49.520  0.00  0.00     0.302 S 
ATOM     19  O   UNL d   1     -42.294-123.476 -49.004  0.00  0.00    -0.197 OA
ATOM     20  O   UNL d   1     -43.595-123.583 -50.020  0.00  0.00    -0.197 OA
ATOM     21  N   UNL d   1     -43.414-123.817 -48.900  0.00  0.00    -0.043 N 
ENDBRANCH  15  18
ENDBRANCH   1  12
TORSDOF 4
ENDMDL
MODEL 2
REMARK VINA RESULT:      -5.6      1.260      4.298
REMARK  4 active torsions:
REMARK  status: ('A' for Active; 'I' for Inactive)
REMARK    1  A    between atoms: N_3  and  S_1 
REMARK    2  A    between atoms: C_4  and  S_1 
REMARK    3  A    between atoms: S_2  and  C_5 
REMARK    4  A    between atoms: C_13  and  N_3 
ROOT
ATOM      1  N   UNL d   1     -41.123-122.098 -51.952  0.00  0.00    -0.158 NA
ENDROOT
BRANCH   1   2
ATOM      2  S   UNL d   1     -41.539-122.431 -51.337  0.00  0.00     0.285 S 
ATOM      3  O   UNL d   1     -41.155-123.152 -51.453  0.00  0.00    -0.198 OA
ATOM      4  O   UNL d   1     -41.937-121.712 -51.204  0.00  0.00    -0.198 OA
BRANCH   2   5
ATOM      5  C   UNL d   1     -41.982-122.778 -50.686  0.00  0.00     0.105 A 
ATOM      6  C   UNL d   1     -42.625-122.385 -50.393  0.00  0.00     0.015 A 
ATOM      7  C   UNL d   1     -43.060-122.700 -49.772  0.00  0.00     0.022 A 
ATOM      8  C   UNL d   1     -42.843-123.415 -49.448  0.00  0.00     0.103 A 
ATOM      9  C   UNL d   1     -42.182-123.817 -49.751  0.00  0.00     0.022 A 
ATOM     10  N   UNL d   1     -43.292-123.733 -48.813  0.00  0.00    -0.148 N 
ATOM     11  C   UNL d   1     -41.761-123.479 -50.376  0.00  0.00     0.015 A 
ENDBRANCH   2   5
ENDBRANCH   1   2
BRANCH   1  12
ATOM     12  C   UNL d   1     -41.413-122.134 -52.717  0.00  0.00     0.094 A 
ATOM     13  C   UNL d   1     -41.925-121.567 -52.972  0.00  0.00     0.021 A 
ATOM     14  C   UNL d   1     -42.219-121.603 -53.748  0.00  0.00     0.015 A 
ATOM     15  C   UNL d   1     -41.988-122.204 -54.236  0.00  0.00     0.107 A 
ATOM     16  C   UNL d   1     -41.462-122.790 -53.979  0.00  0.00     0.015 A 
ATOM     17  C   UNL d   1     -41.168-122.754 -53.203  0.00  0.00     0.021 A 
BRANCH  15  18
ATOM     18  S   UNL d   1     -42.282-122.241 -55.012  0.00  0.00     0.302 S 
ATOM     19  O   UNL d   1     -41.571-122.607 -55.264  0.00  0.00    -0.197 OA
ATOM     20  O   UNL d   1     -42.973-121.885 -54.767  0.00  0.00    -0.197 OA
ATOM     21  N   UNL d   1     -42.574-122.277 -55.781  0.00  0.00    -0.043 N 
ENDBRANCH  15  18
ENDBRANCH   1  12
TORSDOF 4
ENDMDL
