MODEL 1
REMARK VINA RESULT:      -8.4      0.000      0.000
REMARK  8 active torsions:
REMARK  status: ('A' for Active; 'I' for Inactive)
REMARK    1  A    between atoms: C_9  and  N_1 
REMARK    2  A    between atoms: C_13  and  C_5 
REMARK    3  A    between atoms: C_8  and  C_6 
REMARK    4  A    between atoms: C_7  and  N_11 
REMARK    5  A    between atoms: C_10  and  C_9 
REMARK       I    between atoms: N_11  and  C_10 
REMARK    6  A    between atoms: C_15  and  C_13 
REMARK    7  A    between atoms: C_18  and  C_15 
REMARK    8  A    between atoms: C_20  and  C_18 
ROOT
ATOM      1  N   UNL d   1      51.245  33.771  52.800  0.00  0.00    -0.230 N 
ATOM      2  C   UNL d   1      50.685  33.896  53.399  0.00  0.00     0.299 A 
ATOM      3  C   UNL d   1      50.929  34.048  52.090  0.00  0.00     0.274 A 
ATOM      4  S   UNL d   1      50.019  34.253  53.054  0.00  0.00    -0.022 SA
ATOM      5  C   UNL d   1      50.174  34.344  52.251  0.00  0.00     0.090 A 
ATOM      6  O   UNL d   1      50.774  33.700  54.198  0.00  0.00    -0.259 OA
ATOM      7  O   UNL d   1      51.296  34.033  51.354  0.00  0.00    -0.266 OA
ENDROOT
BRANCH   1   8
ATOM      8  C   UNL d   1      51.986  33.428  52.903  0.00  0.00     0.149 C 
BRANCH   8   9
ATOM      9  C   UNL d   1      52.639  33.909  53.080  0.00  0.00     0.297 C 
ATOM     10  N   UNL d   1      53.347  33.567  53.327  0.00  0.00    -0.206 NA
ATOM     11  O   UNL d   1      52.573  34.732  53.006  0.00  0.00    -0.264 OA
BRANCH  10  12
ATOM     12  C   UNL d   1      53.401  32.750  53.397  0.00  0.00     0.090 A 
ATOM     13  C   UNL d   1      53.840  32.421  54.007  0.00  0.00     0.082 A 
ATOM     14  C   UNL d   1      53.896  31.605  54.080  0.00  0.00     0.008 A 
ATOM     15  C   UNL d   1      53.509  31.115  53.535  0.00  0.00     0.000 A 
ATOM     16  C   UNL d   1      53.068  31.455  52.923  0.00  0.00     0.002 A 
ATOM     17  C   UNL d   1      53.017  32.270  52.857  0.00  0.00     0.019 A 
BRANCH  13  18
ATOM     18  C   UNL d   1      54.225  32.911  54.549  0.00  0.00     0.212 C 
ATOM     19  O   UNL d   1      54.962  33.242  54.360  0.00  0.00    -0.644 OA
ATOM     20  O   UNL d   1      53.878  33.072  55.276  0.00  0.00    -0.644 OA
ENDBRANCH  13  18
ENDBRANCH  10  12
ENDBRANCH   8   9
ENDBRANCH   1   8
BRANCH   5  21
ATOM     21  C   UNL d   1      49.660  34.677  51.694  0.00  0.00     0.011 C 
BRANCH  21  22
ATOM     22  C   UNL d   1      48.914  34.950  51.929  0.00  0.00     0.001 C 
BRANCH  22  23
ATOM     23  C   UNL d   1      48.395  35.264  51.377  0.00  0.00     0.000 C 
BRANCH  23  24
ATOM     24  C   UNL d   1      47.675  35.585  51.622  0.00  0.00     0.000 A 
ATOM     25  C   UNL d   1      46.974  35.288  51.320  0.00  0.00     0.000 A 
ATOM     26  C   UNL d   1      46.253  35.606  51.562  0.00  0.00     0.000 A 
ATOM     27  C   UNL d   1      46.236  36.228  52.111  0.00  0.00     0.000 A 
ATOM     28  C   UNL d   1      46.949  36.525  52.413  0.00  0.00     0.000 A 
ATOM     29  C   UNL d   1      47.664  36.203  52.167  0.00  0.00     0.000 A 
ENDBRANCH  23  24
ENDBRANCH  22  23
ENDBRANCH  21  22
ENDBRANCH   5  21
TORSDOF 8
ENDMDL
MODEL 2
REMARK VINA RESULT:      -7.7      1.157      1.683
REMARK  8 active torsions:
REMARK  status: ('A' for Active; 'I' for Inactive)
REMARK    1  A    between atoms: C_9  and  N_1 
REMARK    2  A    between atoms: C_13  and  C_5 
REMARK    3  A    between atoms: C_8  and  C_6 
REMARK    4  A    between atoms: C_7  and  N_11 
REMARK    5  A    between atoms: C_10  and  C_9 
REMARK       I    between atoms: N_11  and  C_10 
REMARK    6  A    between atoms: C_15  and  C_13 
REMARK    7  A    between atoms: C_18  and  C_15 
REMARK    8  A    between atoms: C_20  and  C_18 
ROOT
ATOM      1  N   UNL d   1      51.375  33.748  53.233  0.00  0.00    -0.230 N 
ATOM      2  C   UNL d   1      50.731  33.226  53.277  0.00  0.00     0.299 A 
ATOM      3  C   UNL d   1      51.098  34.476  52.961  0.00  0.00     0.274 A 
ATOM      4  S   UNL d   1      50.054  33.638  53.029  0.00  0.00    -0.022 SA
ATOM      5  C   UNL d   1      50.284  34.403  52.837  0.00  0.00     0.090 A 
ATOM      6  O   UNL d   1      50.760  32.436  53.523  0.00  0.00    -0.259 OA
ATOM      7  O   UNL d   1      51.548  35.153  52.836  0.00  0.00    -0.266 OA
ENDROOT
BRANCH   1   8
ATOM      8  C   UNL d   1      52.153  33.564  53.430  0.00  0.00     0.149 C 
BRANCH   8   9
ATOM      9  C   UNL d   1      52.636  33.180  52.875  0.00  0.00     0.297 C 
ATOM     10  N   UNL d   1      53.394  32.937  53.087  0.00  0.00    -0.206 NA
ATOM     11  O   UNL d   1      52.350  33.043  52.109  0.00  0.00    -0.264 OA
BRANCH  10  12
ATOM     12  C   UNL d   1      53.667  33.078  53.849  0.00  0.00     0.090 A 
ATOM     13  C   UNL d   1      53.998  32.466  54.283  0.00  0.00     0.082 A 
ATOM     14  C   UNL d   1      54.272  32.602  55.046  0.00  0.00     0.008 A 
ATOM     15  C   UNL d   1      54.213  33.361  55.374  0.00  0.00     0.000 A 
ATOM     16  C   UNL d   1      53.878  33.973  54.929  0.00  0.00     0.002 A 
ATOM     17  C   UNL d   1      53.608  33.828  54.170  0.00  0.00     0.019 A 
BRANCH  13  18
ATOM     18  C   UNL d   1      54.056  31.711  53.954  0.00  0.00     0.212 C 
ATOM     19  O   UNL d   1      54.594  31.565  53.339  0.00  0.00    -0.644 OA
ATOM     20  O   UNL d   1      53.580  31.103  54.234  0.00  0.00    -0.644 OA
ENDBRANCH  13  18
ENDBRANCH  10  12
ENDBRANCH   8   9
ENDBRANCH   1   8
BRANCH   5  21
ATOM     21  C   UNL d   1      49.784  35.004  52.564  0.00  0.00     0.011 C 
BRANCH  21  22
ATOM     22  C   UNL d   1      49.088  35.183  52.974  0.00  0.00     0.001 C 
BRANCH  22  23
ATOM     23  C   UNL d   1      48.599  35.790  52.715  0.00  0.00     0.000 C 
BRANCH  23  24
ATOM     24  C   UNL d   1      47.935  36.003  53.158  0.00  0.00     0.000 A 
ATOM     25  C   UNL d   1      48.030  36.300  53.914  0.00  0.00     0.000 A 
ATOM     26  C   UNL d   1      47.371  36.514  54.360  0.00  0.00     0.000 A 
ATOM     27  C   UNL d   1      46.609  36.429  54.042  0.00  0.00     0.000 A 
ATOM     28  C   UNL d   1      46.519  36.127  53.275  0.00  0.00     0.000 A 
ATOM     29  C   UNL d   1      47.181  35.916  52.837  0.00  0.00     0.000 A 
ENDBRANCH  23  24
ENDBRANCH  22  23
ENDBRANCH  21  22
ENDBRANCH   5  21
TORSDOF 8
ENDMDL
MODEL 3
REMARK VINA RESULT:      -6.8      2.796      6.746
REMARK  8 active torsions:
REMARK  status: ('A' for Active; 'I' for Inactive)
REMARK    1  A    between atoms: C_9  and  N_1 
REMARK    2  A    between atoms: C_13  and  C_5 
REMARK    3  A    between atoms: C_8  and  C_6 
REMARK    4  A    between atoms: C_7  and  N_11 
REMARK    5  A    between atoms: C_10  and  C_9 
REMARK       I    between atoms: N_11  and  C_10 
REMARK    6  A    between atoms: C_15  and  C_13 
REMARK    7  A    between atoms: C_18  and  C_15 
REMARK    8  A    between atoms: C_20  and  C_18 
ROOT
ATOM      1  N   UNL d   1      47.922  35.552  52.767  0.00  0.00    -0.230 N 
ATOM      2  C   UNL d   1      48.428  35.901  53.324  0.00  0.00     0.299 A 
ATOM      3  C   UNL d   1      48.366  35.031  52.307  0.00  0.00     0.274 A 
ATOM      4  S   UNL d   1      49.189  35.591  53.204  0.00  0.00    -0.022 SA
ATOM      5  C   UNL d   1      49.145  35.058  52.579  0.00  0.00     0.090 A 
ATOM      6  O   UNL d   1      48.213  36.459  53.896  0.00  0.00    -0.259 OA
ATOM      7  O   UNL d   1      48.085  34.567  51.687  0.00  0.00    -0.266 OA
ENDROOT
BRANCH   1   8
ATOM      8  C   UNL d   1      47.117  35.705  52.692  0.00  0.00     0.149 C 
BRANCH   8   9
ATOM      9  C   UNL d   1      46.853  36.248  52.123  0.00  0.00     0.297 C 
ATOM     10  N   UNL d   1      46.047  36.330  51.973  0.00  0.00    -0.206 NA
ATOM     11  O   UNL d   1      47.406  36.706  51.708  0.00  0.00    -0.264 OA
BRANCH  10  12
ATOM     12  C   UNL d   1      45.508  35.871  52.391  0.00  0.00     0.090 A 
ATOM     13  C   UNL d   1      44.898  35.495  51.992  0.00  0.00     0.082 A 
ATOM     14  C   UNL d   1      44.357  35.036  52.406  0.00  0.00     0.008 A 
ATOM     15  C   UNL d   1      44.430  34.954  53.228  0.00  0.00     0.000 A 
ATOM     16  C   UNL d   1      45.049  35.337  53.622  0.00  0.00     0.002 A 
ATOM     17  C   UNL d   1      45.583  35.793  53.202  0.00  0.00     0.019 A 
BRANCH  13  18
ATOM     18  C   UNL d   1      44.827  35.578  51.174  0.00  0.00     0.212 C 
ATOM     19  O   UNL d   1      45.056  34.959  50.672  0.00  0.00    -0.644 OA
ATOM     20  O   UNL d   1      44.529  36.275  50.856  0.00  0.00    -0.644 OA
ENDBRANCH  13  18
ENDBRANCH  10  12
ENDBRANCH   8   9
ENDBRANCH   1   8
BRANCH   5  21
ATOM     21  C   UNL d   1      49.777  34.619  52.272  0.00  0.00     0.011 C 
BRANCH  21  22
ATOM     22  C   UNL d   1      50.455  34.492  52.730  0.00  0.00     0.001 C 
BRANCH  22  23
ATOM     23  C   UNL d   1      51.109  34.117  52.407  0.00  0.00     0.000 C 
BRANCH  23  24
ATOM     24  C   UNL d   1      51.773  33.966  52.874  0.00  0.00     0.000 A 
ATOM     25  C   UNL d   1      51.890  33.218  53.184  0.00  0.00     0.000 A 
ATOM     26  C   UNL d   1      52.551  33.063  53.651  0.00  0.00     0.000 A 
ATOM     27  C   UNL d   1      53.099  33.665  53.808  0.00  0.00     0.000 A 
ATOM     28  C   UNL d   1      52.975  34.422  53.492  0.00  0.00     0.000 A 
ATOM     29  C   UNL d   1      52.314  34.569  53.027  0.00  0.00     0.000 A 
ENDBRANCH  23  24
ENDBRANCH  22  23
ENDBRANCH  21  22
ENDBRANCH   5  21
TORSDOF 8
ENDMDL
MODEL 4
REMARK VINA RESULT:      -6.1      1.658      6.197
REMARK  8 active torsions:
REMARK  status: ('A' for Active; 'I' for Inactive)
REMARK    1  A    between atoms: C_9  and  N_1 
REMARK    2  A    between atoms: C_13  and  C_5 
REMARK    3  A    between atoms: C_8  and  C_6 
REMARK    4  A    between atoms: C_7  and  N_11 
REMARK    5  A    between atoms: C_10  and  C_9 
REMARK       I    between atoms: N_11  and  C_10 
REMARK    6  A    between atoms: C_15  and  C_13 
REMARK    7  A    between atoms: C_18  and  C_15 
REMARK    8  A    between atoms: C_20  and  C_18 
ROOT
ATOM      1  N   UNL d   1      50.487  34.266  52.573  0.00  0.00    -0.230 N 
ATOM      2  C   UNL d   1      51.091  34.366  52.014  0.00  0.00     0.299 A 
ATOM      3  C   UNL d   1      50.759  33.752  53.158  0.00  0.00     0.274 A 
ATOM      4  S   UNL d   1      51.741  33.910  52.258  0.00  0.00    -0.022 SA
ATOM      5  C   UNL d   1      51.532  33.535  52.960  0.00  0.00     0.090 A 
ATOM      6  O   UNL d   1      51.054  34.837  51.334  0.00  0.00    -0.259 OA
ATOM      7  O   UNL d   1      50.340  33.499  53.819  0.00  0.00    -0.266 OA
ENDROOT
BRANCH   1   8
ATOM      8  C   UNL d   1      49.745  34.621  52.542  0.00  0.00     0.149 C 
BRANCH   8   9
ATOM      9  C   UNL d   1      49.191  34.365  51.980  0.00  0.00     0.297 C 
ATOM     10  N   UNL d   1      48.454  34.731  51.931  0.00  0.00    -0.206 NA
ATOM     11  O   UNL d   1      49.384  33.741  51.469  0.00  0.00    -0.264 OA
BRANCH  10  12
ATOM     12  C   UNL d   1      48.273  35.349  52.442  0.00  0.00     0.090 A 
ATOM     13  C   UNL d   1      47.645  35.848  52.272  0.00  0.00     0.082 A 
ATOM     14  C   UNL d   1      47.461  36.467  52.781  0.00  0.00     0.008 A 
ATOM     15  C   UNL d   1      47.912  36.584  53.466  0.00  0.00     0.000 A 
ATOM     16  C   UNL d   1      48.544  36.075  53.630  0.00  0.00     0.002 A 
ATOM     17  C   UNL d   1      48.720  35.462  53.118  0.00  0.00     0.019 A 
BRANCH  13  18
ATOM     18  C   UNL d   1      47.197  35.729  51.589  0.00  0.00     0.212 C 
ATOM     19  O   UNL d   1      47.396  36.124  50.887  0.00  0.00    -0.644 OA
ATOM     20  O   UNL d   1      46.552  35.220  51.604  0.00  0.00    -0.644 OA
ENDBRANCH  13  18
ENDBRANCH  10  12
ENDBRANCH   8   9
ENDBRANCH   1   8
BRANCH   5  21
ATOM     21  C   UNL d   1      52.015  33.025  53.398  0.00  0.00     0.011 C 
BRANCH  21  22
ATOM     22  C   UNL d   1      52.790  33.247  53.587  0.00  0.00     0.001 C 
BRANCH  22  23
ATOM     23  C   UNL d   1      53.277  32.736  54.005  0.00  0.00     0.000 C 
BRANCH  23  24
ATOM     24  C   UNL d   1      53.952  33.025  54.383  0.00  0.00     0.000 A 
ATOM     25  C   UNL d   1      53.940  33.161  55.189  0.00  0.00     0.000 A 
ATOM     26  C   UNL d   1      54.611  33.449  55.571  0.00  0.00     0.000 A 
ATOM     27  C   UNL d   1      55.302  33.601  55.137  0.00  0.00     0.000 A 
ATOM     28  C   UNL d   1      55.309  33.461  54.320  0.00  0.00     0.000 A 
ATOM     29  C   UNL d   1      54.636  33.174  53.947  0.00  0.00     0.000 A 
ENDBRANCH  23  24
ENDBRANCH  22  23
ENDBRANCH  21  22
ENDBRANCH   5  21
TORSDOF 8
ENDMDL
MODEL 5
REMARK VINA RESULT:      -5.5      1.607      5.993
REMARK  8 active torsions:
REMARK  status: ('A' for Active; 'I' for Inactive)
REMARK    1  A    between atoms: C_9  and  N_1 
REMARK    2  A    between atoms: C_13  and  C_5 
REMARK    3  A    between atoms: C_8  and  C_6 
REMARK    4  A    between atoms: C_7  and  N_11 
REMARK    5  A    between atoms: C_10  and  C_9 
REMARK       I    between atoms: N_11  and  C_10 
REMARK    6  A    between atoms: C_15  and  C_13 
REMARK    7  A    between atoms: C_18  and  C_15 
REMARK    8  A    between atoms: C_20  and  C_18 
ROOT
ATOM      1  N   UNL d   1      50.908  34.062  52.594  0.00  0.00    -0.230 N 
ATOM      2  C   UNL d   1      51.633  34.285  52.259  0.00  0.00     0.299 A 
ATOM      3  C   UNL d   1      51.046  33.434  53.112  0.00  0.00     0.274 A 
ATOM      4  S   UNL d   1      52.221  33.791  52.574  0.00  0.00    -0.022 SA
ATOM      5  C   UNL d   1      51.856  33.271  53.096  0.00  0.00     0.090 A 
ATOM      6  O   UNL d   1      51.749  34.893  51.709  0.00  0.00    -0.259 OA
ATOM      7  O   UNL d   1      50.481  33.041  53.563  0.00  0.00    -0.266 OA
ENDROOT
BRANCH   1   8
ATOM      8  C   UNL d   1      50.180  34.410  52.433  0.00  0.00     0.149 C 
BRANCH   8   9
ATOM      9  C   UNL d   1      49.882  34.993  52.943  0.00  0.00     0.297 C 
ATOM     10  N   UNL d   1      49.168  35.367  52.771  0.00  0.00    -0.206 NA
ATOM     11  O   UNL d   1      50.307  35.196  53.625  0.00  0.00    -0.264 OA
BRANCH  10  12
ATOM     12  C   UNL d   1      48.754  35.158  52.092  0.00  0.00     0.090 A 
ATOM     13  C   UNL d   1      47.981  35.413  51.990  0.00  0.00     0.082 A 
ATOM     14  C   UNL d   1      47.565  35.207  51.313  0.00  0.00     0.008 A 
ATOM     15  C   UNL d   1      47.928  34.740  50.733  0.00  0.00     0.000 A 
ATOM     16  C   UNL d   1      48.709  34.487  50.843  0.00  0.00     0.002 A 
ATOM     17  C   UNL d   1      49.117  34.697  51.521  0.00  0.00     0.019 A 
BRANCH  13  18
ATOM     18  C   UNL d   1      47.621  35.878  52.570  0.00  0.00     0.212 C 
ATOM     19  O   UNL d   1      47.133  35.526  53.142  0.00  0.00    -0.644 OA
ATOM     20  O   UNL d   1      47.746  36.690  52.581  0.00  0.00    -0.644 OA
ENDBRANCH  13  18
ENDBRANCH  10  12
ENDBRANCH   8   9
ENDBRANCH   1   8
BRANCH   5  21
ATOM     21  C   UNL d   1      52.235  32.680  53.535  0.00  0.00     0.011 C 
BRANCH  21  22
ATOM     22  C   UNL d   1      52.554  32.019  53.152  0.00  0.00     0.001 C 
BRANCH  22  23
ATOM     23  C   UNL d   1      53.193  31.621  53.478  0.00  0.00     0.000 C 
BRANCH  23  24
ATOM     24  C   UNL d   1      53.187  30.796  53.523  0.00  0.00     0.000 A 
ATOM     25  C   UNL d   1      52.996  30.355  52.861  0.00  0.00     0.000 A 
ATOM     26  C   UNL d   1      52.988  29.532  52.900  0.00  0.00     0.000 A 
ATOM     27  C   UNL d   1      53.175  29.149  53.612  0.00  0.00     0.000 A 
ATOM     28  C   UNL d   1      53.368  29.601  54.280  0.00  0.00     0.000 A 
ATOM     29  C   UNL d   1      53.374  30.420  54.232  0.00  0.00     0.000 A 
ENDBRANCH  23  24
ENDBRANCH  22  23
ENDBRANCH  21  22
ENDBRANCH   5  21
TORSDOF 8
ENDMDL
