MODEL 1
REMARK VINA RESULT:      -5.5      0.000      0.000
REMARK  3 active torsions:
REMARK  status: ('A' for Active; 'I' for Inactive)
REMARK    1  A    between atoms: N_2  and  S_1 
REMARK    2  A    between atoms: N_4  and  S_1 
REMARK    3  A    between atoms: C_9  and  N_3 
ROOT
ATOM      1  N   UNL d   1      58.115  -0.106  30.128  0.00  0.00    -0.213 N 
ATOM      2  N   UNL d   1      57.087  -0.080  31.412  0.00  0.00    -0.301 N 
ATOM      3  C   UNL d   1      57.891  -0.802  30.483  0.00  0.00     0.112 A 
ATOM      4  C   UNL d   1      57.830   0.640  30.405  0.00  0.00     0.112 A 
ATOM      5  C   UNL d   1      57.376  -0.789  31.127  0.00  0.00     0.100 A 
ATOM      6  C   UNL d   1      57.315   0.653  31.048  0.00  0.00     0.100 A 
ENDROOT
BRANCH   2   7
ATOM      7  C   UNL d   1      56.568  -0.066  32.060  0.00  0.00     0.064 A 
ATOM      8  C   UNL d   1      56.284   0.663  32.332  0.00  0.00     0.018 A 
ATOM      9  C   UNL d   1      55.766   0.681  32.979  0.00  0.00     0.013 A 
ATOM     10  C   UNL d   1      55.536  -0.018  33.346  0.00  0.00     0.058 A 
ATOM     11  C   UNL d   1      55.828  -0.747  33.063  0.00  0.00     0.013 A 
ATOM     12 CL   UNL d   1      55.018  -0.001  33.993  0.00  0.00    -0.082 Cl
ATOM     13  C   UNL d   1      56.341  -0.766  32.423  0.00  0.00     0.018 A 
ENDBRANCH   2   7
BRANCH   1  14
ATOM     14  S   UNL d   1      58.642  -0.120  29.471  0.00  0.00     0.337 S 
ATOM     15  O   UNL d   1      59.459  -0.086  29.594  0.00  0.00    -0.181 OA
ATOM     16  O   UNL d   1      58.340  -0.167  28.698  0.00  0.00    -0.181 OA
BRANCH  14  17
ATOM     17  N   UNL d   1      59.311  -0.121  28.977  0.00  0.00    -0.213 N 
ATOM     18  C   UNL d   1      59.571   0.578  28.636  0.00  0.00     0.113 C 
ATOM     19  C   UNL d   1      59.717  -0.833  28.830  0.00  0.00     0.113 C 
ENDBRANCH  14  17
ENDBRANCH   1  14
TORSDOF 3
ENDMDL
MODEL 2
REMARK VINA RESULT:      -4.7      2.808      4.456
REMARK  3 active torsions:
REMARK  status: ('A' for Active; 'I' for Inactive)
REMARK    1  A    between atoms: N_2  and  S_1 
REMARK    2  A    between atoms: N_4  and  S_1 
REMARK    3  A    between atoms: C_9  and  N_3 
ROOT
ATOM      1  N   UNL d   1      56.340  -0.018  32.506  0.00  0.00    -0.213 N 
ATOM      2  N   UNL d   1      57.316  -0.169  31.190  0.00  0.00    -0.301 N 
ATOM      3  C   UNL d   1      56.516  -0.755  32.213  0.00  0.00     0.112 A 
ATOM      4  C   UNL d   1      56.649   0.682  32.147  0.00  0.00     0.112 A 
ATOM      5  C   UNL d   1      57.005  -0.831  31.554  0.00  0.00     0.100 A 
ATOM      6  C   UNL d   1      57.139   0.606  31.487  0.00  0.00     0.100 A 
ENDROOT
BRANCH   2   7
ATOM      7  C   UNL d   1      57.808  -0.246  30.526  0.00  0.00     0.064 A 
ATOM      8  C   UNL d   1      57.992   0.430  30.082  0.00  0.00     0.018 A 
ATOM      9  C   UNL d   1      58.483   0.357  29.418  0.00  0.00     0.013 A 
ATOM     10  C   UNL d   1      58.785  -0.377  29.203  0.00  0.00     0.058 A 
ATOM     11  C   UNL d   1      58.594  -1.050  29.657  0.00  0.00     0.013 A 
ATOM     12 CL   UNL d   1      59.276  -0.450  28.539  0.00  0.00    -0.082 Cl
ATOM     13  C   UNL d   1      58.107  -0.980  30.315  0.00  0.00     0.018 A 
ENDBRANCH   2   7
BRANCH   1  14
ATOM     14  S   UNL d   1      55.841   0.060  33.179  0.00  0.00     0.337 S 
ATOM     15  O   UNL d   1      56.003   0.634  33.752  0.00  0.00    -0.181 OA
ATOM     16  O   UNL d   1      55.184  -0.441  33.268  0.00  0.00    -0.181 OA
BRANCH  14  17
ATOM     17  N   UNL d   1      55.486   0.294  33.894  0.00  0.00    -0.213 N 
ATOM     18  C   UNL d   1      55.862   0.144  34.607  0.00  0.00     0.113 C 
ATOM     19  C   UNL d   1      54.749   0.682  33.885  0.00  0.00     0.113 C 
ENDBRANCH  14  17
ENDBRANCH   1  14
TORSDOF 3
ENDMDL
