MODEL 1
REMARK VINA RESULT:      -3.2      0.000      0.000
REMARK  5 active torsions:
REMARK  status: ('A' for Active; 'I' for Inactive)
REMARK    1  A    between atoms: N_2  and  S_1 
REMARK    2  A    between atoms: C_4  and  S_1 
REMARK    3  A    between atoms: C_3  and  C_6 
REMARK    4  A    between atoms: C_12  and  N_5 
REMARK    5  A    between atoms: O_24  and  C_20 
ROOT
ATOM      1  N   UNL d   1      32.610  17.246 -24.185  0.00  0.00    -0.226 N 
ATOM      2  N   UNL d   1      32.824  18.614 -23.295  0.00  0.00    -0.301 N 
ATOM      3  C   UNL d   1      32.386  17.980 -24.493  0.00  0.00     0.111 A 
ATOM      4  C   UNL d   1      32.944  17.200 -23.423  0.00  0.00     0.111 A 
ATOM      5  C   UNL d   1      33.049  17.889 -22.981  0.00  0.00     0.100 A 
ATOM      6  C   UNL d   1      32.495  18.656 -24.047  0.00  0.00     0.100 A 
ENDROOT
BRANCH   1   7
ATOM      7  S   UNL d   1      32.507  16.567 -24.620  0.00  0.00     0.271 S 
ATOM      8  O   UNL d   1      32.403  15.878 -25.062  0.00  0.00    -0.200 OA
ATOM      9  O   UNL d   1      33.219  16.697 -25.000  0.00  0.00    -0.200 OA
BRANCH   7  10
ATOM     10  C   UNL d   1      31.788  16.432 -24.239  0.00  0.00     0.104 A 
ATOM     11  C   UNL d   1      31.079  16.687 -24.578  0.00  0.00     0.017 A 
ATOM     12  C   UNL d   1      30.359  16.552 -24.197  0.00  0.00     0.072 A 
ATOM     13  C   UNL d   1      30.343  16.160 -23.473  0.00  0.00     0.004 A 
ATOM     14  C   UNL d   1      31.050  15.900 -23.124  0.00  0.00     0.001 A 
ATOM     15  C   UNL d   1      31.776  16.036 -23.509  0.00  0.00     0.013 A 
BRANCH  12  16
ATOM     16  C   UNL d   1      29.656  16.809 -24.540  0.00  0.00     0.419 C 
ATOM     17  F   UNL d   1      29.104  16.371 -25.029  0.00  0.00    -0.166 F 
ATOM     18  F   UNL d   1      29.282  17.584 -24.502  0.00  0.00    -0.166 F 
ATOM     19  F   UNL d   1      29.011  17.041 -24.855  0.00  0.00    -0.166 F 
ENDBRANCH  12  16
ENDBRANCH   7  10
ENDBRANCH   1   7
BRANCH   2  20
ATOM     20  C   UNL d   1      32.928  19.302 -22.854  0.00  0.00     0.064 A 
ATOM     21  C   UNL d   1      33.121  20.009 -23.231  0.00  0.00     0.020 A 
ATOM     22  C   UNL d   1      33.226  20.698 -22.789  0.00  0.00     0.026 A 
ATOM     23  C   UNL d   1      33.137  20.680 -21.971  0.00  0.00     0.094 A 
ATOM     24  C   UNL d   1      32.943  19.966 -21.595  0.00  0.00     0.026 A 
ATOM     25  C   UNL d   1      32.839  19.279 -22.040  0.00  0.00     0.020 A 
BRANCH  23  26
ATOM     26  O   UNL d   1      33.241  21.367 -21.526  0.00  0.00    -0.328 OA
ATOM     27  C   UNL d   1      32.844  21.458 -20.802  0.00  0.00     0.181 C 
ENDBRANCH  23  26
ENDBRANCH   2  20
TORSDOF 5
ENDMDL
MODEL 2
REMARK VINA RESULT:      -2.2      1.070      1.506
REMARK  5 active torsions:
REMARK  status: ('A' for Active; 'I' for Inactive)
REMARK    1  A    between atoms: N_2  and  S_1 
REMARK    2  A    between atoms: C_4  and  S_1 
REMARK    3  A    between atoms: C_3  and  C_6 
REMARK    4  A    between atoms: C_12  and  N_5 
REMARK    5  A    between atoms: O_24  and  C_20 
ROOT
ATOM      1  N   UNL d   1      31.691  16.915 -24.311  0.00  0.00    -0.226 N 
ATOM      2  N   UNL d   1      32.209  18.257 -23.511  0.00  0.00    -0.301 N 
ATOM      3  C   UNL d   1      31.691  17.649 -24.690  0.00  0.00     0.111 A 
ATOM      4  C   UNL d   1      31.955  16.856 -23.522  0.00  0.00     0.111 A 
ATOM      5  C   UNL d   1      32.213  17.532 -23.127  0.00  0.00     0.100 A 
ATOM      6  C   UNL d   1      31.949  18.313 -24.289  0.00  0.00     0.100 A 
ENDROOT
BRANCH   1   7
ATOM      7  S   UNL d   1      31.437  16.248 -24.700  0.00  0.00     0.271 S 
ATOM      8  O   UNL d   1      31.178  15.572 -25.096  0.00  0.00    -0.200 OA
ATOM      9  O   UNL d   1      32.211  16.006 -24.801  0.00  0.00    -0.200 OA
BRANCH   7  10
ATOM     10  C   UNL d   1      30.654  16.489 -24.601  0.00  0.00     0.104 A 
ATOM     11  C   UNL d   1      30.180  16.146 -24.018  0.00  0.00     0.017 A 
ATOM     12  C   UNL d   1      29.397  16.387 -23.918  0.00  0.00     0.072 A 
ATOM     13  C   UNL d   1      29.081  16.974 -24.402  0.00  0.00     0.004 A 
ATOM     14  C   UNL d   1      29.550  17.325 -24.991  0.00  0.00     0.001 A 
ATOM     15  C   UNL d   1      30.340  17.082 -25.091  0.00  0.00     0.013 A 
BRANCH  12  16
ATOM     16  C   UNL d   1      28.929  16.041 -23.335  0.00  0.00     0.419 C 
ATOM     17  F   UNL d   1      28.944  16.169 -22.488  0.00  0.00    -0.166 F 
ATOM     18  F   UNL d   1      28.300  15.458 -23.416  0.00  0.00    -0.166 F 
ATOM     19  F   UNL d   1      28.503  15.726 -22.799  0.00  0.00    -0.166 F 
ENDBRANCH  12  16
ENDBRANCH   7  10
ENDBRANCH   1   7
BRANCH   2  20
ATOM     20  C   UNL d   1      32.468  18.933 -23.116  0.00  0.00     0.064 A 
ATOM     21  C   UNL d   1      32.916  18.863 -22.428  0.00  0.00     0.020 A 
ATOM     22  C   UNL d   1      33.174  19.540 -22.033  0.00  0.00     0.026 A 
ATOM     23  C   UNL d   1      32.984  20.286 -22.326  0.00  0.00     0.094 A 
ATOM     24  C   UNL d   1      32.533  20.351 -23.019  0.00  0.00     0.026 A 
ATOM     25  C   UNL d   1      32.276  19.673 -23.412  0.00  0.00     0.020 A 
BRANCH  23  26
ATOM     26  O   UNL d   1      33.241  20.964 -21.933  0.00  0.00    -0.328 OA
ATOM     27  C   UNL d   1      32.818  21.251 -21.278  0.00  0.00     0.181 C 
ENDBRANCH  23  26
ENDBRANCH   2  20
TORSDOF 5
ENDMDL
