MODEL 1
REMARK VINA RESULT:      48.5      0.000      0.000
REMARK  3 active torsions:
REMARK  status: ('A' for Active; 'I' for Inactive)
REMARK    1  A    between atoms: N_6  and  C_1 
REMARK    2  A    between atoms: C_11  and  C_2 
REMARK    3  A    between atoms: C_5  and  C_8 
REMARK       I    between atoms: C_8  and  N_6 
ROOT
ATOM      1  N   UNL d   1      60.199  49.517  50.542  0.00  0.00    -0.200 NA
ATOM      2  C   UNL d   1      59.680  49.497  49.886  0.00  0.00     0.302 C 
ATOM      3  O   UNL d   1      59.996  49.455  49.112  0.00  0.00    -0.263 OA
ENDROOT
BRANCH   1   4
ATOM      4  C   UNL d   1      59.903  49.557  51.273  0.00  0.00     0.119 A 
ATOM      5  C   UNL d   1      60.316  49.573  51.926  0.00  0.00     0.084 A 
ATOM      6  C   UNL d   1      59.799  49.613  52.524  0.00  0.00     0.013 A 
ATOM      7  C   UNL d   1      59.915  49.644  53.313  0.00  0.00     0.001 A 
ATOM      8  C   UNL d   1      59.084  49.621  52.231  0.00  0.00     0.031 A 
ATOM      9  C   UNL d   1      59.281  49.682  53.787  0.00  0.00     0.001 A 
ATOM     10  C   UNL d   1      58.555  49.690  53.479  0.00  0.00     0.006 A 
ATOM     11  S   UNL d   1      59.132  49.586  51.455  0.00  0.00    -0.068 SA
BRANCH   5  12
ATOM     12  C   UNL d   1      61.096  49.553  51.998  0.00  0.00     0.299 C 
ATOM     13  O   UNL d   1      61.419  49.502  52.721  0.00  0.00    -0.264 OA
ATOM     14  N   UNL d   1      61.567  49.584  51.368  0.00  0.00    -0.102 N 
ENDBRANCH   5  12
ENDBRANCH   1   4
BRANCH   2  15
ATOM     15  C   UNL d   1      58.862  49.520  49.996  0.00  0.00     0.158 A 
ATOM     16  O   UNL d   1      58.281  49.518  49.406  0.00  0.00    -0.302 OA
ATOM     17  C   UNL d   1      57.536  49.545  49.759  0.00  0.00     0.100 A 
ATOM     18  C   UNL d   1      56.762  49.555  49.455  0.00  0.00     0.025 A 
ATOM     19  C   UNL d   1      57.648  49.564  50.585  0.00  0.00     0.025 A 
ATOM     20  C   UNL d   1      56.109  49.584  49.956  0.00  0.00     0.002 A 
ATOM     21  C   UNL d   1      56.217  49.603  50.791  0.00  0.00     0.000 A 
ATOM     22  C   UNL d   1      56.994  49.593  51.096  0.00  0.00     0.002 A 
ATOM     23  C   UNL d   1      58.467  49.549  50.732  0.00  0.00     0.032 A 
ENDBRANCH   2  15
TORSDOF 3
ENDMDL
