MODEL 1
REMARK VINA RESULT:      -4.2      0.000      0.000
REMARK  6 active torsions:
REMARK  status: ('A' for Active; 'I' for Inactive)
REMARK    1  A    between atoms: N_6  and  C_1 
REMARK    2  A    between atoms: C_3  and  N_6 
REMARK    3  A    between atoms: N_4  and  C_3 
REMARK       I    between atoms: C_9  and  N_4 
REMARK    4  A    between atoms: C_12  and  C_9 
REMARK    5  A    between atoms: C_10  and  C_13 
REMARK    6  A    between atoms: O_20  and  C_10 
ROOT
ATOM      1  N   UNL d   1      57.310   0.489  30.283  0.00  0.00    -0.179 NA
ATOM      2  C   UNL d   1      57.647   0.357  29.537  0.00  0.00     0.281 C 
ATOM      3  O   UNL d   1      57.302   0.682  28.864  0.00  0.00    -0.265 OA
ENDROOT
BRANCH   1   4
ATOM      4  C   UNL d   1      57.656   0.163  30.955  0.00  0.00     0.225 C 
ATOM      5  S   UNL d   1      58.393   0.428  31.206  0.00  0.00    -0.037 SA
BRANCH   4   6
ATOM      6  N   UNL d   1      57.260  -0.434  31.381  0.00  0.00    -0.192 NA
BRANCH   6   7
ATOM      7  C   UNL d   1      56.867  -0.244  32.088  0.00  0.00     0.196 A 
ATOM      8  N   UNL d   1      57.164   0.242  32.679  0.00  0.00    -0.221 NA
ATOM      9  C   UNL d   1      56.594   0.281  33.283  0.00  0.00     0.090 A 
ATOM     10  C   UNL d   1      56.583   0.682  34.010  0.00  0.00     0.020 A 
ATOM     11  C   UNL d   1      55.952  -0.183  33.056  0.00  0.00     0.050 A 
ATOM     12  C   UNL d   1      55.926   0.615  34.505  0.00  0.00     0.002 A 
ATOM     13  C   UNL d   1      55.281   0.146  34.273  0.00  0.00     0.001 A 
ATOM     14  C   UNL d   1      55.295  -0.250  33.551  0.00  0.00     0.008 A 
ATOM     15  S   UNL d   1      56.129  -0.508  32.308  0.00  0.00    -0.047 SA
ENDBRANCH   6   7
ENDBRANCH   4   6
ENDBRANCH   1   4
BRANCH   2  16
ATOM     16  C   UNL d   1      58.329  -0.100  29.467  0.00  0.00     0.058 A 
ATOM     17  C   UNL d   1      59.068   0.256  29.532  0.00  0.00     0.005 A 
ATOM     18  C   UNL d   1      59.759  -0.201  29.462  0.00  0.00     0.005 A 
ATOM     19  C   UNL d   1      59.701  -1.013  29.328  0.00  0.00     0.063 A 
ATOM     20  C   UNL d   1      58.953  -1.368  29.264  0.00  0.00     0.005 A 
ATOM     21  C   UNL d   1      58.271  -0.912  29.333  0.00  0.00     0.005 A 
BRANCH  19  22
ATOM     22  C   UNL d   1      60.386  -1.482  29.257  0.00  0.00     0.296 C 
ATOM     23  O   UNL d   1      61.131  -1.132  29.201  0.00  0.00    -0.259 OA
BRANCH  22  24
ATOM     24  O   UNL d   1      60.313  -2.301  29.242  0.00  0.00    -0.296 OA
ATOM     25  C   UNL d   1      60.983  -2.782  29.347  0.00  0.00     0.185 C 
ENDBRANCH  22  24
ENDBRANCH  19  22
ENDBRANCH   2  16
TORSDOF 6
ENDMDL
MODEL 2
REMARK VINA RESULT:      -3.4      0.853      1.290
REMARK  6 active torsions:
REMARK  status: ('A' for Active; 'I' for Inactive)
REMARK    1  A    between atoms: N_6  and  C_1 
REMARK    2  A    between atoms: C_3  and  N_6 
REMARK    3  A    between atoms: N_4  and  C_3 
REMARK       I    between atoms: C_9  and  N_4 
REMARK    4  A    between atoms: C_12  and  C_9 
REMARK    5  A    between atoms: C_10  and  C_13 
REMARK    6  A    between atoms: O_20  and  C_10 
ROOT
ATOM      1  N   UNL d   1      57.812   0.057  29.780  0.00  0.00    -0.179 NA
ATOM      2  C   UNL d   1      58.290  -0.044  29.110  0.00  0.00     0.281 C 
ATOM      3  O   UNL d   1      58.209   0.462  28.466  0.00  0.00    -0.265 OA
ENDROOT
BRANCH   1   4
ATOM      4  C   UNL d   1      57.894  -0.450  30.424  0.00  0.00     0.225 C 
ATOM      5  S   UNL d   1      57.765  -1.257  30.330  0.00  0.00    -0.037 SA
BRANCH   4   6
ATOM      6  N   UNL d   1      58.108  -0.145  31.170  0.00  0.00    -0.192 NA
BRANCH   6   7
ATOM      7  C   UNL d   1      57.528  -0.044  31.756  0.00  0.00     0.196 A 
ATOM      8  N   UNL d   1      56.773  -0.365  31.735  0.00  0.00    -0.221 NA
ATOM      9  C   UNL d   1      56.378  -0.127  32.426  0.00  0.00     0.090 A 
ATOM     10  C   UNL d   1      55.611  -0.278  32.708  0.00  0.00     0.020 A 
ATOM     11  C   UNL d   1      56.896   0.339  32.866  0.00  0.00     0.050 A 
ATOM     12  C   UNL d   1      55.370   0.040  33.430  0.00  0.00     0.002 A 
ATOM     13  C   UNL d   1      55.895   0.509  33.870  0.00  0.00     0.001 A 
ATOM     14  C   UNL d   1      56.655   0.657  33.588  0.00  0.00     0.008 A 
ATOM     15  S   UNL d   1      57.613   0.386  32.441  0.00  0.00    -0.047 SA
ENDBRANCH   6   7
ENDBRANCH   4   6
ENDBRANCH   1   4
BRANCH   2  16
ATOM     16  C   UNL d   1      58.847  -0.650  29.087  0.00  0.00     0.058 A 
ATOM     17  C   UNL d   1      58.626  -1.400  28.827  0.00  0.00     0.005 A 
ATOM     18  C   UNL d   1      59.185  -2.014  28.803  0.00  0.00     0.005 A 
ATOM     19  C   UNL d   1      59.962  -1.871  29.039  0.00  0.00     0.063 A 
ATOM     20  C   UNL d   1      60.180  -1.113  29.300  0.00  0.00     0.005 A 
ATOM     21  C   UNL d   1      59.624  -0.507  29.323  0.00  0.00     0.005 A 
BRANCH  19  22
ATOM     22  C   UNL d   1      60.531  -2.479  29.019  0.00  0.00     0.296 C 
ATOM     23  O   UNL d   1      61.133  -2.473  28.455  0.00  0.00    -0.259 OA
BRANCH  22  24
ATOM     24  O   UNL d   1      60.487  -3.089  29.570  0.00  0.00    -0.296 OA
ATOM     25  C   UNL d   1      61.089  -3.661  29.606  0.00  0.00     0.185 C 
ENDBRANCH  22  24
ENDBRANCH  19  22
ENDBRANCH   2  16
TORSDOF 6
ENDMDL
