MODEL 1
REMARK VINA RESULT:      -5.8      0.000      0.000
REMARK  9 active torsions:
REMARK  status: ('A' for Active; 'I' for Inactive)
REMARK    1  A    between atoms: C_9  and  C_1 
REMARK    2  A    between atoms: N_8  and  C_2 
REMARK    3  A    between atoms: C_10  and  C_4 
REMARK    4  A    between atoms: C_6  and  N_7 
REMARK    5  A    between atoms: N_7  and  N_8 
REMARK    6  A    between atoms: O_18  and  C_9 
REMARK    7  A    between atoms: O_19  and  C_10 
REMARK    8  A    between atoms: C_23  and  O_18 
REMARK    9  A    between atoms: C_24  and  O_19 
ROOT
ATOM      1  C   UNL d   1     -40.161  14.700  19.876  0.00  0.00     0.090 A 
ATOM      2  C   UNL d   1     -39.414  14.601  20.150  0.00  0.00     0.138 A 
ATOM      3  C   UNL d   1     -40.119  14.782  19.082  0.00  0.00     0.018 A 
ATOM      4  C   UNL d   1     -39.387  14.744  18.823  0.00  0.00     0.095 A 
ATOM      5  S   UNL d   1     -38.903  14.628  19.474  0.00  0.00    -0.061 SA
ATOM      6  C   UNL d   1     -40.794  14.903  18.540  0.00  0.00     0.001 C 
ENDROOT
BRANCH   2   7
ATOM      7  N   UNL d   1     -39.260  14.500  20.953  0.00  0.00    -0.141 NA
BRANCH   7   8
ATOM      8  N   UNL d   1     -38.481  14.367  21.250  0.00  0.00    -0.141 NA
BRANCH   8   9
ATOM      9  C   UNL d   1     -38.358  14.221  22.084  0.00  0.00     0.180 A 
ATOM     10  C   UNL d   1     -38.251  13.412  22.321  0.00  0.00     0.218 A 
ATOM     11  O   UNL d   1     -38.271  12.827  21.742  0.00  0.00    -0.285 OA
ATOM     12  C   UNL d   1     -38.131  13.241  23.119  0.00  0.00     0.044 A 
ATOM     13  C   UNL d   1     -38.111  13.827  23.698  0.00  0.00     0.007 A 
ATOM     14  C   UNL d   1     -38.216  14.636  23.480  0.00  0.00     0.044 A 
ATOM     15  C   UNL d   1     -38.341  14.832  22.664  0.00  0.00     0.218 A 
ATOM     16  O   UNL d   1     -38.440  15.605  22.463  0.00  0.00    -0.285 OA
ENDBRANCH   8   9
ENDBRANCH   7   8
ENDBRANCH   2   7
BRANCH   1  17
ATOM     17  C   UNL d   1     -40.855  14.711  20.353  0.00  0.00     0.302 C 
ATOM     18  O   UNL d   1     -41.167  15.433  20.638  0.00  0.00    -0.259 OA
BRANCH  17  19
ATOM     19  O   UNL d   1     -41.240  13.975  20.544  0.00  0.00    -0.271 OA
BRANCH  19  20
ATOM     20  C   UNL d   1     -41.910  13.972  21.025  0.00  0.00     0.126 C 
ATOM     21  C   UNL d   1     -42.283  13.253  21.178  0.00  0.00     0.029 C 
ENDBRANCH  19  20
ENDBRANCH  17  19
ENDBRANCH   1  17
BRANCH   4  22
ATOM     22  C   UNL d   1     -39.152  14.810  18.018  0.00  0.00     0.306 C 
ATOM     23  O   UNL d   1     -39.202  15.512  17.632  0.00  0.00    -0.258 OA
BRANCH  22  24
ATOM     24  O   UNL d   1     -38.873  14.124  17.662  0.00  0.00    -0.271 OA
BRANCH  24  25
ATOM     25  C   UNL d   1     -38.525  14.184  16.890  0.00  0.00     0.126 C 
ATOM     26  C   UNL d   1     -38.284  13.512  16.516  0.00  0.00     0.029 C 
ENDBRANCH  24  25
ENDBRANCH  22  24
ENDBRANCH   4  22
TORSDOF 9
ENDMDL
MODEL 2
REMARK VINA RESULT:      -5.3      1.608      2.897
REMARK  9 active torsions:
REMARK  status: ('A' for Active; 'I' for Inactive)
REMARK    1  A    between atoms: C_9  and  C_1 
REMARK    2  A    between atoms: N_8  and  C_2 
REMARK    3  A    between atoms: C_10  and  C_4 
REMARK    4  A    between atoms: C_6  and  N_7 
REMARK    5  A    between atoms: N_7  and  N_8 
REMARK    6  A    between atoms: O_18  and  C_9 
REMARK    7  A    between atoms: O_19  and  C_10 
REMARK    8  A    between atoms: C_23  and  O_18 
REMARK    9  A    between atoms: C_24  and  O_19 
ROOT
ATOM      1  C   UNL d   1     -39.532  14.471  17.821  0.00  0.00     0.090 A 
ATOM      2  C   UNL d   1     -39.473  14.190  18.569  0.00  0.00     0.138 A 
ATOM      3  C   UNL d   1     -39.165  13.950  17.338  0.00  0.00     0.018 A 
ATOM      4  C   UNL d   1     -38.871  13.346  17.728  0.00  0.00     0.095 A 
ATOM      5  S   UNL d   1     -39.045  13.459  18.521  0.00  0.00    -0.061 SA
ATOM      6  C   UNL d   1     -39.086  14.021  16.469  0.00  0.00     0.001 C 
ENDROOT
BRANCH   2   7
ATOM      7  N   UNL d   1     -39.795  14.597  19.209  0.00  0.00    -0.141 NA
BRANCH   7   8
ATOM      8  N   UNL d   1     -39.745  14.308  20.001  0.00  0.00    -0.141 NA
BRANCH   8   9
ATOM      9  C   UNL d   1     -39.793  14.851  20.660  0.00  0.00     0.180 A 
ATOM     10  C   UNL d   1     -40.565  15.142  20.863  0.00  0.00     0.218 A 
ATOM     11  O   UNL d   1     -41.211  14.888  20.419  0.00  0.00    -0.285 OA
ATOM     12  C   UNL d   1     -40.643  15.668  21.494  0.00  0.00     0.044 A 
ATOM     13  C   UNL d   1     -39.996  15.922  21.938  0.00  0.00     0.007 A 
ATOM     14  C   UNL d   1     -39.222  15.642  21.750  0.00  0.00     0.044 A 
ATOM     15  C   UNL d   1     -39.123  15.101  21.104  0.00  0.00     0.218 A 
ATOM     16  O   UNL d   1     -38.383  14.839  20.931  0.00  0.00    -0.285 OA
ENDBRANCH   8   9
ENDBRANCH   7   8
ENDBRANCH   2   7
BRANCH   1  17
ATOM     17  C   UNL d   1     -39.914  15.188  17.601  0.00  0.00     0.302 C 
ATOM     18  O   UNL d   1     -39.495  15.911  17.590  0.00  0.00    -0.259 OA
BRANCH  17  19
ATOM     19  O   UNL d   1     -40.739  15.170  17.388  0.00  0.00    -0.271 OA
BRANCH  19  20
ATOM     20  C   UNL d   1     -41.097  15.838  17.060  0.00  0.00     0.126 C 
ATOM     21  C   UNL d   1     -41.706  15.732  16.515  0.00  0.00     0.029 C 
ENDBRANCH  19  20
ENDBRANCH  17  19
ENDBRANCH   1  17
BRANCH   4  22
ATOM     22  C   UNL d   1     -38.453  12.702  17.385  0.00  0.00     0.306 C 
ATOM     23  O   UNL d   1     -38.314  12.676  16.595  0.00  0.00    -0.258 OA
BRANCH  22  24
ATOM     24  O   UNL d   1     -38.201  12.115  17.901  0.00  0.00    -0.271 OA
BRANCH  24  25
ATOM     25  C   UNL d   1     -37.971  11.365  17.577  0.00  0.00     0.126 C 
ATOM     26  C   UNL d   1     -37.940  10.722  18.060  0.00  0.00     0.029 C 
ENDBRANCH  24  25
ENDBRANCH  22  24
ENDBRANCH   4  22
TORSDOF 9
ENDMDL
MODEL 3
REMARK VINA RESULT:      -4.9      1.029      1.602
REMARK  9 active torsions:
REMARK  status: ('A' for Active; 'I' for Inactive)
REMARK    1  A    between atoms: C_9  and  C_1 
REMARK    2  A    between atoms: N_8  and  C_2 
REMARK    3  A    between atoms: C_10  and  C_4 
REMARK    4  A    between atoms: C_6  and  N_7 
REMARK    5  A    between atoms: N_7  and  N_8 
REMARK    6  A    between atoms: O_18  and  C_9 
REMARK    7  A    between atoms: O_19  and  C_10 
REMARK    8  A    between atoms: C_23  and  O_18 
REMARK    9  A    between atoms: C_24  and  O_19 
ROOT
ATOM      1  C   UNL d   1     -39.775  15.030  18.639  0.00  0.00     0.090 A 
ATOM      2  C   UNL d   1     -39.054  14.877  18.954  0.00  0.00     0.138 A 
ATOM      3  C   UNL d   1     -39.688  15.072  17.845  0.00  0.00     0.018 A 
ATOM      4  C   UNL d   1     -38.952  14.955  17.626  0.00  0.00     0.095 A 
ATOM      5  S   UNL d   1     -38.511  14.826  18.305  0.00  0.00    -0.061 SA
ATOM      6  C   UNL d   1     -40.323  15.229  17.265  0.00  0.00     0.001 C 
ENDROOT
BRANCH   2   7
ATOM      7  N   UNL d   1     -38.948  14.798  19.768  0.00  0.00    -0.141 NA
BRANCH   7   8
ATOM      8  N   UNL d   1     -38.184  14.723  20.118  0.00  0.00    -0.141 NA
BRANCH   8   9
ATOM      9  C   UNL d   1     -38.108  14.473  20.933  0.00  0.00     0.180 A 
ATOM     10  C   UNL d   1     -38.028  15.086  21.517  0.00  0.00     0.218 A 
ATOM     11  O   UNL d   1     -38.028  15.871  21.267  0.00  0.00    -0.285 OA
ATOM     12  C   UNL d   1     -37.952  14.876  22.311  0.00  0.00     0.044 A 
ATOM     13  C   UNL d   1     -37.952  14.090  22.561  0.00  0.00     0.007 A 
ATOM     14  C   UNL d   1     -38.031  13.469  21.994  0.00  0.00     0.044 A 
ATOM     15  C   UNL d   1     -38.109  13.666  21.172  0.00  0.00     0.218 A 
ATOM     16  O   UNL d   1     -38.183  13.070  20.638  0.00  0.00    -0.285 OA
ENDBRANCH   8   9
ENDBRANCH   7   8
ENDBRANCH   2   7
BRANCH   1  17
ATOM     17  C   UNL d   1     -40.486  15.126  19.079  0.00  0.00     0.302 C 
ATOM     18  O   UNL d   1     -40.784  15.888  19.250  0.00  0.00    -0.259 OA
BRANCH  17  19
ATOM     19  O   UNL d   1     -40.903  14.434  19.351  0.00  0.00    -0.271 OA
BRANCH  19  20
ATOM     20  C   UNL d   1     -41.569  14.515  19.832  0.00  0.00     0.126 C 
ATOM     21  C   UNL d   1     -41.778  13.889  20.325  0.00  0.00     0.029 C 
ENDBRANCH  19  20
ENDBRANCH  17  19
ENDBRANCH   1  17
BRANCH   4  22
ATOM     22  C   UNL d   1     -38.673  14.963  16.832  0.00  0.00     0.306 C 
ATOM     23  O   UNL d   1     -38.779  15.608  16.366  0.00  0.00    -0.258 OA
BRANCH  22  24
ATOM     24  O   UNL d   1     -38.295  14.282  16.571  0.00  0.00    -0.271 OA
BRANCH  24  25
ATOM     25  C   UNL d   1     -38.113  14.214  15.745  0.00  0.00     0.126 C 
ATOM     26  C   UNL d   1     -37.955  13.486  15.438  0.00  0.00     0.029 C 
ENDBRANCH  24  25
ENDBRANCH  22  24
ENDBRANCH   4  22
TORSDOF 9
ENDMDL
MODEL 4
REMARK VINA RESULT:      -4.8      1.648      4.547
REMARK  9 active torsions:
REMARK  status: ('A' for Active; 'I' for Inactive)
REMARK    1  A    between atoms: C_9  and  C_1 
REMARK    2  A    between atoms: N_8  and  C_2 
REMARK    3  A    between atoms: C_10  and  C_4 
REMARK    4  A    between atoms: C_6  and  N_7 
REMARK    5  A    between atoms: N_7  and  N_8 
REMARK    6  A    between atoms: O_18  and  C_9 
REMARK    7  A    between atoms: O_19  and  C_10 
REMARK    8  A    between atoms: C_23  and  O_18 
REMARK    9  A    between atoms: C_24  and  O_19 
ROOT
ATOM      1  C   UNL d   1     -40.084  14.181  20.490  0.00  0.00     0.090 A 
ATOM      2  C   UNL d   1     -40.373  14.137  19.743  0.00  0.00     0.138 A 
ATOM      3  C   UNL d   1     -40.703  14.108  20.992  0.00  0.00     0.018 A 
ATOM      4  C   UNL d   1     -41.376  14.020  20.615  0.00  0.00     0.095 A 
ATOM      5  S   UNL d   1     -41.211  14.033  19.812  0.00  0.00    -0.061 SA
ATOM      6  C   UNL d   1     -40.661  14.122  21.866  0.00  0.00     0.001 C 
ENDROOT
BRANCH   2   7
ATOM      7  N   UNL d   1     -39.877  14.192  19.087  0.00  0.00    -0.141 NA
BRANCH   7   8
ATOM      8  N   UNL d   1     -40.169  14.146  18.296  0.00  0.00    -0.141 NA
BRANCH   8   9
ATOM      9  C   UNL d   1     -39.651  14.316  17.637  0.00  0.00     0.180 A 
ATOM     10  C   UNL d   1     -39.228  13.659  17.301  0.00  0.00     0.218 A 
ATOM     11  O   UNL d   1     -39.341  12.910  17.626  0.00  0.00    -0.285 OA
ATOM     12  C   UNL d   1     -38.721  13.792  16.664  0.00  0.00     0.044 A 
ATOM     13  C   UNL d   1     -38.608  14.542  16.340  0.00  0.00     0.007 A 
ATOM     14  C   UNL d   1     -39.020  15.205  16.661  0.00  0.00     0.044 A 
ATOM     15  C   UNL d   1     -39.546  15.087  17.316  0.00  0.00     0.218 A 
ATOM     16  O   UNL d   1     -39.935  15.724  17.617  0.00  0.00    -0.285 OA
ENDBRANCH   8   9
ENDBRANCH   7   8
ENDBRANCH   2   7
BRANCH   1  17
ATOM     17  C   UNL d   1     -39.274  14.284  20.691  0.00  0.00     0.302 C 
ATOM     18  O   UNL d   1     -38.749  13.634  20.705  0.00  0.00    -0.259 OA
BRANCH  17  19
ATOM     19  O   UNL d   1     -38.990  15.065  20.883  0.00  0.00    -0.271 OA
BRANCH  19  20
ATOM     20  C   UNL d   1     -38.183  15.195  20.999  0.00  0.00     0.126 C 
ATOM     21  C   UNL d   1     -37.941  15.920  21.305  0.00  0.00     0.029 C 
ENDBRANCH  19  20
ENDBRANCH  17  19
ENDBRANCH   1  17
BRANCH   4  22
ATOM     22  C   UNL d   1     -42.130  13.929  20.979  0.00  0.00     0.306 C 
ATOM     23  O   UNL d   1     -42.536  14.568  21.247  0.00  0.00    -0.258 OA
BRANCH  22  24
ATOM     24  O   UNL d   1     -42.414  13.161  21.041  0.00  0.00    -0.271 OA
BRANCH  24  25
ATOM     25  C   UNL d   1     -43.236  13.050  21.225  0.00  0.00     0.126 C 
ATOM     26  C   UNL d   1     -43.467  12.369  21.589  0.00  0.00     0.029 C 
ENDBRANCH  24  25
ENDBRANCH  22  24
ENDBRANCH   4  22
TORSDOF 9
ENDMDL
MODEL 5
REMARK VINA RESULT:      -4.4      1.237      4.285
REMARK  9 active torsions:
REMARK  status: ('A' for Active; 'I' for Inactive)
REMARK    1  A    between atoms: C_9  and  C_1 
REMARK    2  A    between atoms: N_8  and  C_2 
REMARK    3  A    between atoms: C_10  and  C_4 
REMARK    4  A    between atoms: C_6  and  N_7 
REMARK    5  A    between atoms: N_7  and  N_8 
REMARK    6  A    between atoms: O_18  and  C_9 
REMARK    7  A    between atoms: O_19  and  C_10 
REMARK    8  A    between atoms: C_23  and  O_18 
REMARK    9  A    between atoms: C_24  and  O_19 
ROOT
ATOM      1  C   UNL d   1     -39.668  14.702  20.302  0.00  0.00     0.090 A 
ATOM      2  C   UNL d   1     -38.954  14.529  19.981  0.00  0.00     0.138 A 
ATOM      3  C   UNL d   1     -39.561  14.803  21.088  0.00  0.00     0.018 A 
ATOM      4  C   UNL d   1     -38.819  14.706  21.297  0.00  0.00     0.095 A 
ATOM      5  S   UNL d   1     -38.394  14.530  20.619  0.00  0.00    -0.061 SA
ATOM      6  C   UNL d   1     -40.183  14.999  21.671  0.00  0.00     0.001 C 
ENDROOT
BRANCH   2   7
ATOM      7  N   UNL d   1     -38.867  14.391  19.173  0.00  0.00    -0.141 NA
BRANCH   7   8
ATOM      8  N   UNL d   1     -38.115  14.239  18.819  0.00  0.00    -0.141 NA
BRANCH   8   9
ATOM      9  C   UNL d   1     -38.067  14.004  17.998  0.00  0.00     0.180 A 
ATOM     10  C   UNL d   1     -37.988  14.627  17.425  0.00  0.00     0.218 A 
ATOM     11  O   UNL d   1     -37.963  15.406  17.691  0.00  0.00    -0.285 OA
ATOM     12  C   UNL d   1     -37.940  14.431  16.625  0.00  0.00     0.044 A 
ATOM     13  C   UNL d   1     -37.965  13.651  16.359  0.00  0.00     0.007 A 
ATOM     14  C   UNL d   1     -38.044  13.021  16.915  0.00  0.00     0.044 A 
ATOM     15  C   UNL d   1     -38.095  13.202  17.743  0.00  0.00     0.218 A 
ATOM     16  O   UNL d   1     -38.170  12.597  18.266  0.00  0.00    -0.285 OA
ENDBRANCH   8   9
ENDBRANCH   7   8
ENDBRANCH   2   7
BRANCH   1  17
ATOM     17  C   UNL d   1     -40.390  14.761  19.874  0.00  0.00     0.302 C 
ATOM     18  O   UNL d   1     -40.948  14.139  19.886  0.00  0.00    -0.259 OA
BRANCH  17  19
ATOM     19  O   UNL d   1     -40.549  15.468  19.424  0.00  0.00    -0.271 OA
BRANCH  19  20
ATOM     20  C   UNL d   1     -41.326  15.671  19.234  0.00  0.00     0.126 C 
ATOM     21  C   UNL d   1     -41.492  15.922  18.468  0.00  0.00     0.029 C 
ENDBRANCH  19  20
ENDBRANCH  17  19
ENDBRANCH   1  17
BRANCH   4  22
ATOM     22  C   UNL d   1     -38.522  14.774  22.081  0.00  0.00     0.306 C 
ATOM     23  O   UNL d   1     -38.134  15.436  22.318  0.00  0.00    -0.258 OA
BRANCH  22  24
ATOM     24  O   UNL d   1     -38.651  14.133  22.577  0.00  0.00    -0.271 OA
BRANCH  24  25
ATOM     25  C   UNL d   1     -38.051  13.934  23.144  0.00  0.00     0.126 C 
ATOM     26  C   UNL d   1     -38.159  13.293  23.619  0.00  0.00     0.029 C 
ENDBRANCH  24  25
ENDBRANCH  22  24
ENDBRANCH   4  22
TORSDOF 9
ENDMDL
MODEL 6
REMARK VINA RESULT:      -3.2      6.624      9.039
REMARK  9 active torsions:
REMARK  status: ('A' for Active; 'I' for Inactive)
REMARK    1  A    between atoms: C_9  and  C_1 
REMARK    2  A    between atoms: N_8  and  C_2 
REMARK    3  A    between atoms: C_10  and  C_4 
REMARK    4  A    between atoms: C_6  and  N_7 
REMARK    5  A    between atoms: N_7  and  N_8 
REMARK    6  A    between atoms: O_18  and  C_9 
REMARK    7  A    between atoms: O_19  and  C_10 
REMARK    8  A    between atoms: C_23  and  O_18 
REMARK    9  A    between atoms: C_24  and  O_19 
ROOT
ATOM      1  C   UNL d   1     -48.286  13.154  22.571  0.00  0.00     0.090 A 
ATOM      2  C   UNL d   1     -47.547  13.418  22.734  0.00  0.00     0.138 A 
ATOM      3  C   UNL d   1     -48.771  13.791  22.552  0.00  0.00     0.018 A 
ATOM      4  C   UNL d   1     -48.389  14.453  22.694  0.00  0.00     0.095 A 
ATOM      5  S   UNL d   1     -47.602  14.260  22.816  0.00  0.00    -0.061 SA
ATOM      6  C   UNL d   1     -49.631  13.779  22.395  0.00  0.00     0.001 C 
ENDROOT
BRANCH   2   7
ATOM      7  N   UNL d   1     -46.909  12.899  22.793  0.00  0.00    -0.141 NA
BRANCH   7   8
ATOM      8  N   UNL d   1     -46.128  13.164  22.975  0.00  0.00    -0.141 NA
BRANCH   8   9
ATOM      9  C   UNL d   1     -45.454  12.672  22.784  0.00  0.00     0.180 A 
ATOM     10  C   UNL d   1     -44.913  12.971  22.200  0.00  0.00     0.218 A 
ATOM     11  O   UNL d   1     -45.069  13.705  21.859  0.00  0.00    -0.285 OA
ATOM     12  C   UNL d   1     -44.254  12.520  21.996  0.00  0.00     0.044 A 
ATOM     13  C   UNL d   1     -44.098  11.786  22.338  0.00  0.00     0.007 A 
ATOM     14  C   UNL d   1     -44.625  11.474  22.920  0.00  0.00     0.044 A 
ATOM     15  C   UNL d   1     -45.309  11.924  23.143  0.00  0.00     0.218 A 
ATOM     16  O   UNL d   1     -45.806  11.621  23.698  0.00  0.00    -0.285 OA
ENDBRANCH   8   9
ENDBRANCH   7   8
ENDBRANCH   2   7
BRANCH   1  17
ATOM     17  C   UNL d   1     -48.498  12.350  22.445  0.00  0.00     0.302 C 
ATOM     18  O   UNL d   1     -48.475  12.016  21.679  0.00  0.00    -0.259 OA
BRANCH  17  19
ATOM     19  O   UNL d   1     -48.738  11.874  23.110  0.00  0.00    -0.271 OA
BRANCH  19  20
ATOM     20  C   UNL d   1     -49.370  11.349  23.037  0.00  0.00     0.126 C 
ATOM     21  C   UNL d   1     -49.604  10.917  23.698  0.00  0.00     0.029 C 
ENDBRANCH  19  20
ENDBRANCH  17  19
ENDBRANCH   1  17
BRANCH   4  22
ATOM     22  C   UNL d   1     -48.735  15.219  22.715  0.00  0.00     0.306 C 
ATOM     23  O   UNL d   1     -48.648  15.726  22.099  0.00  0.00    -0.258 OA
BRANCH  22  24
ATOM     24  O   UNL d   1     -49.159  15.410  23.392  0.00  0.00    -0.271 OA
BRANCH  24  25
ATOM     25  C   UNL d   1     -49.833  15.919  23.315  0.00  0.00     0.126 C 
ATOM     26  C   UNL d   1     -50.522  15.716  23.680  0.00  0.00     0.029 C 
ENDBRANCH  24  25
ENDBRANCH  22  24
ENDBRANCH   4  22
TORSDOF 9
ENDMDL
MODEL 7
REMARK VINA RESULT:      -3.1      7.279      9.608
REMARK  9 active torsions:
REMARK  status: ('A' for Active; 'I' for Inactive)
REMARK    1  A    between atoms: C_9  and  C_1 
REMARK    2  A    between atoms: N_8  and  C_2 
REMARK    3  A    between atoms: C_10  and  C_4 
REMARK    4  A    between atoms: C_6  and  N_7 
REMARK    5  A    between atoms: N_7  and  N_8 
REMARK    6  A    between atoms: O_18  and  C_9 
REMARK    7  A    between atoms: O_19  and  C_10 
REMARK    8  A    between atoms: C_23  and  O_18 
REMARK    9  A    between atoms: C_24  and  O_19 
ROOT
ATOM      1  C   UNL d   1     -46.810  12.729  23.180  0.00  0.00     0.090 A 
ATOM      2  C   UNL d   1     -47.407  12.242  22.961  0.00  0.00     0.138 A 
ATOM      3  C   UNL d   1     -46.187  12.271  23.384  0.00  0.00     0.018 A 
ATOM      4  C   UNL d   1     -46.345  11.513  23.310  0.00  0.00     0.095 A 
ATOM      5  S   UNL d   1     -47.116  11.449  23.041  0.00  0.00    -0.061 SA
ATOM      6  C   UNL d   1     -45.407  12.555  23.660  0.00  0.00     0.001 C 
ENDROOT
BRANCH   2   7
ATOM      7  N   UNL d   1     -48.136  12.538  22.716  0.00  0.00    -0.141 NA
BRANCH   7   8
ATOM      8  N   UNL d   1     -48.695  12.068  22.291  0.00  0.00    -0.141 NA
BRANCH   8   9
ATOM      9  C   UNL d   1     -49.483  12.367  22.145  0.00  0.00     0.180 A 
ATOM     10  C   UNL d   1     -50.080  12.172  22.718  0.00  0.00     0.218 A 
ATOM     11  O   UNL d   1     -49.866  11.715  23.369  0.00  0.00    -0.285 OA
ATOM     12  C   UNL d   1     -50.850  12.445  22.605  0.00  0.00     0.044 A 
ATOM     13  C   UNL d   1     -51.063  12.903  21.953  0.00  0.00     0.007 A 
ATOM     14  C   UNL d   1     -50.483  13.106  21.374  0.00  0.00     0.044 A 
ATOM     15  C   UNL d   1     -49.686  12.833  21.474  0.00  0.00     0.218 A 
ATOM     16  O   UNL d   1     -49.138  13.030  20.918  0.00  0.00    -0.285 OA
ENDBRANCH   8   9
ENDBRANCH   7   8
ENDBRANCH   2   7
BRANCH   1  17
ATOM     17  C   UNL d   1     -46.848  13.569  23.188  0.00  0.00     0.302 C 
ATOM     18  O   UNL d   1     -47.376  13.970  23.698  0.00  0.00    -0.259 OA
BRANCH  17  19
ATOM     19  O   UNL d   1     -46.339  14.014  22.668  0.00  0.00    -0.271 OA
BRANCH  19  20
ATOM     20  C   UNL d   1     -46.516  14.800  22.488  0.00  0.00     0.126 C 
ATOM     21  C   UNL d   1     -45.945  15.255  22.106  0.00  0.00     0.029 C 
ENDBRANCH  19  20
ENDBRANCH  17  19
ENDBRANCH   1  17
BRANCH   4  22
ATOM     22  C   UNL d   1     -45.810  10.886  23.479  0.00  0.00     0.306 C 
ATOM     23  O   UNL d   1     -46.081  10.163  23.697  0.00  0.00    -0.258 OA
BRANCH  22  24
ATOM     24  O   UNL d   1     -45.010  11.059  23.407  0.00  0.00    -0.271 OA
BRANCH  24  25
ATOM     25  C   UNL d   1     -44.453  10.422  23.471  0.00  0.00     0.126 C 
ATOM     26  C   UNL d   1     -43.675  10.566  23.317  0.00  0.00     0.029 C 
ENDBRANCH  24  25
ENDBRANCH  22  24
ENDBRANCH   4  22
TORSDOF 9
ENDMDL
