MODEL 1
REMARK VINA RESULT:      -5.5      0.000      0.000
REMARK  2 active torsions:
REMARK  status: ('A' for Active; 'I' for Inactive)
REMARK    1  A    between atoms: C_6  and  C_1 
REMARK    2  A    between atoms: C_8  and  N_3 
REMARK       I    between atoms: N_7  and  C_6 
ROOT
ATOM      1  C   UNL d   1     -41.407-122.605 -52.615  0.00  0.00     0.124 A 
ATOM      2  C   UNL d   1     -41.623-123.031 -51.925  0.00  0.00     0.181 A 
ATOM      3  N   UNL d   1     -41.538-122.510 -51.272  0.00  0.00    -0.276 N 
ATOM      4  C   UNL d   1     -41.276-121.780 -51.552  0.00  0.00     0.152 A 
ATOM      5  S   UNL d   1     -41.190-121.824 -52.385  0.00  0.00    -0.051 SA
ATOM      6  S   UNL d   1     -41.124-121.118 -51.096  0.00  0.00    -0.052 SA
ATOM      7  N   UNL d   1     -41.861-123.816 -51.987  0.00  0.00    -0.128 N 
ENDROOT
BRANCH   1   8
ATOM      8  C   UNL d   1     -41.428-122.957 -53.357  0.00  0.00     0.274 C 
ATOM      9  N   UNL d   1     -41.758-122.549 -53.990  0.00  0.00    -0.267 N 
ATOM     10  C   UNL d   1     -42.074-121.778 -53.889  0.00  0.00     0.110 A 
ATOM     11  C   UNL d   1     -41.784-122.900 -54.751  0.00  0.00     0.110 A 
ATOM     12  C   UNL d   1     -42.407-121.373 -54.538  0.00  0.00     0.142 A 
ATOM     13  O   UNL d   1     -42.425-121.732 -55.280  0.00  0.00    -0.300 OA
ATOM     14  C   UNL d   1     -42.114-122.492 -55.384  0.00  0.00     0.142 A 
ATOM     15  O   UNL d   1     -41.123-123.708 -53.467  0.00  0.00    -0.266 OA
ENDBRANCH   1   8
BRANCH   3  16
ATOM     16  C   UNL d   1     -41.697-122.712 -50.477  0.00  0.00     0.067 A 
ATOM     17  C   UNL d   1     -41.131-123.098 -50.030  0.00  0.00     0.018 A 
ATOM     18  C   UNL d   1     -41.300-123.296 -49.232  0.00  0.00     0.002 A 
ATOM     19  C   UNL d   1     -42.023-123.103 -48.908  0.00  0.00     0.000 A 
ATOM     20  C   UNL d   1     -42.593-122.711 -49.367  0.00  0.00     0.002 A 
ATOM     21  C   UNL d   1     -42.185-123.299 -48.123  0.00  0.00     0.000 C 
ATOM     22  C   UNL d   1     -42.435-122.514 -50.150  0.00  0.00     0.018 A 
ENDBRANCH   3  16
TORSDOF 2
ENDMDL
MODEL 2
REMARK VINA RESULT:      -3.7      1.513      4.207
REMARK  2 active torsions:
REMARK  status: ('A' for Active; 'I' for Inactive)
REMARK    1  A    between atoms: C_6  and  C_1 
REMARK    2  A    between atoms: C_8  and  N_3 
REMARK       I    between atoms: N_7  and  C_6 
ROOT
ATOM      1  C   UNL d   1     -41.538-122.675 -51.120  0.00  0.00     0.124 A 
ATOM      2  C   UNL d   1     -41.704-122.940 -51.899  0.00  0.00     0.181 A 
ATOM      3  N   UNL d   1     -41.563-122.296 -52.419  0.00  0.00    -0.276 N 
ATOM      4  C   UNL d   1     -41.317-121.647 -51.972  0.00  0.00     0.152 A 
ATOM      5  S   UNL d   1     -41.296-121.868 -51.163  0.00  0.00    -0.051 SA
ATOM      6  S   UNL d   1     -41.123-120.909 -52.265  0.00  0.00    -0.052 SA
ATOM      7  N   UNL d   1     -41.954-123.714 -52.023  0.00  0.00    -0.128 N 
ENDROOT
BRANCH   1   8
ATOM      8  C   UNL d   1     -41.620-123.174 -50.474  0.00  0.00     0.274 C 
ATOM      9  N   UNL d   1     -42.207-123.024 -49.917  0.00  0.00    -0.267 N 
ATOM     10  C   UNL d   1     -42.723-122.368 -50.001  0.00  0.00     0.110 A 
ATOM     11  C   UNL d   1     -42.299-123.529 -49.254  0.00  0.00     0.110 A 
ATOM     12  C   UNL d   1     -43.315-122.225 -49.431  0.00  0.00     0.142 A 
ATOM     13  O   UNL d   1     -43.392-122.730 -48.784  0.00  0.00    -0.300 OA
ATOM     14  C   UNL d   1     -42.885-123.379 -48.697  0.00  0.00     0.142 A 
ATOM     15  O   UNL d   1     -41.123-123.817 -50.382  0.00  0.00    -0.266 OA
ENDBRANCH   1   8
BRANCH   3  16
ATOM     16  C   UNL d   1     -41.661-122.321 -53.248  0.00  0.00     0.067 A 
ATOM     17  C   UNL d   1     -41.176-122.794 -53.706  0.00  0.00     0.018 A 
ATOM     18  C   UNL d   1     -41.282-122.813 -54.538  0.00  0.00     0.002 A 
ATOM     19  C   UNL d   1     -41.866-122.361 -54.884  0.00  0.00     0.000 A 
ATOM     20  C   UNL d   1     -42.355-121.881 -54.415  0.00  0.00     0.002 A 
ATOM     21  C   UNL d   1     -41.967-122.381 -55.703  0.00  0.00     0.000 C 
ATOM     22  C   UNL d   1     -42.257-121.859 -53.598  0.00  0.00     0.018 A 
ENDBRANCH   3  16
TORSDOF 2
ENDMDL
