MODEL 1
REMARK VINA RESULT:       1.4      0.000      0.000
REMARK  7 active torsions:
REMARK  status: ('A' for Active; 'I' for Inactive)
REMARK    1  A    between atoms: C_25  and  N_5 
REMARK    2  A    between atoms: C_11  and  C_6 
REMARK       I    between atoms: N_19  and  C_11 
REMARK    3  A    between atoms: N_15  and  C_28 
REMARK    4  A    between atoms: C_27  and  N_19 
REMARK    5  A    between atoms: C_26  and  C_25 
REMARK    6  A    between atoms: C_28  and  C_26 
REMARK    7  A    between atoms: C_29  and  C_27 
ROOT
ATOM      1  C   UNL d   1      57.250  -0.442  31.393  0.00  0.00     0.155 A 
ATOM      2  C   UNL d   1      56.994  -1.215  31.522  0.00  0.00     0.091 A 
ATOM      3  N   UNL d   1      57.058   0.149  31.935  0.00  0.00    -0.210 NA
ATOM      4  N   UNL d   1      56.360  -0.805  32.728  0.00  0.00    -0.258 N 
ATOM      5  N   UNL d   1      57.696  -0.258  30.725  0.00  0.00    -0.274 N 
ATOM      6  C   UNL d   1      57.631  -1.633  30.308  0.00  0.00     0.094 A 
ATOM      7  C   UNL d   1      56.546  -1.397  32.194  0.00  0.00     0.269 A 
ATOM      8  C   UNL d   1      57.891  -0.850  30.178  0.00  0.00     0.175 A 
ATOM      9  C   UNL d   1      56.618  -0.034  32.595  0.00  0.00     0.152 A 
ATOM     10  C   UNL d   1      57.183  -1.815  30.980  0.00  0.00     0.016 A 
ATOM     11  C   UNL d   1      55.913  -0.977  33.402  0.00  0.00     0.084 A 
ATOM     12  C   UNL d   1      56.429   0.566  33.135  0.00  0.00     0.038 A 
ATOM     13  N   UNL d   1      58.336  -0.667  29.510  0.00  0.00    -0.128 N 
ATOM     14  C   UNL d   1      55.726  -0.384  33.936  0.00  0.00     0.018 A 
ATOM     15  C   UNL d   1      55.984   0.387  33.803  0.00  0.00     0.005 A 
ATOM     16  O   UNL d   1      56.290  -2.171  32.323  0.00  0.00    -0.266 OA
ATOM     17  C   UNL d   1      55.285  -0.554  34.602  0.00  0.00     0.002 C 
ENDROOT
BRANCH   6  18
ATOM     18  C   UNL d   1      57.819  -2.221  29.774  0.00  0.00     0.282 C 
ATOM     19  N   UNL d   1      58.570  -2.580  29.797  0.00  0.00    -0.206 NA
ATOM     20  O   UNL d   1      57.272  -2.466  29.206  0.00  0.00    -0.265 OA
BRANCH  19  21
ATOM     21  C   UNL d   1      58.760  -3.172  29.260  0.00  0.00     0.102 C 
BRANCH  21  22
ATOM     22  C   UNL d   1      59.523  -3.502  29.257  0.00  0.00     0.019 A 
ATOM     23  C   UNL d   1      59.648  -4.229  28.888  0.00  0.00     0.002 A 
ATOM     24  C   UNL d   1      60.404  -4.568  28.879  0.00  0.00     0.000 A 
ATOM     25  C   UNL d   1      61.035  -4.172  29.244  0.00  0.00     0.000 A 
ATOM     26  C   UNL d   1      60.899  -3.436  29.615  0.00  0.00     0.000 A 
ATOM     27  C   UNL d   1      60.145  -3.106  29.620  0.00  0.00     0.002 A 
ENDBRANCH  21  22
ENDBRANCH  19  21
ENDBRANCH   6  18
BRANCH   5  28
ATOM     28  C   UNL d   1      57.951   0.517  30.599  0.00  0.00     0.085 C 
BRANCH  28  29
ATOM     29  C   UNL d   1      58.741   0.667  30.425  0.00  0.00     0.038 C 
BRANCH  29  30
ATOM     30  C   UNL d   1      59.000   0.678  29.637  0.00  0.00     0.083 C 
BRANCH  30  31
ATOM     31  N   UNL d   1      59.805   0.640  29.465  0.00  0.00    -0.285 N 
ATOM     32  C   UNL d   1      60.407   0.560  30.014  0.00  0.00     0.183 A 
ATOM     33  N   UNL d   1      61.132   0.546  29.584  0.00  0.00    -0.222 NA
ATOM     34  C   UNL d   1      60.959   0.616  28.797  0.00  0.00     0.120 A 
ATOM     35  C   UNL d   1      60.138   0.674  28.717  0.00  0.00     0.102 A 
ENDBRANCH  30  31
ENDBRANCH  29  30
ENDBRANCH  28  29
ENDBRANCH   5  28
TORSDOF 7
ENDMDL
