MODEL 1
REMARK VINA RESULT:      -9.1      0.000      0.000
REMARK  2 active torsions:
REMARK  status: ('A' for Active; 'I' for Inactive)
REMARK    1  A    between atoms: C_6  and  C_1 
REMARK    2  A    between atoms: N_8  and  C_6 
ROOT
ATOM      1  C   UNL d   1      52.675  33.609  54.298  0.00  0.00     0.090 C 
ENDROOT
BRANCH   1   2
ATOM      2  C   UNL d   1      53.451  33.684  54.573  0.00  0.00     0.133 A 
ATOM      3  C   UNL d   1      53.995  33.083  54.414  0.00  0.00     0.289 A 
ATOM      4  N   UNL d   1      54.772  33.150  54.685  0.00  0.00    -0.151 NA
ATOM      5  O   UNL d   1      53.769  32.413  53.985  0.00  0.00    -0.265 OA
ATOM      6  C   UNL d   1      54.998  33.819  55.114  0.00  0.00     0.374 A 
ATOM      7  N   UNL d   1      54.454  34.420  55.273  0.00  0.00    -0.151 NA
ATOM      8  O   UNL d   1      55.776  33.886  55.384  0.00  0.00    -0.242 OA
ATOM      9  C   UNL d   1      53.670  34.346  54.996  0.00  0.00     0.289 A 
ATOM     10  O   UNL d   1      53.128  34.938  55.151  0.00  0.00    -0.265 OA
ENDBRANCH   1   2
BRANCH   1  11
ATOM     11  N   UNL d   1      52.461  33.933  53.572  0.00  0.00    -0.304 N 
ATOM     12  C   UNL d   1      51.706  33.910  53.228  0.00  0.00     0.064 A 
ATOM     13  C   UNL d   1      51.749  34.301  52.506  0.00  0.00     0.018 A 
ATOM     14  C   UNL d   1      50.997  33.585  53.484  0.00  0.00     0.018 A 
ATOM     15  C   UNL d   1      51.073  34.367  52.032  0.00  0.00     0.002 A 
ATOM     16  C   UNL d   1      52.517  34.565  52.395  0.00  0.00     0.021 A 
ATOM     17  C   UNL d   1      50.362  34.040  52.291  0.00  0.00     0.000 A 
ATOM     18  C   UNL d   1      50.326  33.649  53.018  0.00  0.00     0.002 A 
ATOM     19  C   UNL d   1      52.965  34.342  53.050  0.00  0.00     0.080 A 
ENDBRANCH   1  11
TORSDOF 2
ENDMDL
MODEL 2
REMARK VINA RESULT:      -9.0      1.795      2.748
REMARK  2 active torsions:
REMARK  status: ('A' for Active; 'I' for Inactive)
REMARK    1  A    between atoms: C_6  and  C_1 
REMARK    2  A    between atoms: N_8  and  C_6 
ROOT
ATOM      1  C   UNL d   1      52.586  33.264  53.941  0.00  0.00     0.090 C 
ENDROOT
BRANCH   1   2
ATOM      2  C   UNL d   1      52.764  34.055  54.102  0.00  0.00     0.133 A 
ATOM      3  C   UNL d   1      52.625  34.626  53.523  0.00  0.00     0.289 A 
ATOM      4  N   UNL d   1      52.800  35.418  53.675  0.00  0.00    -0.151 NA
ATOM      5  O   UNL d   1      52.310  34.413  52.788  0.00  0.00    -0.265 OA
ATOM      6  C   UNL d   1      53.115  35.632  54.409  0.00  0.00     0.374 A 
ATOM      7  N   UNL d   1      53.255  35.061  54.989  0.00  0.00    -0.151 NA
ATOM      8  O   UNL d   1      53.290  36.425  54.562  0.00  0.00    -0.242 OA
ATOM      9  C   UNL d   1      53.075  34.261  54.828  0.00  0.00     0.289 A 
ATOM     10  O   UNL d   1      53.211  33.692  55.399  0.00  0.00    -0.265 OA
ENDBRANCH   1   2
BRANCH   1  11
ATOM     11  N   UNL d   1      53.180  32.748  53.698  0.00  0.00    -0.304 N 
ATOM     12  C   UNL d   1      53.077  31.960  53.458  0.00  0.00     0.064 A 
ATOM     13  C   UNL d   1      53.818  31.660  53.265  0.00  0.00     0.018 A 
ATOM     14  C   UNL d   1      52.408  31.490  53.394  0.00  0.00     0.018 A 
ATOM     15  C   UNL d   1      53.890  30.877  53.003  0.00  0.00     0.002 A 
ATOM     16  C   UNL d   1      54.379  32.247  53.380  0.00  0.00     0.021 A 
ATOM     17  C   UNL d   1      53.216  30.407  52.940  0.00  0.00     0.000 A 
ATOM     18  C   UNL d   1      52.475  30.715  53.136  0.00  0.00     0.002 A 
ATOM     19  C   UNL d   1      53.993  32.924  53.649  0.00  0.00     0.080 A 
ENDBRANCH   1  11
TORSDOF 2
ENDMDL
MODEL 3
REMARK VINA RESULT:      -8.9      2.027      3.323
REMARK  2 active torsions:
REMARK  status: ('A' for Active; 'I' for Inactive)
REMARK    1  A    between atoms: C_6  and  C_1 
REMARK    2  A    between atoms: N_8  and  C_6 
ROOT
ATOM      1  C   UNL d   1      53.229  32.466  53.103  0.00  0.00     0.090 C 
ENDROOT
BRANCH   1   2
ATOM      2  C   UNL d   1      53.113  31.651  53.186  0.00  0.00     0.133 A 
ATOM      3  C   UNL d   1      52.344  31.351  53.190  0.00  0.00     0.289 A 
ATOM      4  N   UNL d   1      52.220  30.539  53.273  0.00  0.00    -0.151 NA
ATOM      5  O   UNL d   1      51.694  31.856  53.113  0.00  0.00    -0.265 OA
ATOM      6  C   UNL d   1      52.870  30.033  53.350  0.00  0.00     0.374 A 
ATOM      7  N   UNL d   1      53.639  30.333  53.346  0.00  0.00    -0.151 NA
ATOM      8  O   UNL d   1      52.746  29.221  53.433  0.00  0.00    -0.242 OA
ATOM      9  C   UNL d   1      53.757  31.156  53.262  0.00  0.00     0.289 A 
ATOM     10  O   UNL d   1      54.517  31.458  53.257  0.00  0.00    -0.265 OA
ENDBRANCH   1   2
BRANCH   1  11
ATOM     11  N   UNL d   1      53.335  32.937  53.770  0.00  0.00    -0.304 N 
ATOM     12  C   UNL d   1      53.184  33.751  53.823  0.00  0.00     0.064 A 
ATOM     13  C   UNL d   1      53.369  33.990  54.588  0.00  0.00     0.018 A 
ATOM     14  C   UNL d   1      52.904  34.294  53.274  0.00  0.00     0.018 A 
ATOM     15  C   UNL d   1      53.272  34.783  54.808  0.00  0.00     0.002 A 
ATOM     16  C   UNL d   1      53.632  33.338  55.011  0.00  0.00     0.021 A 
ATOM     17  C   UNL d   1      52.992  35.325  54.255  0.00  0.00     0.000 A 
ATOM     18  C   UNL d   1      52.808  35.079  53.488  0.00  0.00     0.002 A 
ATOM     19  C   UNL d   1      53.614  32.682  54.511  0.00  0.00     0.080 A 
ENDBRANCH   1  11
TORSDOF 2
ENDMDL
MODEL 4
REMARK VINA RESULT:      -8.6      1.765      3.820
REMARK  2 active torsions:
REMARK  status: ('A' for Active; 'I' for Inactive)
REMARK    1  A    between atoms: C_6  and  C_1 
REMARK    2  A    between atoms: N_8  and  C_6 
ROOT
ATOM      1  C   UNL d   1      52.366  33.426  53.126  0.00  0.00     0.090 C 
ENDROOT
BRANCH   1   2
ATOM      2  C   UNL d   1      51.639  33.717  52.863  0.00  0.00     0.133 A 
ATOM      3  C   UNL d   1      50.944  33.458  53.227  0.00  0.00     0.289 A 
ATOM      4  N   UNL d   1      50.214  33.744  52.970  0.00  0.00    -0.151 NA
ATOM      5  O   UNL d   1      50.972  32.913  53.848  0.00  0.00    -0.265 OA
ATOM      6  C   UNL d   1      50.185  34.289  52.348  0.00  0.00     0.374 A 
ATOM      7  N   UNL d   1      50.879  34.548  51.984  0.00  0.00    -0.151 NA
ATOM      8  O   UNL d   1      49.454  34.575  52.091  0.00  0.00    -0.242 OA
ATOM      9  C   UNL d   1      51.615  34.254  52.249  0.00  0.00     0.289 A 
ATOM     10  O   UNL d   1      52.305  34.508  51.892  0.00  0.00    -0.265 OA
ENDBRANCH   1   2
BRANCH   1  11
ATOM     11  N   UNL d   1      52.781  33.825  53.715  0.00  0.00    -0.304 N 
ATOM     12  C   UNL d   1      53.467  33.557  54.098  0.00  0.00     0.064 A 
ATOM     13  C   UNL d   1      53.689  34.132  54.643  0.00  0.00     0.018 A 
ATOM     14  C   UNL d   1      53.908  32.869  54.015  0.00  0.00     0.018 A 
ATOM     15  C   UNL d   1      54.362  34.016  55.112  0.00  0.00     0.002 A 
ATOM     16  C   UNL d   1      53.153  34.751  54.605  0.00  0.00     0.021 A 
ATOM     17  C   UNL d   1      54.803  33.326  55.027  0.00  0.00     0.000 A 
ATOM     18  C   UNL d   1      54.574  32.752  54.478  0.00  0.00     0.002 A 
ATOM     19  C   UNL d   1      52.587  34.569  54.033  0.00  0.00     0.080 A 
ENDBRANCH   1  11
TORSDOF 2
ENDMDL
