MODEL 1
REMARK VINA RESULT:      -7.0      0.000      0.000
REMARK  6 active torsions:
REMARK  status: ('A' for Active; 'I' for Inactive)
REMARK    1  A    between atoms: C_11  and  N_3 
REMARK    2  A    between atoms: C_10  and  C_4 
REMARK    3  A    between atoms: C_18  and  C_11 
REMARK    4  A    between atoms: O_21  and  C_13 
REMARK    5  A    between atoms: O_22  and  C_15 
REMARK    6  A    between atoms: C_23  and  C_18 
ROOT
ATOM      1  N   UNL d   1      51.799  33.192  53.187  0.00  0.00    -0.122 N 
ATOM      2  C   UNL d   1      52.095  32.419  53.204  0.00  0.00     0.741 A 
ATOM      3  N   UNL d   1      52.911  32.288  53.336  0.00  0.00    -0.103 N 
ATOM      4  C   UNL d   1      50.982  33.155  53.048  0.00  0.00     0.185 A 
ATOM      5  C   UNL d   1      53.420  32.930  53.449  0.00  0.00     0.280 A 
ATOM      6  N   UNL d   1      51.468  31.901  53.076  0.00  0.00     0.045 NA
ATOM      7  C   UNL d   1      52.308  33.837  53.301  0.00  0.00     0.087 A 
ATOM      8  N   UNL d   1      50.774  32.355  52.979  0.00  0.00    -0.114 NA
ATOM      9  C   UNL d   1      53.111  33.699  53.430  0.00  0.00     0.074 A 
ATOM     10  O   UNL d   1      54.224  32.800  53.579  0.00  0.00    -0.266 OA
ATOM     11  C   UNL d   1      53.620  34.346  53.544  0.00  0.00     0.006 A 
ATOM     12  C   UNL d   1      52.011  34.606  53.284  0.00  0.00     0.018 A 
ATOM     13  C   UNL d   1      53.324  35.113  53.527  0.00  0.00     0.000 A 
ATOM     14  C   UNL d   1      52.519  35.243  53.397  0.00  0.00     0.002 A 
ENDROOT
BRANCH   4  15
ATOM     15  C   UNL d   1      50.467  33.798  52.989  0.00  0.00     0.039 A 
ATOM     16  C   UNL d   1      50.203  34.043  52.259  0.00  0.00     0.029 A 
ATOM     17  C   UNL d   1      49.690  34.683  52.198  0.00  0.00     0.116 A 
ATOM     18  C   UNL d   1      49.440  35.080  52.885  0.00  0.00     0.116 A 
ATOM     19  C   UNL d   1      49.710  34.829  53.624  0.00  0.00     0.026 A 
ATOM     20  C   UNL d   1      50.226  34.185  53.682  0.00  0.00     0.005 A 
BRANCH  17  21
ATOM     21  O   UNL d   1      49.428  34.926  51.465  0.00  0.00    -0.326 OA
ATOM     22  C   UNL d   1      49.231  34.368  50.885  0.00  0.00     0.181 C 
ENDBRANCH  17  21
BRANCH  18  23
ATOM     23  O   UNL d   1      48.927  35.720  52.822  0.00  0.00    -0.326 OA
ATOM     24  C   UNL d   1      48.499  35.968  53.486  0.00  0.00     0.181 C 
ENDBRANCH  18  23
ENDBRANCH   4  15
BRANCH   3  25
ATOM     25  C   UNL d   1      53.208  31.519  53.353  0.00  0.00     0.101 C 
BRANCH  25  26
ATOM     26  C   UNL d   1      53.417  31.177  54.074  0.00  0.00     0.020 C 
BRANCH  26  27
ATOM     27  C   UNL d   1      53.425  30.352  54.161  0.00  0.00     0.002 A 
ATOM     28  C   UNL d   1      53.244  30.013  54.891  0.00  0.00     0.000 A 
ATOM     29  C   UNL d   1      53.252  29.206  54.973  0.00  0.00     0.000 A 
ATOM     30  C   UNL d   1      53.438  28.737  54.338  0.00  0.00     0.000 A 
ATOM     31  C   UNL d   1      53.619  29.066  53.608  0.00  0.00     0.000 A 
ATOM     32  C   UNL d   1      53.610  29.884  53.527  0.00  0.00     0.000 A 
ENDBRANCH  26  27
ENDBRANCH  25  26
ENDBRANCH   3  25
TORSDOF 6
ENDMDL
MODEL 2
REMARK VINA RESULT:      -5.6      1.330      5.139
REMARK  6 active torsions:
REMARK  status: ('A' for Active; 'I' for Inactive)
REMARK    1  A    between atoms: C_11  and  N_3 
REMARK    2  A    between atoms: C_10  and  C_4 
REMARK    3  A    between atoms: C_18  and  C_11 
REMARK    4  A    between atoms: O_21  and  C_13 
REMARK    5  A    between atoms: O_22  and  C_15 
REMARK    6  A    between atoms: C_23  and  C_18 
ROOT
ATOM      1  N   UNL d   1      52.529  32.643  53.324  0.00  0.00    -0.122 N 
ATOM      2  C   UNL d   1      51.921  33.087  52.981  0.00  0.00     0.741 A 
ATOM      3  N   UNL d   1      51.821  33.891  53.190  0.00  0.00    -0.103 N 
ATOM      4  C   UNL d   1      52.496  31.874  53.016  0.00  0.00     0.185 A 
ATOM      5  C   UNL d   1      52.331  34.241  53.740  0.00  0.00     0.280 A 
ATOM      6  N   UNL d   1      51.508  32.599  52.461  0.00  0.00     0.045 NA
ATOM      7  C   UNL d   1      53.041  32.993  53.875  0.00  0.00     0.087 A 
ATOM      8  N   UNL d   1      51.863  31.843  52.481  0.00  0.00    -0.114 NA
ATOM      9  C   UNL d   1      52.937  33.787  54.076  0.00  0.00     0.074 A 
ATOM     10  O   UNL d   1      52.232  35.034  53.946  0.00  0.00    -0.266 OA
ATOM     11  C   UNL d   1      53.450  34.135  54.628  0.00  0.00     0.006 A 
ATOM     12  C   UNL d   1      53.647  32.550  54.215  0.00  0.00     0.018 A 
ATOM     13  C   UNL d   1      54.054  33.693  54.968  0.00  0.00     0.000 A 
ATOM     14  C   UNL d   1      54.153  32.900  54.762  0.00  0.00     0.002 A 
ENDROOT
BRANCH   4  15
ATOM     15  C   UNL d   1      53.001  31.249  53.208  0.00  0.00     0.039 A 
ATOM     16  C   UNL d   1      52.772  30.694  53.758  0.00  0.00     0.029 A 
ATOM     17  C   UNL d   1      53.273  30.071  53.950  0.00  0.00     0.116 A 
ATOM     18  C   UNL d   1      54.016  30.009  53.581  0.00  0.00     0.116 A 
ATOM     19  C   UNL d   1      54.245  30.574  53.024  0.00  0.00     0.026 A 
ATOM     20  C   UNL d   1      53.739  31.199  52.832  0.00  0.00     0.005 A 
BRANCH  17  21
ATOM     21  O   UNL d   1      53.041  29.516  54.501  0.00  0.00    -0.326 OA
ATOM     22  C   UNL d   1      52.277  29.198  54.477  0.00  0.00     0.181 C 
ENDBRANCH  17  21
BRANCH  18  23
ATOM     23  O   UNL d   1      54.517  29.385  53.774  0.00  0.00    -0.326 OA
ATOM     24  C   UNL d   1      55.181  29.233  53.304  0.00  0.00     0.181 C 
ENDBRANCH  18  23
ENDBRANCH   4  15
BRANCH   3  25
ATOM     25  C   UNL d   1      51.215  34.335  52.849  0.00  0.00     0.101 C 
BRANCH  25  26
ATOM     26  C   UNL d   1      50.447  34.270  53.142  0.00  0.00     0.020 C 
BRANCH  26  27
ATOM     27  C   UNL d   1      49.818  34.659  52.764  0.00  0.00     0.002 A 
ATOM     28  C   UNL d   1      49.672  34.523  51.963  0.00  0.00     0.000 A 
ATOM     29  C   UNL d   1      49.057  34.905  51.597  0.00  0.00     0.000 A 
ATOM     30  C   UNL d   1      48.591  35.417  52.018  0.00  0.00     0.000 A 
ATOM     31  C   UNL d   1      48.730  35.558  52.815  0.00  0.00     0.000 A 
ATOM     32  C   UNL d   1      49.353  35.171  53.185  0.00  0.00     0.000 A 
ENDBRANCH  26  27
ENDBRANCH  25  26
ENDBRANCH   3  25
TORSDOF 6
ENDMDL
