MODEL 1
REMARK VINA RESULT:      -5.5      0.000      0.000
REMARK  4 active torsions:
REMARK  status: ('A' for Active; 'I' for Inactive)
REMARK    1  A    between atoms: N_8  and  C_2 
REMARK    2  A    between atoms: C_9  and  C_3 
REMARK       I    between atoms: C_6  and  N_7 
REMARK    3  A    between atoms: C_10  and  C_6 
REMARK    4  A    between atoms: N_7  and  N_8 
ROOT
ATOM      1  C   UNL d   1      58.048   0.268  29.131  0.00  0.00     0.297 C 
ATOM      2  N   UNL d   1      57.612   0.350  29.850  0.00  0.00    -0.104 NA
ATOM      3  O   UNL d   1      57.791   0.646  28.456  0.00  0.00    -0.264 OA
ENDROOT
BRANCH   2   4
ATOM      4  N   UNL d   1      57.870  -0.026  30.518  0.00  0.00    -0.119 NA
BRANCH   4   5
ATOM      5  C   UNL d   1      57.431   0.008  31.182  0.00  0.00     0.214 A 
ATOM      6  N   UNL d   1      56.853  -0.505  31.492  0.00  0.00    -0.224 NA
ATOM      7  C   UNL d   1      56.585  -0.166  32.222  0.00  0.00     0.067 A 
ATOM      8  C   UNL d   1      57.001   0.525  32.325  0.00  0.00     0.053 A 
ATOM      9  S   UNL d   1      57.512   0.634  31.701  0.00  0.00    -0.045 SA
BRANCH   7  10
ATOM     10  C   UNL d   1      56.007  -0.472  32.742  0.00  0.00     0.036 C 
ATOM     11  C   UNL d   1      55.427  -0.762  33.262  0.00  0.00     0.006 C 
ATOM     12  C   UNL d   1      55.797   0.304  32.943  0.00  0.00     0.006 C 
ATOM     13  C   UNL d   1      56.234  -1.246  32.524  0.00  0.00     0.006 C 
ENDBRANCH   7  10
ENDBRANCH   4   5
ENDBRANCH   2   4
BRANCH   1  14
ATOM     14  C   UNL d   1      58.749  -0.207  29.115  0.00  0.00     0.059 A 
ATOM     15  C   UNL d   1      59.486   0.150  29.266  0.00  0.00     0.005 A 
ATOM     16  C   UNL d   1      60.139  -0.309  29.247  0.00  0.00     0.007 A 
ATOM     17  C   UNL d   1      60.109  -1.118  29.085  0.00  0.00     0.035 A 
ATOM     18  C   UNL d   1      59.383  -1.471  28.937  0.00  0.00     0.007 A 
ATOM     19 BR   UNL d   1      60.793  -1.564  29.073  0.00  0.00    -0.049 Br
ATOM     20  C   UNL d   1      58.708  -1.010  28.953  0.00  0.00     0.005 A 
ENDBRANCH   1  14
TORSDOF 4
ENDMDL
MODEL 2
REMARK VINA RESULT:      -3.8      2.394      4.763
REMARK  4 active torsions:
REMARK  status: ('A' for Active; 'I' for Inactive)
REMARK    1  A    between atoms: N_8  and  C_2 
REMARK    2  A    between atoms: C_9  and  C_3 
REMARK       I    between atoms: C_6  and  N_7 
REMARK    3  A    between atoms: C_10  and  C_6 
REMARK    4  A    between atoms: N_7  and  N_8 
ROOT
ATOM      1  C   UNL d   1      56.150  -1.309  32.512  0.00  0.00     0.297 C 
ATOM      2  N   UNL d   1      56.642  -1.013  31.894  0.00  0.00    -0.104 NA
ATOM      3  O   UNL d   1      55.902  -2.085  32.497  0.00  0.00    -0.264 OA
ENDROOT
BRANCH   2   4
ATOM      4  N   UNL d   1      56.886  -0.242  31.913  0.00  0.00    -0.119 NA
BRANCH   4   5
ATOM      5  C   UNL d   1      57.408   0.019  31.369  0.00  0.00     0.214 A 
ATOM      6  N   UNL d   1      57.462  -0.106  30.547  0.00  0.00    -0.224 NA
ATOM      7  C   UNL d   1      58.142   0.321  30.275  0.00  0.00     0.067 A 
ATOM      8  C   UNL d   1      58.468   0.682  30.927  0.00  0.00     0.053 A 
ATOM      9  S   UNL d   1      58.029   0.503  31.588  0.00  0.00    -0.045 SA
BRANCH   7  10
ATOM     10  C   UNL d   1      58.431   0.370  29.492  0.00  0.00     0.036 C 
ATOM     11  C   UNL d   1      58.732   0.413  28.718  0.00  0.00     0.006 C 
ATOM     12  C   UNL d   1      59.157   0.071  29.757  0.00  0.00     0.006 C 
ATOM     13  C   UNL d   1      57.691   0.671  29.248  0.00  0.00     0.006 C 
ENDBRANCH   7  10
ENDBRANCH   4   5
ENDBRANCH   2   4
BRANCH   1  14
ATOM     14  C   UNL d   1      55.916  -0.798  33.146  0.00  0.00     0.059 A 
ATOM     15  C   UNL d   1      55.126  -0.538  33.190  0.00  0.00     0.005 A 
ATOM     16  C   UNL d   1      54.920  -0.057  33.792  0.00  0.00     0.007 A 
ATOM     17  C   UNL d   1      55.457   0.189  34.368  0.00  0.00     0.035 A 
ATOM     18  C   UNL d   1      56.236  -0.066  34.327  0.00  0.00     0.007 A 
ATOM     19 BR   UNL d   1      55.218   0.682  34.975  0.00  0.00    -0.049 Br
ATOM     20  C   UNL d   1      56.458  -0.559  33.714  0.00  0.00     0.005 A 
ENDBRANCH   1  14
TORSDOF 4
ENDMDL
