MODEL 1
REMARK VINA RESULT:      72.3      0.000      0.000
REMARK  7 active torsions:
REMARK  status: ('A' for Active; 'I' for Inactive)
REMARK    1  A    between atoms: N_3  and  S_1 
REMARK    2  A    between atoms: C_8  and  S_1 
REMARK    3  A    between atoms: S_2  and  C_7 
REMARK    4  A    between atoms: N_9  and  S_2 
REMARK    5  A    between atoms: C_4  and  N_3 
REMARK       I    between atoms: C_5  and  N_10 
REMARK    6  A    between atoms: C_16  and  C_5 
REMARK    7  A    between atoms: N_10  and  C_24 
ROOT
ATOM      1  C   UNL d   1     -47.863  29.575  35.578  0.00  0.00     0.106 A 
ATOM      2  C   UNL d   1     -48.295  29.221  36.172  0.00  0.00     0.015 A 
ATOM      3  C   UNL d   1     -47.860  29.265  34.813  0.00  0.00     0.015 A 
ATOM      4  C   UNL d   1     -48.736  28.228  35.247  0.00  0.00     0.085 A 
ATOM      5  C   UNL d   1     -48.299  28.588  34.649  0.00  0.00     0.020 A 
ATOM      6  C   UNL d   1     -48.734  28.545  36.008  0.00  0.00     0.020 A 
ENDROOT
BRANCH   4   7
ATOM      7  N   UNL d   1     -49.180  27.542  35.077  0.00  0.00    -0.208 NA
ATOM      8  C   UNL d   1     -49.508  27.433  34.328  0.00  0.00     0.279 C 
ATOM      9  O   UNL d   1     -49.392  28.011  33.749  0.00  0.00    -0.265 OA
BRANCH   8  10
ATOM     10  C   UNL d   1     -49.945  26.756  34.164  0.00  0.00     0.058 A 
ATOM     11  C   UNL d   1     -50.537  26.506  34.681  0.00  0.00     0.005 A 
ATOM     12  C   UNL d   1     -50.975  25.831  34.521  0.00  0.00     0.013 A 
ATOM     13  C   UNL d   1     -50.827  25.388  33.832  0.00  0.00     0.104 A 
ATOM     14  C   UNL d   1     -50.224  25.645  33.308  0.00  0.00     0.013 A 
ATOM     15  C   UNL d   1     -49.789  26.316  33.468  0.00  0.00     0.005 A 
BRANCH  13  16
ATOM     16  S   UNL d   1     -51.270  24.705  33.670  0.00  0.00     0.271 S 
ATOM     17  O   UNL d   1     -51.943  25.059  34.003  0.00  0.00    -0.200 OA
ATOM     18  O   UNL d   1     -50.595  24.355  33.339  0.00  0.00    -0.200 OA
BRANCH  16  19
ATOM     19  N   UNL d   1     -51.711  24.026  33.509  0.00  0.00    -0.226 N 
ATOM     20  C   UNL d   1     -52.526  24.087  33.343  0.00  0.00     0.111 C 
ATOM     21  C   UNL d   1     -51.352  23.288  33.512  0.00  0.00     0.111 C 
ENDBRANCH  16  19
ENDBRANCH  13  16
ENDBRANCH   8  10
ENDBRANCH   4   7
BRANCH   1  22
ATOM     22  S   UNL d   1     -47.424  30.252  35.741  0.00  0.00     0.300 S 
ATOM     23  O   UNL d   1     -46.811  29.981  35.257  0.00  0.00    -0.198 OA
ATOM     24  O   UNL d   1     -48.025  30.536  36.226  0.00  0.00    -0.198 OA
BRANCH  22  25
ATOM     25  N   UNL d   1     -46.978  30.935  35.904  0.00  0.00     0.034 NA
BRANCH  25  26
ATOM     26  C   UNL d   1     -47.039  31.594  35.415  0.00  0.00     0.760 A 
ATOM     27  N   UNL d   1     -47.754  31.752  35.010  0.00  0.00    -0.059 NA
ATOM     28  C   UNL d   1     -47.814  32.411  34.520  0.00  0.00     0.102 A 
ATOM     29  C   UNL d   1     -48.519  32.567  34.120  0.00  0.00     0.021 C 
ATOM     30  C   UNL d   1     -47.169  32.915  34.431  0.00  0.00     0.041 A 
ATOM     31  C   UNL d   1     -46.454  32.757  34.836  0.00  0.00     0.120 A 
ATOM     32  N   UNL d   1     -46.401  32.099  35.321  0.00  0.00    -0.057 NA
ENDBRANCH  25  26
ENDBRANCH  22  25
ENDBRANCH   1  22
TORSDOF 7
ENDMDL
MODEL 2
REMARK VINA RESULT:      73.7      0.912      7.038
REMARK  7 active torsions:
REMARK  status: ('A' for Active; 'I' for Inactive)
REMARK    1  A    between atoms: N_3  and  S_1 
REMARK    2  A    between atoms: C_8  and  S_1 
REMARK    3  A    between atoms: S_2  and  C_7 
REMARK    4  A    between atoms: N_9  and  S_2 
REMARK    5  A    between atoms: C_4  and  N_3 
REMARK       I    between atoms: C_5  and  N_10 
REMARK    6  A    between atoms: C_16  and  C_5 
REMARK    7  A    between atoms: N_10  and  C_24 
ROOT
ATOM      1  C   UNL d   1     -50.514  25.340  33.572  0.00  0.00     0.106 A 
ATOM      2  C   UNL d   1     -50.925  26.017  33.767  0.00  0.00     0.015 A 
ATOM      3  C   UNL d   1     -49.692  25.347  33.504  0.00  0.00     0.015 A 
ATOM      4  C   UNL d   1     -49.692  26.734  33.832  0.00  0.00     0.085 A 
ATOM      5  C   UNL d   1     -49.280  26.049  33.635  0.00  0.00     0.020 A 
ATOM      6  C   UNL d   1     -50.514  26.718  33.898  0.00  0.00     0.020 A 
ENDROOT
BRANCH   4   7
ATOM      7  N   UNL d   1     -49.273  27.443  33.964  0.00  0.00    -0.208 NA
ATOM      8  C   UNL d   1     -49.250  27.779  34.718  0.00  0.00     0.279 C 
ATOM      9  O   UNL d   1     -49.646  27.405  35.339  0.00  0.00    -0.265 OA
BRANCH   8  10
ATOM     10  C   UNL d   1     -48.835  28.478  34.845  0.00  0.00     0.058 A 
ATOM     11  C   UNL d   1     -49.204  29.208  34.733  0.00  0.00     0.005 A 
ATOM     12  C   UNL d   1     -48.794  29.906  34.860  0.00  0.00     0.013 A 
ATOM     13  C   UNL d   1     -47.998  29.889  35.102  0.00  0.00     0.104 A 
ATOM     14  C   UNL d   1     -47.626  29.146  35.214  0.00  0.00     0.013 A 
ATOM     15  C   UNL d   1     -48.034  28.450  35.089  0.00  0.00     0.005 A 
BRANCH  13  16
ATOM     16  S   UNL d   1     -47.583  30.597  35.229  0.00  0.00     0.271 S 
ATOM     17  O   UNL d   1     -48.183  31.021  34.843  0.00  0.00    -0.200 OA
ATOM     18  O   UNL d   1     -46.986  30.169  35.615  0.00  0.00    -0.200 OA
BRANCH  16  19
ATOM     19  N   UNL d   1     -47.171  31.301  35.356  0.00  0.00    -0.226 N 
ATOM     20  C   UNL d   1     -46.744  31.413  36.063  0.00  0.00     0.111 C 
ATOM     21  C   UNL d   1     -47.178  31.894  34.788  0.00  0.00     0.111 C 
ENDBRANCH  16  19
ENDBRANCH  13  16
ENDBRANCH   8  10
ENDBRANCH   4   7
BRANCH   1  22
ATOM     22  S   UNL d   1     -50.925  24.639  33.441  0.00  0.00     0.300 S 
ATOM     23  O   UNL d   1     -51.622  25.062  33.307  0.00  0.00    -0.198 OA
ATOM     24  O   UNL d   1     -50.239  24.202  33.572  0.00  0.00    -0.198 OA
BRANCH  22  25
ATOM     25  N   UNL d   1     -51.342  23.932  33.308  0.00  0.00     0.034 NA
BRANCH  25  26
ATOM     26  C   UNL d   1     -52.107  23.844  33.599  0.00  0.00     0.760 A 
ATOM     27  N   UNL d   1     -52.726  24.324  33.305  0.00  0.00    -0.059 NA
ATOM     28  C   UNL d   1     -53.491  24.235  33.597  0.00  0.00     0.102 A 
ATOM     29  C   UNL d   1     -54.102  24.709  33.308  0.00  0.00     0.021 C 
ATOM     30  C   UNL d   1     -53.645  23.672  34.178  0.00  0.00     0.041 A 
ATOM     31  C   UNL d   1     -53.026  23.192  34.471  0.00  0.00     0.120 A 
ATOM     32  N   UNL d   1     -52.268  23.286  34.177  0.00  0.00    -0.057 NA
ENDBRANCH  25  26
ENDBRANCH  22  25
ENDBRANCH   1  22
TORSDOF 7
ENDMDL
