MODEL 1
REMARK VINA RESULT:      74.4      0.000      0.000
REMARK  3 active torsions:
REMARK  status: ('A' for Active; 'I' for Inactive)
REMARK    1  A    between atoms: C_8  and  C_1 
REMARK    2  A    between atoms: O_12  and  C_8 
REMARK    3  A    between atoms: C_21  and  O_12 
ROOT
ATOM      1  C   UNL d   1     -51.823  25.609  33.581  0.00  0.00     0.084 A 
ATOM      2  C   UNL d   1     -51.057  25.344  33.523  0.00  0.00     0.065 A 
ATOM      3  C   UNL d   1     -51.075  24.480  33.449  0.00  0.00     0.107 A 
ATOM      4  N   UNL d   1     -51.842  24.226  33.463  0.00  0.00    -0.302 N 
ATOM      5  C   UNL d   1     -52.305  24.928  33.545  0.00  0.00     0.070 A 
ATOM      6  C   UNL d   1     -50.348  25.759  33.525  0.00  0.00     0.197 A 
ATOM      7  C   UNL d   1     -50.383  24.037  33.379  0.00  0.00     0.212 A 
ATOM      8  C   UNL d   1     -49.665  25.321  33.456  0.00  0.00     0.042 A 
ATOM      9  C   UNL d   1     -49.683  24.457  33.382  0.00  0.00     0.043 A 
ATOM     10  C   UNL d   1     -52.186  23.442  33.411  0.00  0.00     0.080 A 
ATOM     11  C   UNL d   1     -53.113  24.841  33.575  0.00  0.00     0.018 A 
ATOM     12  O   UNL d   1     -50.330  26.607  33.598  0.00  0.00    -0.286 OA
ATOM     13  O   UNL d   1     -50.395  23.189  33.306  0.00  0.00    -0.285 OA
ATOM     14  C   UNL d   1     -52.988  23.360  33.441  0.00  0.00     0.019 A 
ATOM     15  C   UNL d   1     -53.456  24.068  33.524  0.00  0.00     0.003 A 
ATOM     16  C   UNL d   1     -48.955  25.741  33.459  0.00  0.00     0.003 A 
ATOM     17  C   UNL d   1     -48.990  24.024  33.313  0.00  0.00     0.003 A 
ATOM     18  C   UNL d   1     -48.268  25.298  33.389  0.00  0.00     0.000 A 
ATOM     19  C   UNL d   1     -48.285  24.444  33.316  0.00  0.00     0.000 A 
ENDROOT
BRANCH   1  20
ATOM     20  C   UNL d   1     -52.060  26.426  33.662  0.00  0.00     0.302 C 
ATOM     21  O   UNL d   1     -51.604  26.931  34.101  0.00  0.00    -0.259 OA
BRANCH  20  22
ATOM     22  O   UNL d   1     -52.747  26.728  33.306  0.00  0.00    -0.273 OA
BRANCH  22  23
ATOM     23  C   UNL d   1     -53.259  27.297  33.703  0.00  0.00     0.103 C 
ATOM     24  C   UNL d   1     -54.038  27.457  33.387  0.00  0.00     0.027 C 
ATOM     25  C   UNL d   1     -52.991  27.698  34.405  0.00  0.00     0.027 C 
ENDBRANCH  22  23
ENDBRANCH  20  22
ENDBRANCH   1  20
TORSDOF 3
ENDMDL
MODEL 2
REMARK VINA RESULT:      74.6      1.220      3.395
REMARK  3 active torsions:
REMARK  status: ('A' for Active; 'I' for Inactive)
REMARK    1  A    between atoms: C_8  and  C_1 
REMARK    2  A    between atoms: O_12  and  C_8 
REMARK    3  A    between atoms: C_21  and  O_12 
ROOT
ATOM      1  C   UNL d   1     -49.712  25.715  33.732  0.00  0.00     0.084 A 
ATOM      2  C   UNL d   1     -50.519  25.785  33.655  0.00  0.00     0.065 A 
ATOM      3  C   UNL d   1     -50.852  24.990  33.562  0.00  0.00     0.107 A 
ATOM      4  N   UNL d   1     -50.256  24.446  33.582  0.00  0.00    -0.302 N 
ATOM      5  C   UNL d   1     -49.549  24.897  33.687  0.00  0.00     0.070 A 
ATOM      6  C   UNL d   1     -50.998  26.453  33.657  0.00  0.00     0.197 A 
ATOM      7  C   UNL d   1     -51.663  24.869  33.471  0.00  0.00     0.212 A 
ATOM      8  C   UNL d   1     -51.798  26.332  33.567  0.00  0.00     0.042 A 
ATOM      9  C   UNL d   1     -52.131  25.537  33.474  0.00  0.00     0.043 A 
ATOM     10  C   UNL d   1     -50.258  23.591  33.518  0.00  0.00     0.080 A 
ATOM     11  C   UNL d   1     -48.847  24.489  33.728  0.00  0.00     0.018 A 
ATOM     12  O   UNL d   1     -50.671  27.234  33.748  0.00  0.00    -0.286 OA
ATOM     13  O   UNL d   1     -51.994  24.090  33.380  0.00  0.00    -0.285 OA
ATOM     14  C   UNL d   1     -49.560  23.189  33.559  0.00  0.00     0.019 A 
ATOM     15  C   UNL d   1     -48.847  23.643  33.665  0.00  0.00     0.003 A 
ATOM     16  C   UNL d   1     -52.276  27.004  33.569  0.00  0.00     0.003 A 
ATOM     17  C   UNL d   1     -52.938  25.425  33.384  0.00  0.00     0.003 A 
ATOM     18  C   UNL d   1     -53.082  26.881  33.478  0.00  0.00     0.000 A 
ATOM     19  C   UNL d   1     -53.411  26.095  33.386  0.00  0.00     0.000 A 
ENDROOT
BRANCH   1  20
ATOM     20  C   UNL d   1     -49.166  26.364  33.835  0.00  0.00     0.302 C 
ATOM     21  O   UNL d   1     -48.512  26.413  33.360  0.00  0.00    -0.259 OA
BRANCH  20  22
ATOM     22  O   UNL d   1     -49.279  26.953  34.410  0.00  0.00    -0.273 OA
BRANCH  22  23
ATOM     23  C   UNL d   1     -48.650  27.495  34.641  0.00  0.00     0.103 C 
ATOM     24  C   UNL d   1     -48.538  27.685  35.468  0.00  0.00     0.027 C 
ATOM     25  C   UNL d   1     -48.141  27.841  34.050  0.00  0.00     0.027 C 
ENDBRANCH  22  23
ENDBRANCH  20  22
ENDBRANCH   1  20
TORSDOF 3
ENDMDL
