MODEL 1
REMARK VINA RESULT:      -6.4      0.000      0.000
REMARK  3 active torsions:
REMARK  status: ('A' for Active; 'I' for Inactive)
REMARK    1  A    between atoms: C_2  and  S_1 
REMARK    2  A    between atoms: N_3  and  S_1 
REMARK    3  A    between atoms: C_10  and  N_3 
ROOT
ATOM      1  S   UNL d   1     -41.233-122.584 -51.589  0.00  0.00     0.285 S 
ATOM      2  O   UNL d   1     -41.123-123.408 -51.466  0.00  0.00    -0.198 OA
ATOM      3  O   UNL d   1     -41.343-121.776 -51.727  0.00  0.00    -0.198 OA
ENDROOT
BRANCH   1   4
ATOM      4  C   UNL d   1     -41.327-122.718 -52.410  0.00  0.00     0.107 A 
ATOM      5  C   UNL d   1     -41.627-122.120 -52.897  0.00  0.00     0.040 A 
ATOM      6  C   UNL d   1     -41.711-122.269 -53.690  0.00  0.00     0.123 A 
ATOM      7  O   UNL d   1     -42.007-121.689 -54.190  0.00  0.00    -0.301 OA
ATOM      8  C   UNL d   1     -41.497-123.017 -54.003  0.00  0.00     0.123 A 
ATOM      9  C   UNL d   1     -42.088-121.853 -55.000  0.00  0.00     0.149 A 
ATOM     10  C   UNL d   1     -41.887-122.555 -55.294  0.00  0.00     0.149 A 
ATOM     11  O   UNL d   1     -41.585-123.159 -54.804  0.00  0.00    -0.301 OA
ATOM     12  C   UNL d   1     -41.205-123.590 -53.511  0.00  0.00     0.028 A 
ATOM     13  C   UNL d   1     -41.126-123.420 -52.703  0.00  0.00     0.015 A 
ENDBRANCH   1   4
BRANCH   1  14
ATOM     14  N   UNL d   1     -41.142-122.430 -50.778  0.00  0.00    -0.158 NA
BRANCH  14  15
ATOM     15  C   UNL d   1     -41.792-122.574 -50.265  0.00  0.00     0.094 A 
ATOM     16  C   UNL d   1     -41.699-123.123 -49.648  0.00  0.00     0.020 A 
ATOM     17  C   UNL d   1     -42.344-123.266 -49.139  0.00  0.00     0.002 A 
ATOM     18  C   UNL d   1     -42.267-123.817 -48.509  0.00  0.00     0.000 C 
ATOM     19  C   UNL d   1     -43.058-122.868 -49.251  0.00  0.00     0.000 A 
ATOM     20  C   UNL d   1     -43.112-122.331 -49.874  0.00  0.00     0.002 A 
ATOM     21  C   UNL d   1     -42.490-122.189 -50.369  0.00  0.00     0.020 A 
ENDBRANCH  14  15
ENDBRANCH   1  14
TORSDOF 3
ENDMDL
MODEL 2
REMARK VINA RESULT:      -6.1      1.072      4.342
REMARK  3 active torsions:
REMARK  status: ('A' for Active; 'I' for Inactive)
REMARK    1  A    between atoms: C_2  and  S_1 
REMARK    2  A    between atoms: N_3  and  S_1 
REMARK    3  A    between atoms: C_10  and  N_3 
ROOT
ATOM      1  S   UNL d   1     -41.487-122.244 -51.743  0.00  0.00     0.285 S 
ATOM      2  O   UNL d   1     -41.126-123.004 -51.767  0.00  0.00    -0.198 OA
ATOM      3  O   UNL d   1     -41.848-121.502 -51.706  0.00  0.00    -0.198 OA
ENDROOT
BRANCH   1   4
ATOM      4  C   UNL d   1     -41.862-122.443 -51.023  0.00  0.00     0.107 A 
ATOM      5  C   UNL d   1     -41.447-122.855 -50.437  0.00  0.00     0.040 A 
ATOM      6  C   UNL d   1     -41.829-123.039 -49.745  0.00  0.00     0.123 A 
ATOM      7  O   UNL d   1     -41.434-123.447 -49.152  0.00  0.00    -0.301 OA
ATOM      8  C   UNL d   1     -42.629-122.812 -49.632  0.00  0.00     0.123 A 
ATOM      9  C   UNL d   1     -41.836-123.629 -48.448  0.00  0.00     0.149 A 
ATOM     10  C   UNL d   1     -42.586-123.417 -48.342  0.00  0.00     0.149 A 
ATOM     11  O   UNL d   1     -43.005-123.002 -48.931  0.00  0.00    -0.301 OA
ATOM     12  C   UNL d   1     -43.019-122.410 -50.216  0.00  0.00     0.028 A 
ATOM     13  C   UNL d   1     -42.612-122.230 -50.917  0.00  0.00     0.015 A 
ENDBRANCH   1   4
BRANCH   1  14
ATOM     14  N   UNL d   1     -41.123-122.028 -52.458  0.00  0.00    -0.158 NA
BRANCH  14  15
ATOM     15  C   UNL d   1     -41.351-122.425 -53.163  0.00  0.00     0.094 A 
ATOM     16  C   UNL d   1     -41.807-122.013 -53.722  0.00  0.00     0.020 A 
ATOM     17  C   UNL d   1     -42.034-122.407 -54.421  0.00  0.00     0.002 A 
ATOM     18  C   UNL d   1     -42.496-122.006 -54.998  0.00  0.00     0.000 C 
ATOM     19  C   UNL d   1     -41.807-123.190 -54.550  0.00  0.00     0.000 A 
ATOM     20  C   UNL d   1     -41.355-123.565 -53.972  0.00  0.00     0.002 A 
ATOM     21  C   UNL d   1     -41.133-123.188 -53.294  0.00  0.00     0.020 A 
ENDBRANCH  14  15
ENDBRANCH   1  14
TORSDOF 3
ENDMDL
