MODEL 1
REMARK VINA RESULT:      -3.1      0.000      0.000
REMARK  3 active torsions:
REMARK  status: ('A' for Active; 'I' for Inactive)
REMARK    1  A    between atoms: C_13  and  C_3 
REMARK    2  A    between atoms: C_4  and  S_11 
REMARK    3  A    between atoms: S_11  and  C_13 
ROOT
ATOM      1  C   UNL d   1      33.039  20.237 -21.935  0.00  0.00     0.141 A 
ATOM      2  N   UNL d   1      32.624  20.384 -21.263  0.00  0.00    -0.232 NA
ATOM      3  S   UNL d   1      33.241  20.948 -22.290  0.00  0.00    -0.060 SA
ATOM      4  C   UNL d   1      32.557  21.199 -21.183  0.00  0.00     0.088 A 
ATOM      5  C   UNL d   1      32.938  21.548 -21.818  0.00  0.00     0.049 A 
ATOM      6  C   UNL d   1      32.192  21.661 -20.605  0.00  0.00     0.020 A 
ATOM      7  C   UNL d   1      32.965  22.368 -21.890  0.00  0.00     0.008 A 
ATOM      8  C   UNL d   1      32.600  22.834 -21.314  0.00  0.00     0.001 A 
ATOM      9  C   UNL d   1      32.219  22.485 -20.679  0.00  0.00     0.002 A 
ENDROOT
BRANCH   1  10
ATOM     10  S   UNL d   1      33.240  19.475 -22.234  0.00  0.00    -0.058 SA
BRANCH  10  11
ATOM     11  C   UNL d   1      32.861  19.196 -22.902  0.00  0.00     0.077 C 
BRANCH  11  12
ATOM     12  C   UNL d   1      32.936  18.388 -23.108  0.00  0.00     0.178 A 
ATOM     13  N   UNL d   1      32.687  18.135 -23.843  0.00  0.00    -0.262 N 
ATOM     14  C   UNL d   1      32.834  17.310 -23.881  0.00  0.00     0.227 A 
ATOM     15  C   UNL d   1      32.351  18.598 -24.444  0.00  0.00     0.103 C 
ATOM     16  N   UNL d   1      33.162  17.091 -23.180  0.00  0.00    -0.117 NA
ATOM     17  S   UNL d   1      32.667  16.800 -24.537  0.00  0.00    -0.036 SA
ATOM     18  N   UNL d   1      33.237  17.728 -22.689  0.00  0.00    -0.127 NA
ENDBRANCH  11  12
ENDBRANCH  10  11
ENDBRANCH   1  10
TORSDOF 3
ENDMDL
MODEL 2
REMARK VINA RESULT:      -2.9      1.502      4.554
REMARK  3 active torsions:
REMARK  status: ('A' for Active; 'I' for Inactive)
REMARK    1  A    between atoms: C_13  and  C_3 
REMARK    2  A    between atoms: C_4  and  S_11 
REMARK    3  A    between atoms: S_11  and  C_13 
ROOT
ATOM      1  C   UNL d   1      33.170  19.999 -22.211  0.00  0.00     0.141 A 
ATOM      2  N   UNL d   1      33.241  20.192 -22.988  0.00  0.00    -0.232 NA
ATOM      3  S   UNL d   1      33.017  19.196 -22.144  0.00  0.00    -0.060 SA
ATOM      4  C   UNL d   1      33.132  19.506 -23.428  0.00  0.00     0.088 A 
ATOM      5  C   UNL d   1      32.993  18.890 -22.906  0.00  0.00     0.049 A 
ATOM      6  C   UNL d   1      33.143  19.373 -24.242  0.00  0.00     0.020 A 
ATOM      7  C   UNL d   1      32.863  18.127 -23.185  0.00  0.00     0.008 A 
ATOM      8  C   UNL d   1      32.873  17.990 -24.000  0.00  0.00     0.001 A 
ATOM      9  C   UNL d   1      33.012  18.605 -24.522  0.00  0.00     0.002 A 
ENDROOT
BRANCH   1  10
ATOM     10  S   UNL d   1      33.241  20.532 -21.563  0.00  0.00    -0.058 SA
BRANCH  10  11
ATOM     11  C   UNL d   1      32.792  21.214 -21.557  0.00  0.00     0.077 C 
BRANCH  11  12
ATOM     12  C   UNL d   1      32.860  21.743 -20.910  0.00  0.00     0.178 A 
ATOM     13  N   UNL d   1      32.582  22.507 -20.984  0.00  0.00    -0.262 N 
ATOM     14  C   UNL d   1      32.728  22.893 -20.254  0.00  0.00     0.227 A 
ATOM     15  C   UNL d   1      32.222  22.846 -21.651  0.00  0.00     0.103 C 
ATOM     16  N   UNL d   1      33.084  22.361 -19.767  0.00  0.00    -0.117 NA
ATOM     17  S   UNL d   1      32.536  23.696 -20.064  0.00  0.00    -0.036 SA
ATOM     18  N   UNL d   1      33.177  21.650 -20.141  0.00  0.00    -0.127 NA
ENDBRANCH  11  12
ENDBRANCH  10  11
ENDBRANCH   1  10
TORSDOF 3
ENDMDL
MODEL 3
REMARK VINA RESULT:      -2.7      1.220      4.579
REMARK  3 active torsions:
REMARK  status: ('A' for Active; 'I' for Inactive)
REMARK    1  A    between atoms: C_13  and  C_3 
REMARK    2  A    between atoms: C_4  and  S_11 
REMARK    3  A    between atoms: S_11  and  C_13 
ROOT
ATOM      1  C   UNL d   1      32.836  18.421 -23.370  0.00  0.00     0.141 A 
ATOM      2  N   UNL d   1      32.114  18.247 -23.677  0.00  0.00    -0.232 NA
ATOM      3  S   UNL d   1      33.236  17.724 -23.209  0.00  0.00    -0.060 SA
ATOM      4  C   UNL d   1      32.047  17.428 -23.714  0.00  0.00     0.088 A 
ATOM      5  C   UNL d   1      32.742  17.105 -23.424  0.00  0.00     0.049 A 
ATOM      6  C   UNL d   1      31.435  16.943 -23.977  0.00  0.00     0.020 A 
ATOM      7  C   UNL d   1      32.841  16.289 -23.391  0.00  0.00     0.008 A 
ATOM      8  C   UNL d   1      32.229  15.799 -23.654  0.00  0.00     0.001 A 
ATOM      9  C   UNL d   1      31.535  16.122 -23.944  0.00  0.00     0.002 A 
ENDROOT
BRANCH   1  10
ATOM     10  S   UNL d   1      33.139  19.195 -23.234  0.00  0.00    -0.058 SA
BRANCH  10  11
ATOM     11  C   UNL d   1      33.012  19.551 -22.509  0.00  0.00     0.077 C 
BRANCH  11  12
ATOM     12  C   UNL d   1      33.084  20.384 -22.445  0.00  0.00     0.178 A 
ATOM     13  N   UNL d   1      32.994  20.740 -21.716  0.00  0.00    -0.262 N 
ATOM     14  C   UNL d   1      33.095  21.564 -21.832  0.00  0.00     0.227 A 
ATOM     15  C   UNL d   1      32.833  20.365 -20.993  0.00  0.00     0.103 C 
ATOM     16  N   UNL d   1      33.241  21.682 -22.614  0.00  0.00    -0.117 NA
ATOM     17  S   UNL d   1      33.052  22.164 -21.234  0.00  0.00    -0.036 SA
ATOM     18  N   UNL d   1      33.240  20.979 -23.013  0.00  0.00    -0.127 NA
ENDBRANCH  11  12
ENDBRANCH  10  11
ENDBRANCH   1  10
TORSDOF 3
ENDMDL
MODEL 4
REMARK VINA RESULT:      -2.2      0.931      1.374
REMARK  3 active torsions:
REMARK  status: ('A' for Active; 'I' for Inactive)
REMARK    1  A    between atoms: C_13  and  C_3 
REMARK    2  A    between atoms: C_4  and  S_11 
REMARK    3  A    between atoms: S_11  and  C_13 
ROOT
ATOM      1  C   UNL d   1      33.209  19.683 -22.762  0.00  0.00     0.141 A 
ATOM      2  N   UNL d   1      33.237  19.509 -21.978  0.00  0.00    -0.232 NA
ATOM      3  S   UNL d   1      33.177  20.497 -22.856  0.00  0.00    -0.060 SA
ATOM      4  C   UNL d   1      33.224  20.218 -21.562  0.00  0.00     0.088 A 
ATOM      5  C   UNL d   1      33.186  20.829 -22.105  0.00  0.00     0.049 A 
ATOM      6  C   UNL d   1      33.241  20.374 -20.752  0.00  0.00     0.020 A 
ATOM      7  C   UNL d   1      33.165  21.612 -21.853  0.00  0.00     0.008 A 
ATOM      8  C   UNL d   1      33.182  21.774 -21.042  0.00  0.00     0.001 A 
ATOM      9  C   UNL d   1      33.220  21.162 -20.499  0.00  0.00     0.002 A 
ENDROOT
BRANCH   1  10
ATOM     10  S   UNL d   1      33.211  19.124 -23.391  0.00  0.00    -0.058 SA
BRANCH  10  11
ATOM     11  C   UNL d   1      32.899  18.380 -23.265  0.00  0.00     0.077 C 
BRANCH  11  12
ATOM     12  C   UNL d   1      32.704  17.900 -23.924  0.00  0.00     0.178 A 
ATOM     13  N   UNL d   1      32.639  17.093 -23.828  0.00  0.00    -0.262 N 
ATOM     14  C   UNL d   1      32.441  16.772 -24.578  0.00  0.00     0.227 A 
ATOM     15  C   UNL d   1      32.746  16.662 -23.126  0.00  0.00     0.103 C 
ATOM     16  N   UNL d   1      32.393  17.384 -25.097  0.00  0.00    -0.117 NA
ATOM     17  S   UNL d   1      32.315  15.953 -24.756  0.00  0.00    -0.036 SA
ATOM     18  N   UNL d   1      32.549  18.085 -24.726  0.00  0.00    -0.127 NA
ENDBRANCH  11  12
ENDBRANCH  10  11
ENDBRANCH   1  10
TORSDOF 3
ENDMDL
MODEL 5
REMARK VINA RESULT:      -1.5      2.760      5.270
REMARK  3 active torsions:
REMARK  status: ('A' for Active; 'I' for Inactive)
REMARK    1  A    between atoms: C_13  and  C_3 
REMARK    2  A    between atoms: C_4  and  S_11 
REMARK    3  A    between atoms: S_11  and  C_13 
ROOT
ATOM      1  C   UNL d   1      30.786  16.264 -23.814  0.00  0.00     0.141 A 
ATOM      2  N   UNL d   1      30.245  16.120 -23.237  0.00  0.00    -0.232 NA
ATOM      3  S   UNL d   1      30.443  16.125 -24.546  0.00  0.00    -0.060 SA
ATOM      4  C   UNL d   1      29.547  15.884 -23.600  0.00  0.00     0.088 A 
ATOM      5  C   UNL d   1      29.669  15.887 -24.410  0.00  0.00     0.049 A 
ATOM      6  C   UNL d   1      28.816  15.667 -23.286  0.00  0.00     0.020 A 
ATOM      7  C   UNL d   1      29.064  15.674 -24.925  0.00  0.00     0.008 A 
ATOM      8  C   UNL d   1      28.329  15.456 -24.614  0.00  0.00     0.001 A 
ATOM      9  C   UNL d   1      28.207  15.453 -23.804  0.00  0.00     0.002 A 
ENDROOT
BRANCH   1  10
ATOM     10  S   UNL d   1      31.579  16.519 -23.693  0.00  0.00    -0.058 SA
BRANCH  10  11
ATOM     11  C   UNL d   1      31.802  17.263 -23.946  0.00  0.00     0.077 C 
BRANCH  11  12
ATOM     12  C   UNL d   1      32.332  17.714 -23.479  0.00  0.00     0.178 A 
ATOM     13  N   UNL d   1      32.412  18.513 -23.619  0.00  0.00    -0.262 N 
ATOM     14  C   UNL d   1      32.974  18.804 -23.068  0.00  0.00     0.227 A 
ATOM     15  C   UNL d   1      32.017  18.962 -24.195  0.00  0.00     0.103 C 
ATOM     16  N   UNL d   1      33.214  18.182 -22.618  0.00  0.00    -0.117 NA
ATOM     17  S   UNL d   1      33.241  19.605 -22.999  0.00  0.00    -0.036 SA
ATOM     18  N   UNL d   1      32.838  17.504 -22.846  0.00  0.00    -0.127 NA
ENDBRANCH  11  12
ENDBRANCH  10  11
ENDBRANCH   1  10
TORSDOF 3
ENDMDL
