MODEL 1
REMARK VINA RESULT:      52.2      0.000      0.000
REMARK  2 active torsions:
REMARK  status: ('A' for Active; 'I' for Inactive)
REMARK    1  A    between atoms: C_2  and  C_5 
REMARK       I    between atoms: C_5  and  N_9 
REMARK    2  A    between atoms: N_9  and  C_15 
ROOT
ATOM      1  C   UNL d   1      14.378  13.498  -2.138  0.00  0.00     0.304 C 
ATOM      2  N   UNL d   1      14.328  14.317  -2.123  0.00  0.00    -0.206 NA
ATOM      3  O   UNL d   1      14.830  13.106  -1.587  0.00  0.00    -0.263 OA
ENDROOT
BRANCH   1   4
ATOM      4  C   UNL d   1      13.975  13.065  -2.705  0.00  0.00     0.182 A 
ATOM      5  O   UNL d   1      14.002  13.312  -3.483  0.00  0.00    -0.298 OA
ATOM      6  C   UNL d   1      13.594  12.875  -4.060  0.00  0.00     0.123 A 
ATOM      7  C   UNL d   1      13.616  13.118  -4.848  0.00  0.00     0.027 A 
ATOM      8  C   UNL d   1      13.177  12.213  -3.844  0.00  0.00     0.123 A 
ATOM      9  C   UNL d   1      13.211  12.681  -5.413  0.00  0.00     0.002 A 
ATOM     10  C   UNL d   1      12.794  12.022  -5.209  0.00  0.00     0.002 A 
ATOM     11  C   UNL d   1      12.772  11.779  -4.420  0.00  0.00     0.027 A 
ATOM     12  O   UNL d   1      13.155  11.970  -3.056  0.00  0.00    -0.301 OA
ATOM     13  C   UNL d   1      13.558  12.405  -2.497  0.00  0.00     0.152 A 
ENDBRANCH   1   4
BRANCH   2  14
ATOM     14  C   UNL d   1      14.715  14.804  -1.572  0.00  0.00     0.085 A 
ATOM     15  C   UNL d   1      15.077  14.540  -0.871  0.00  0.00     0.021 A 
ATOM     16  C   UNL d   1      15.439  15.063  -0.372  0.00  0.00     0.021 A 
ATOM     17  C   UNL d   1      15.458  15.845  -0.539  0.00  0.00     0.088 A 
ATOM     18  C   UNL d   1      15.103  16.120  -1.232  0.00  0.00     0.050 A 
ATOM     19  N   UNL d   1      15.766  16.517  -0.175  0.00  0.00    -0.239 NA
ATOM     20  C   UNL d   1      14.726  15.607  -1.759  0.00  0.00     0.027 A 
ATOM     21  S   UNL d   1      15.204  16.956  -1.269  0.00  0.00    -0.066 SA
ATOM     22  C   UNL d   1      15.622  17.156  -0.589  0.00  0.00     0.111 A 
ATOM     23  C   UNL d   1      15.846  17.940  -0.400  0.00  0.00     0.028 C 
ENDBRANCH   2  14
TORSDOF 2
ENDMDL
