MODEL 1
REMARK VINA RESULT:      10.6      0.000      0.000
REMARK  5 active torsions:
REMARK  status: ('A' for Active; 'I' for Inactive)
REMARK    1  A    between atoms: C_11  and  N_1 
REMARK    2  A    between atoms: S_10  and  C_2 
REMARK    3  A    between atoms: S_3  and  C_12 
REMARK    4  A    between atoms: C_13  and  C_11 
REMARK    5  A    between atoms: C_12  and  C_13 
ROOT
ATOM      1  N   UNL d   1      46.638 -18.580  43.629  0.00  0.00    -0.295 N 
ATOM      2  C   UNL d   1      46.630 -19.345  43.925  0.00  0.00     0.121 A 
ATOM      3  S   UNL d   1      46.627 -19.875  43.297  0.00  0.00    -0.062 SA
ATOM      4  C   UNL d   1      46.639 -18.631  42.805  0.00  0.00     0.071 A 
ATOM      5  C   UNL d   1      46.632 -19.440  42.598  0.00  0.00     0.047 A 
ATOM      6  C   UNL d   1      46.646 -18.053  42.216  0.00  0.00     0.018 A 
ATOM      7  C   UNL d   1      46.633 -19.655  41.806  0.00  0.00     0.008 A 
ATOM      8  C   UNL d   1      46.646 -18.279  41.418  0.00  0.00     0.002 A 
ATOM      9  C   UNL d   1      46.640 -19.069  41.216  0.00  0.00     0.001 A 
ENDROOT
BRANCH   1  10
ATOM     10  C   UNL d   1      46.643 -17.896  44.066  0.00  0.00     0.082 C 
BRANCH  10  11
ATOM     11  C   UNL d   1      45.963 -17.415  44.105  0.00  0.00     0.034 C 
BRANCH  11  12
ATOM     12  C   UNL d   1      45.809 -16.965  44.774  0.00  0.00     0.119 C 
BRANCH  12  13
ATOM     13  S   UNL d   1      45.566 -16.179  44.693  0.00  0.00     0.140 S 
ATOM     14  O   UNL d   1      45.333 -15.408  44.612  0.00  0.00    -0.591 OA
ATOM     15  O   UNL d   1      44.797 -16.396  44.894  0.00  0.00    -0.591 OA
ATOM     16  O   UNL d   1      46.338 -15.961  44.491  0.00  0.00    -0.591 OA
ENDBRANCH  12  13
ENDBRANCH  11  12
ENDBRANCH  10  11
ENDBRANCH   1  10
BRANCH   2  17
ATOM     17  S   UNL d   1      46.626 -19.549  44.721  0.00  0.00    -0.089 SA
ATOM     18  C   UNL d   1      46.412 -20.297  44.955  0.00  0.00     0.076 C 
ENDBRANCH   2  17
TORSDOF 5
ENDMDL
MODEL 2
REMARK VINA RESULT:      11.9      0.869      2.109
REMARK  5 active torsions:
REMARK  status: ('A' for Active; 'I' for Inactive)
REMARK    1  A    between atoms: C_11  and  N_1 
REMARK    2  A    between atoms: S_10  and  C_2 
REMARK    3  A    between atoms: S_3  and  C_12 
REMARK    4  A    between atoms: C_13  and  C_11 
REMARK    5  A    between atoms: C_12  and  C_13 
ROOT
ATOM      1  N   UNL d   1      46.444 -18.206  43.263  0.00  0.00    -0.295 N 
ATOM      2  C   UNL d   1      46.337 -18.488  42.500  0.00  0.00     0.121 A 
ATOM      3  S   UNL d   1      46.270 -19.308  42.526  0.00  0.00    -0.062 SA
ATOM      4  C   UNL d   1      46.444 -18.855  43.772  0.00  0.00     0.071 A 
ATOM      5  C   UNL d   1      46.335 -19.543  43.312  0.00  0.00     0.047 A 
ATOM      6  C   UNL d   1      46.528 -18.913  44.591  0.00  0.00     0.018 A 
ATOM      7  C   UNL d   1      46.313 -20.276  43.680  0.00  0.00     0.008 A 
ATOM      8  C   UNL d   1      46.504 -19.658  44.955  0.00  0.00     0.002 A 
ATOM      9  C   UNL d   1      46.398 -20.330  44.506  0.00  0.00     0.001 A 
ENDROOT
BRANCH   1  10
ATOM     10  C   UNL d   1      46.533 -17.428  43.477  0.00  0.00     0.082 C 
BRANCH  10  11
ATOM     11  C   UNL d   1      45.886 -16.996  43.777  0.00  0.00     0.034 C 
BRANCH  11  12
ATOM     12  C   UNL d   1      46.000 -16.420  44.351  0.00  0.00     0.119 C 
BRANCH  12  13
ATOM     13  S   UNL d   1      45.500 -15.762  44.377  0.00  0.00     0.140 S 
ATOM     14  O   UNL d   1      45.008 -15.120  44.406  0.00  0.00    -0.591 OA
ATOM     15  O   UNL d   1      45.970 -15.383  43.816  0.00  0.00    -0.591 OA
ATOM     16  O   UNL d   1      45.028 -16.142  44.940  0.00  0.00    -0.591 OA
ENDBRANCH  12  13
ENDBRANCH  11  12
ENDBRANCH  10  11
ENDBRANCH   1  10
BRANCH   2  17
ATOM     17  S   UNL d   1      46.302 -18.028  41.820  0.00  0.00    -0.089 SA
ATOM     18  C   UNL d   1      46.576 -18.317  41.112  0.00  0.00     0.076 C 
ENDBRANCH   2  17
TORSDOF 5
ENDMDL
