MODEL 1
REMARK VINA RESULT:      88.4      0.000      0.000
REMARK  6 active torsions:
REMARK  status: ('A' for Active; 'I' for Inactive)
REMARK    1  A    between atoms: C_7  and  C_2 
REMARK    2  A    between atoms: C_16  and  N_3 
REMARK    3  A    between atoms: O_17  and  C_9 
REMARK    4  A    between atoms: O_19  and  C_10 
REMARK    5  A    between atoms: O_18  and  C_11 
REMARK    6  A    between atoms: C_25  and  C_16 
ROOT
ATOM      1  N   UNL d   1     -54.916-102.226 -42.598  0.00  0.00    -0.206 NA
ATOM      2  C   UNL d   1     -54.950-101.522 -42.160  0.00  0.00     0.151 A 
ATOM      3  N   UNL d   1     -55.030-100.892 -42.696  0.00  0.00    -0.273 N 
ATOM      4  C   UNL d   1     -55.044-101.215 -43.454  0.00  0.00     0.185 A 
ATOM      5  C   UNL d   1     -54.974-102.034 -43.397  0.00  0.00     0.199 A 
ATOM      6  N   UNL d   1     -55.113-100.864 -44.206  0.00  0.00    -0.224 NA
ATOM      7  N   UNL d   1     -54.972-102.500 -44.075  0.00  0.00    -0.223 NA
ATOM      8  C   UNL d   1     -55.110-101.335 -44.884  0.00  0.00     0.101 A 
ATOM      9  C   UNL d   1     -55.040-102.155 -44.815  0.00  0.00     0.101 A 
ATOM     10  C   UNL d   1     -55.179-100.977 -45.628  0.00  0.00     0.021 A 
ATOM     11  C   UNL d   1     -55.038-102.618 -45.489  0.00  0.00     0.021 A 
ATOM     12  C   UNL d   1     -55.106-102.271 -46.233  0.00  0.00     0.002 A 
ATOM     13  C   UNL d   1     -55.176-101.451 -46.302  0.00  0.00     0.002 A 
ENDROOT
BRANCH   2  14
ATOM     14  C   UNL d   1     -54.912-101.458 -41.343  0.00  0.00     0.039 A 
ATOM     15  C   UNL d   1     -54.956-102.157 -40.867  0.00  0.00     0.029 A 
ATOM     16  C   UNL d   1     -54.919-102.111 -40.037  0.00  0.00     0.118 A 
ATOM     17  C   UNL d   1     -54.837-101.359 -39.682  0.00  0.00     0.138 A 
ATOM     18  C   UNL d   1     -54.793-100.660 -40.157  0.00  0.00     0.118 A 
ATOM     19  C   UNL d   1     -54.831-100.704 -40.994  0.00  0.00     0.029 A 
BRANCH  16  20
ATOM     20  O   UNL d   1     -54.962-102.796 -39.571  0.00  0.00    -0.326 OA
ATOM     21  C   UNL d   1     -55.678-102.866 -38.812  0.00  0.00     0.181 C 
ENDBRANCH  16  20
BRANCH  17  22
ATOM     22  O   UNL d   1     -54.799-101.290 -38.867  0.00  0.00    -0.324 OA
ATOM     23  C   UNL d   1     -55.223-102.034 -38.207  0.00  0.00     0.182 C 
ENDBRANCH  17  22
BRANCH  18  24
ATOM     24  O   UNL d   1     -54.712 -99.905 -39.808  0.00  0.00    -0.326 OA
ATOM     25  C   UNL d   1     -55.414 -99.083 -40.052  0.00  0.00     0.181 C 
ENDBRANCH  18  24
ENDBRANCH   2  14
BRANCH   3  26
ATOM     26  C   UNL d   1     -55.085-100.099 -42.503  0.00  0.00     0.083 C 
BRANCH  26  27
ATOM     27  C   UNL d   1     -54.967 -99.525 -43.079  0.00  0.00     0.019 C 
ATOM     28  C   UNL d   1     -55.415 -98.835 -43.071  0.00  0.00     0.002 C 
ENDBRANCH  26  27
ENDBRANCH   3  26
TORSDOF 6
ENDMDL
