MODEL 1
REMARK VINA RESULT:      -3.7      0.000      0.000
REMARK  0 active torsions:
REMARK  status: ('A' for Active; 'I' for Inactive)
ROOT
ATOM      1  C   UNL d   1     -41.365-122.579 -53.081  0.00  0.00     0.094 A 
ATOM      2  C   UNL d   1     -41.351-123.404 -53.083  0.00  0.00     0.143 A 
ATOM      3  S   UNL d   1     -41.271-123.817 -52.373  0.00  0.00    -0.055 SA
ATOM      4  C   UNL d   1     -41.299-122.168 -52.370  0.00  0.00     0.013 A 
ATOM      5  C   UNL d   1     -41.205-123.404 -51.661  0.00  0.00     0.086 A 
ATOM      6  C   UNL d   1     -41.218-122.579 -51.660  0.00  0.00     0.017 A 
ATOM      7  C   UNL d   1     -41.445-122.167 -53.792  0.00  0.00     0.103 C 
ATOM      8  N   UNL d   1     -41.525-121.756 -54.496  0.00  0.00    -0.191 NA
ATOM      9  S   UNL d   1     -41.124-123.817 -50.946  0.00  0.00    -0.071 SA
ATOM     10  N   UNL d   1     -41.417-123.817 -53.789  0.00  0.00    -0.140 N 
ATOM     11  C   UNL d   1     -41.312-121.344 -52.369  0.00  0.00     0.001 A 
ATOM     12  C   UNL d   1     -41.152-122.168 -50.948  0.00  0.00     0.001 A 
ATOM     13  C   UNL d   1     -41.246-120.931 -51.657  0.00  0.00     0.000 A 
ATOM     14  C   UNL d   1     -41.166-121.344 -50.946  0.00  0.00     0.000 A 
ENDROOT
TORSDOF 0
ENDMDL
MODEL 2
REMARK VINA RESULT:      -3.3      1.518      2.592
REMARK  0 active torsions:
REMARK  status: ('A' for Active; 'I' for Inactive)
ROOT
ATOM      1  C   UNL d   1     -41.686-122.684 -52.834  0.00  0.00     0.094 A 
ATOM      2  C   UNL d   1     -41.317-123.422 -52.824  0.00  0.00     0.143 A 
ATOM      3  S   UNL d   1     -41.130-123.800 -53.533  0.00  0.00    -0.055 SA
ATOM      4  C   UNL d   1     -41.867-122.324 -53.553  0.00  0.00     0.013 A 
ATOM      5  C   UNL d   1     -41.312-123.439 -54.253  0.00  0.00     0.086 A 
ATOM      6  C   UNL d   1     -41.680-122.701 -54.263  0.00  0.00     0.017 A 
ATOM      7  C   UNL d   1     -41.872-122.307 -52.125  0.00  0.00     0.103 C 
ATOM      8  N   UNL d   1     -42.058-121.930 -51.421  0.00  0.00    -0.191 NA
ATOM      9  S   UNL d   1     -41.125-123.817 -54.968  0.00  0.00    -0.071 SA
ATOM     10  N   UNL d   1     -41.135-123.783 -52.110  0.00  0.00    -0.140 N 
ATOM     11  C   UNL d   1     -42.235-121.587 -53.564  0.00  0.00     0.001 A 
ATOM     12  C   UNL d   1     -41.862-122.341 -54.983  0.00  0.00     0.001 A 
ATOM     13  C   UNL d   1     -42.417-121.226 -54.284  0.00  0.00     0.000 A 
ATOM     14  C   UNL d   1     -42.230-121.604 -54.994  0.00  0.00     0.000 A 
ENDROOT
TORSDOF 0
ENDMDL
MODEL 3
REMARK VINA RESULT:      -1.5      3.323      4.188
REMARK  0 active torsions:
REMARK  status: ('A' for Active; 'I' for Inactive)
ROOT
ATOM      1  C   UNL d   1     -42.146-123.099 -48.384  0.00  0.00     0.094 A 
ATOM      2  C   UNL d   1     -41.464-123.563 -48.379  0.00  0.00     0.143 A 
ATOM      3  S   UNL d   1     -41.123-123.803 -49.091  0.00  0.00    -0.055 SA
ATOM      4  C   UNL d   1     -42.486-122.874 -49.100  0.00  0.00     0.013 A 
ATOM      5  C   UNL d   1     -41.464-123.578 -49.808  0.00  0.00     0.086 A 
ATOM      6  C   UNL d   1     -42.146-123.113 -49.813  0.00  0.00     0.017 A 
ATOM      7  C   UNL d   1     -42.486-122.860 -47.671  0.00  0.00     0.103 C 
ATOM      8  N   UNL d   1     -42.826-122.621 -46.965  0.00  0.00    -0.191 NA
ATOM      9  S   UNL d   1     -41.123-123.817 -50.526  0.00  0.00    -0.071 SA
ATOM     10  N   UNL d   1     -41.122-123.788 -47.668  0.00  0.00    -0.140 N 
ATOM     11  C   UNL d   1     -43.167-122.410 -49.105  0.00  0.00     0.001 A 
ATOM     12  C   UNL d   1     -42.486-122.889 -50.530  0.00  0.00     0.001 A 
ATOM     13  C   UNL d   1     -43.509-122.185 -49.822  0.00  0.00     0.000 A 
ATOM     14  C   UNL d   1     -43.168-122.425 -50.535  0.00  0.00     0.000 A 
ENDROOT
TORSDOF 0
ENDMDL
MODEL 4
REMARK VINA RESULT:      -0.9      1.231      2.089
REMARK  0 active torsions:
REMARK  status: ('A' for Active; 'I' for Inactive)
ROOT
ATOM      1  C   UNL d   1     -41.336-121.676 -52.246  0.00  0.00     0.094 A 
ATOM      2  C   UNL d   1     -41.377-121.675 -53.070  0.00  0.00     0.143 A 
ATOM      3  S   UNL d   1     -41.347-122.386 -53.486  0.00  0.00    -0.055 SA
ATOM      4  C   UNL d   1     -41.265-122.389 -51.838  0.00  0.00     0.013 A 
ATOM      5  C   UNL d   1     -41.276-123.100 -53.077  0.00  0.00     0.086 A 
ATOM      6  C   UNL d   1     -41.235-123.102 -52.253  0.00  0.00     0.017 A 
ATOM      7  C   UNL d   1     -41.366-120.964 -51.830  0.00  0.00     0.103 C 
ATOM      8  N   UNL d   1     -41.396-120.258 -51.416  0.00  0.00    -0.191 NA
ATOM      9  S   UNL d   1     -41.246-123.817 -53.494  0.00  0.00    -0.071 SA
ATOM     10  N   UNL d   1     -41.447-120.967 -53.478  0.00  0.00    -0.140 N 
ATOM     11  C   UNL d   1     -41.225-122.391 -51.015  0.00  0.00     0.001 A 
ATOM     12  C   UNL d   1     -41.165-123.816 -51.846  0.00  0.00     0.001 A 
ATOM     13  C   UNL d   1     -41.154-123.105 -50.607  0.00  0.00     0.000 A 
ATOM     14  C   UNL d   1     -41.124-123.817 -51.023  0.00  0.00     0.000 A 
ENDROOT
TORSDOF 0
ENDMDL
