MODEL 1
REMARK VINA RESULT:      -2.9      0.000      0.000
REMARK  3 active torsions:
REMARK  status: ('A' for Active; 'I' for Inactive)
REMARK    1  A    between atoms: N_6  and  C_1 
REMARK    2  A    between atoms: C_11  and  C_2 
REMARK    3  A    between atoms: C_5  and  C_8 
REMARK       I    between atoms: C_8  and  N_6 
ROOT
ATOM      1  N   UNL d   1      31.200  15.884 -24.259  0.00  0.00    -0.200 NA
ATOM      2  C   UNL d   1      31.992  16.072 -24.063  0.00  0.00     0.302 C 
ATOM      3  O   UNL d   1      32.537  15.453 -23.917  0.00  0.00    -0.263 OA
ENDROOT
BRANCH   1   4
ATOM      4  C   UNL d   1      30.685  16.467 -24.397  0.00  0.00     0.119 A 
ATOM      5  C   UNL d   1      29.970  16.514 -24.106  0.00  0.00     0.084 A 
ATOM      6  C   UNL d   1      29.651  17.182 -24.386  0.00  0.00     0.013 A 
ATOM      7  C   UNL d   1      28.932  17.506 -24.268  0.00  0.00     0.001 A 
ATOM      8  C   UNL d   1      30.170  17.530 -24.841  0.00  0.00     0.031 A 
ATOM      9  C   UNL d   1      28.763  18.192 -24.628  0.00  0.00     0.001 A 
ATOM     10  C   UNL d   1      29.299  18.540 -25.090  0.00  0.00     0.006 A 
ATOM     11  S   UNL d   1      30.817  17.098 -24.857  0.00  0.00    -0.068 SA
BRANCH   5  12
ATOM     12  C   UNL d   1      29.617  16.006 -23.624  0.00  0.00     0.299 C 
ATOM     13  O   UNL d   1      29.759  16.047 -22.844  0.00  0.00    -0.264 OA
ATOM     14  N   UNL d   1      29.124  15.457 -23.898  0.00  0.00    -0.102 N 
ENDBRANCH   5  12
ENDBRANCH   1   4
BRANCH   2  15
ATOM     15  C   UNL d   1      32.239  16.858 -24.012  0.00  0.00     0.158 A 
ATOM     16  O   UNL d   1      32.192  17.352 -23.349  0.00  0.00    -0.302 OA
ATOM     17  C   UNL d   1      32.501  18.093 -23.541  0.00  0.00     0.100 A 
ATOM     18  C   UNL d   1      32.598  18.797 -23.109  0.00  0.00     0.025 A 
ATOM     19  C   UNL d   1      32.746  18.066 -24.337  0.00  0.00     0.025 A 
ATOM     20  C   UNL d   1      32.933  19.464 -23.457  0.00  0.00     0.002 A 
ATOM     21  C   UNL d   1      33.182  19.443 -24.261  0.00  0.00     0.000 A 
ATOM     22  C   UNL d   1      33.084  18.736 -24.694  0.00  0.00     0.002 A 
ATOM     23  C   UNL d   1      32.585  17.303 -24.629  0.00  0.00     0.032 A 
ENDBRANCH   2  15
TORSDOF 3
ENDMDL
MODEL 2
REMARK VINA RESULT:      -0.9      1.530      3.861
REMARK  3 active torsions:
REMARK  status: ('A' for Active; 'I' for Inactive)
REMARK    1  A    between atoms: N_6  and  C_1 
REMARK    2  A    between atoms: C_11  and  C_2 
REMARK    3  A    between atoms: C_5  and  C_8 
REMARK       I    between atoms: C_8  and  N_6 
ROOT
ATOM      1  N   UNL d   1      31.253  18.501 -24.664  0.00  0.00    -0.200 NA
ATOM      2  C   UNL d   1      30.425  18.496 -24.781  0.00  0.00     0.302 C 
ATOM      3  O   UNL d   1      30.050  19.175 -25.097  0.00  0.00    -0.263 OA
ENDROOT
BRANCH   1   4
ATOM      4  C   UNL d   1      31.609  17.862 -24.366  0.00  0.00     0.119 A 
ATOM      5  C   UNL d   1      32.203  17.866 -23.872  0.00  0.00     0.084 A 
ATOM      6  C   UNL d   1      32.383  17.111 -23.720  0.00  0.00     0.013 A 
ATOM      7  C   UNL d   1      32.944  16.791 -23.252  0.00  0.00     0.001 A 
ATOM      8  C   UNL d   1      31.900  16.659 -24.121  0.00  0.00     0.031 A 
ATOM      9  C   UNL d   1      32.994  16.001 -23.208  0.00  0.00     0.001 A 
ATOM     10  C   UNL d   1      32.498  15.548 -23.620  0.00  0.00     0.006 A 
ATOM     11  S   UNL d   1      31.414  17.111 -24.527  0.00  0.00    -0.068 SA
BRANCH   5  12
ATOM     12  C   UNL d   1      32.568  18.491 -23.570  0.00  0.00     0.299 C 
ATOM     13  O   UNL d   1      32.406  18.714 -22.825  0.00  0.00    -0.264 OA
ATOM     14  N   UNL d   1      33.092  18.902 -23.989  0.00  0.00    -0.102 N 
ENDBRANCH   5  12
ENDBRANCH   1   4
BRANCH   2  15
ATOM     15  C   UNL d   1      29.977  17.830 -24.589  0.00  0.00     0.158 A 
ATOM     16  O   UNL d   1      29.604  17.673 -23.865  0.00  0.00    -0.302 OA
ATOM     17  C   UNL d   1      29.216  16.946 -23.912  0.00  0.00     0.100 A 
ATOM     18  C   UNL d   1      28.760  16.510 -23.372  0.00  0.00     0.025 A 
ATOM     19  C   UNL d   1      29.346  16.640 -24.677  0.00  0.00     0.025 A 
ATOM     20  C   UNL d   1      28.435  15.782 -23.581  0.00  0.00     0.002 A 
ATOM     21  C   UNL d   1      28.562  15.468 -24.351  0.00  0.00     0.000 A 
ATOM     22  C   UNL d   1      29.021  15.907 -24.894  0.00  0.00     0.002 A 
ATOM     23  C   UNL d   1      29.815  17.185 -25.095  0.00  0.00     0.032 A 
ENDBRANCH   2  15
TORSDOF 3
ENDMDL
