MODEL 1
REMARK VINA RESULT:      13.4      0.000      0.000
REMARK  4 active torsions:
REMARK  status: ('A' for Active; 'I' for Inactive)
REMARK    1  A    between atoms: O_7  and  C_2 
REMARK    2  A    between atoms: C_13  and  C_3 
REMARK    3  A    between atoms: C_11  and  O_7 
REMARK    4  A    between atoms: O_25  and  C_20 
ROOT
ATOM      1  C   UNL d   1     -41.892-122.176 -53.532  0.00  0.00     0.066 A 
ATOM      2  C   UNL d   1     -41.962-122.633 -52.854  0.00  0.00     0.186 A 
ATOM      3  C   UNL d   1     -41.718-121.359 -53.663  0.00  0.00     0.012 A 
ATOM      4  C   UNL d   1     -41.728-121.242 -54.454  0.00  0.00     0.037 A 
ATOM      5  C   UNL d   1     -42.004-122.531 -54.278  0.00  0.00     0.116 A 
ATOM      6  S   UNL d   1     -41.901-121.943 -54.864  0.00  0.00    -0.067 SA
ATOM      7  N   UNL d   1     -42.142-123.434 -52.923  0.00  0.00    -0.200 NA
ATOM      8  N   UNL d   1     -42.183-123.334 -54.347  0.00  0.00    -0.217 NA
ATOM      9  C   UNL d   1     -42.251-123.781 -53.670  0.00  0.00     0.201 A 
ENDROOT
BRANCH   2  10
ATOM     10  O   UNL d   1     -41.852-122.285 -52.098  0.00  0.00    -0.288 OA
BRANCH  10  11
ATOM     11  C   UNL d   1     -41.812-122.765 -51.398  0.00  0.00     0.119 A 
ATOM     12  C   UNL d   1     -42.367-122.723 -50.789  0.00  0.00     0.104 A 
ATOM     13  N   UNL d   1     -43.010-122.179 -50.857  0.00  0.00    -0.244 NA
ATOM     14  C   UNL d   1     -42.301-123.201 -50.126  0.00  0.00     0.020 A 
ATOM     15  C   UNL d   1     -43.565-122.139 -50.249  0.00  0.00     0.082 A 
ATOM     16  C   UNL d   1     -44.231-121.596 -50.287  0.00  0.00     0.021 C 
ATOM     17  C   UNL d   1     -43.498-122.616 -49.585  0.00  0.00     0.019 A 
ATOM     18  C   UNL d   1     -42.875-123.150 -49.508  0.00  0.00     0.003 A 
ATOM     19  C   UNL d   1     -41.677-123.735 -50.049  0.00  0.00     0.002 A 
ATOM     20  C   UNL d   1     -41.123-123.776 -50.658  0.00  0.00     0.002 A 
ATOM     21  C   UNL d   1     -41.189-123.299 -51.321  0.00  0.00     0.026 A 
ENDBRANCH  10  11
ENDBRANCH   2  10
BRANCH   3  22
ATOM     22  C   UNL d   1     -41.567-120.787 -53.092  0.00  0.00     0.001 A 
ATOM     23  C   UNL d   1     -41.266-120.980 -52.342  0.00  0.00     0.002 A 
ATOM     24  C   UNL d   1     -41.124-120.386 -51.789  0.00  0.00     0.024 A 
ATOM     25  C   UNL d   1     -41.286-119.587 -51.992  0.00  0.00     0.094 A 
ATOM     26  C   UNL d   1     -41.589-119.401 -52.749  0.00  0.00     0.024 A 
ATOM     27  C   UNL d   1     -41.731-119.997 -53.302  0.00  0.00     0.002 A 
BRANCH  25  28
ATOM     28  O   UNL d   1     -41.159-118.933 -51.465  0.00  0.00    -0.328 OA
ATOM     29  C   UNL d   1     -41.123-118.169 -51.774  0.00  0.00     0.181 C 
ENDBRANCH  25  28
ENDBRANCH   3  22
TORSDOF 4
ENDMDL
