MODEL 1
REMARK VINA RESULT:      77.6      0.000      0.000
REMARK  4 active torsions:
REMARK  status: ('A' for Active; 'I' for Inactive)
REMARK    1  A    between atoms: N_10  and  C_3 
REMARK    2  A    between atoms: C_12  and  C_5 
REMARK    3  A    between atoms: C_20  and  N_11 
REMARK    4  A    between atoms: C_24  and  C_20 
ROOT
ATOM      1  N   UNL d   1      45.820 -16.818  43.798  0.00  0.00    -0.196 N 
ATOM      2  C   UNL d   1      46.005 -17.522  43.399  0.00  0.00     0.167 A 
ATOM      3  C   UNL d   1      45.893 -16.103  43.400  0.00  0.00     0.152 A 
ATOM      4  N   UNL d   1      45.505 -17.560  44.953  0.00  0.00    -0.163 NA
ATOM      5  C   UNL d   1      45.940 -18.236  43.773  0.00  0.00     0.055 A 
ATOM      6  N   UNL d   1      46.257 -17.495  42.611  0.00  0.00    -0.227 NA
ATOM      7  C   UNL d   1      46.142 -16.074  42.623  0.00  0.00     0.052 A 
ATOM      8  C   UNL d   1      45.689 -18.260  44.556  0.00  0.00     0.104 A 
ATOM      9  C   UNL d   1      46.325 -16.774  42.227  0.00  0.00     0.086 A 
ATOM     10  C   UNL d   1      46.208 -15.342  42.240  0.00  0.00     0.004 A 
ATOM     11  C   UNL d   1      45.620 -18.966  44.941  0.00  0.00     0.023 C 
ATOM     12  C   UNL d   1      46.576 -16.749  41.443  0.00  0.00     0.019 A 
ATOM     13  C   UNL d   1      46.464 -15.322  41.444  0.00  0.00     0.000 A 
ATOM     14  C   UNL d   1      46.647 -16.021  41.048  0.00  0.00     0.002 A 
ENDROOT
BRANCH   3  15
ATOM     15  N   UNL d   1      45.707 -15.385  43.802  0.00  0.00    -0.286 N 
ATOM     16  C   UNL d   1      45.355 -14.783  43.311  0.00  0.00     0.101 A 
ATOM     17  C   UNL d   1      45.139 -14.031  43.644  0.00  0.00     0.100 A 
ATOM     18  N   UNL d   1      45.274 -13.879  44.471  0.00  0.00    -0.297 N 
ATOM     19  C   UNL d   1      45.621 -14.475  44.953  0.00  0.00     0.100 A 
ATOM     20  C   UNL d   1      45.837 -15.230  44.617  0.00  0.00     0.101 A 
BRANCH  18  21
ATOM     21  C   UNL d   1      45.060 -13.132  44.803  0.00  0.00     0.126 C 
BRANCH  21  22
ATOM     22  C   UNL d   1      45.409 -12.411  44.524  0.00  0.00     0.253 C 
ATOM     23  O   UNL d   1      46.134 -12.127  44.843  0.00  0.00    -0.281 OA
ENDBRANCH  21  22
ENDBRANCH  18  21
ENDBRANCH   3  15
BRANCH   5  24
ATOM     24  C   UNL d   1      46.123 -18.936  43.376  0.00  0.00     0.004 A 
ATOM     25  C   UNL d   1      46.462 -19.551  43.787  0.00  0.00     0.000 A 
ATOM     26  C   UNL d   1      46.645 -20.251  43.391  0.00  0.00     0.000 A 
ATOM     27  C   UNL d   1      46.487 -20.325  42.589  0.00  0.00     0.000 A 
ATOM     28  C   UNL d   1      46.145 -19.699  42.184  0.00  0.00     0.000 A 
ATOM     29  C   UNL d   1      45.962 -18.999  42.581  0.00  0.00     0.000 A 
ENDBRANCH   5  24
TORSDOF 4
ENDMDL
MODEL 2
REMARK VINA RESULT:      78.3      1.770      4.532
REMARK  4 active torsions:
REMARK  status: ('A' for Active; 'I' for Inactive)
REMARK    1  A    between atoms: N_10  and  C_3 
REMARK    2  A    between atoms: C_12  and  C_5 
REMARK    3  A    between atoms: C_20  and  N_11 
REMARK    4  A    between atoms: C_24  and  C_20 
ROOT
ATOM      1  N   UNL d   1      45.981 -16.357  43.495  0.00  0.00    -0.196 N 
ATOM      2  C   UNL d   1      45.921 -15.589  43.185  0.00  0.00     0.167 A 
ATOM      3  C   UNL d   1      46.176 -16.976  42.992  0.00  0.00     0.152 A 
ATOM      4  N   UNL d   1      45.654 -15.862  44.773  0.00  0.00    -0.163 NA
ATOM      5  C   UNL d   1      45.730 -14.966  43.664  0.00  0.00     0.055 A 
ATOM      6  N   UNL d   1      46.057 -15.459  42.379  0.00  0.00    -0.227 NA
ATOM      7  C   UNL d   1      46.311 -16.850  42.197  0.00  0.00     0.052 A 
ATOM      8  C   UNL d   1      45.594 -15.099  44.465  0.00  0.00     0.104 A 
ATOM      9  C   UNL d   1      46.251 -16.087  41.889  0.00  0.00     0.086 A 
ATOM     10  C   UNL d   1      46.507 -17.488  41.707  0.00  0.00     0.004 A 
ATOM     11  C   UNL d   1      45.403 -14.485  44.953  0.00  0.00     0.023 C 
ATOM     12  C   UNL d   1      46.387 -15.954  41.088  0.00  0.00     0.019 A 
ATOM     13  C   UNL d   1      46.644 -17.350  40.894  0.00  0.00     0.000 A 
ATOM     14  C   UNL d   1      46.584 -16.587  40.586  0.00  0.00     0.002 A 
ENDROOT
BRANCH   3  15
ATOM     15  N   UNL d   1      46.238 -17.757  43.303  0.00  0.00    -0.286 N 
ATOM     16  C   UNL d   1      46.539 -17.801  44.099  0.00  0.00     0.101 A 
ATOM     17  C   UNL d   1      46.630 -18.555  44.482  0.00  0.00     0.100 A 
ATOM     18  N   UNL d   1      46.420 -19.269  44.069  0.00  0.00    -0.297 N 
ATOM     19  C   UNL d   1      46.123 -19.223  43.284  0.00  0.00     0.100 A 
ATOM     20  C   UNL d   1      46.032 -18.465  42.900  0.00  0.00     0.101 A 
BRANCH  18  21
ATOM     21  C   UNL d   1      46.511 -20.019  44.449  0.00  0.00     0.126 C 
BRANCH  21  22
ATOM     22  C   UNL d   1      45.905 -20.330  44.955  0.00  0.00     0.253 C 
ATOM     23  O   UNL d   1      45.108 -20.071  44.889  0.00  0.00    -0.281 OA
ENDBRANCH  21  22
ENDBRANCH  18  21
ENDBRANCH   3  15
BRANCH   5  24
ATOM     24  C   UNL d   1      45.670 -14.203  43.356  0.00  0.00     0.004 A 
ATOM     25  C   UNL d   1      44.948 -13.827  43.356  0.00  0.00     0.000 A 
ATOM     26  C   UNL d   1      44.888 -13.064  43.048  0.00  0.00     0.000 A 
ATOM     27  C   UNL d   1      45.551 -12.689  42.745  0.00  0.00     0.000 A 
ATOM     28  C   UNL d   1      46.274 -13.076  42.749  0.00  0.00     0.000 A 
ATOM     29  C   UNL d   1      46.334 -13.839  43.057  0.00  0.00     0.000 A 
ENDBRANCH   5  24
TORSDOF 4
ENDMDL
