MODEL 1
REMARK VINA RESULT:      50.0      0.000      0.000
REMARK  3 active torsions:
REMARK  status: ('A' for Active; 'I' for Inactive)
REMARK    1  A    between atoms: C_8  and  C_6 
REMARK    2  A    between atoms: C_9  and  C_8 
REMARK       I    between atoms: N_10  and  C_9 
REMARK    3  A    between atoms: C_14  and  N_10 
ROOT
ATOM      1  N   UNL d   1      15.411  14.752  -0.370  0.00  0.00    -0.207 NA
ATOM      2  N   UNL d   1      14.496  14.657  -1.771  0.00  0.00    -0.240 NA
ATOM      3  C   UNL d   1      15.006  14.139  -0.717  0.00  0.00     0.297 A 
ATOM      4  C   UNL d   1      15.494  15.535  -0.612  0.00  0.00     0.086 A 
ATOM      5  C   UNL d   1      14.708  15.447  -1.814  0.00  0.00     0.083 A 
ATOM      6  C   UNL d   1      14.697  14.110  -1.192  0.00  0.00     0.144 A 
ATOM      7  C   UNL d   1      15.172  15.895  -1.294  0.00  0.00     0.035 A 
ATOM      8  O   UNL d   1      15.042  13.422  -0.318  0.00  0.00    -0.264 OA
ATOM      9  C   UNL d   1      15.322  16.694  -1.438  0.00  0.00     0.003 A 
ATOM     10  C   UNL d   1      14.390  15.803  -2.487  0.00  0.00     0.019 A 
ATOM     11  C   UNL d   1      15.957  15.979  -0.091  0.00  0.00     0.019 A 
ATOM     12  C   UNL d   1      16.102  16.777  -0.243  0.00  0.00     0.002 A 
ATOM     13  C   UNL d   1      14.537  16.614  -2.640  0.00  0.00     0.002 A 
ATOM     14  C   UNL d   1      15.784  17.132  -0.916  0.00  0.00     0.000 A 
ATOM     15  C   UNL d   1      15.000  17.053  -2.118  0.00  0.00     0.000 A 
ENDROOT
BRANCH   6  16
ATOM     16  C   UNL d   1      14.384  13.361  -1.330  0.00  0.00     0.086 C 
BRANCH  16  17
ATOM     17  C   UNL d   1      14.805  12.690  -1.074  0.00  0.00     0.281 C 
ATOM     18  N   UNL d   1      14.729  11.975  -1.483  0.00  0.00    -0.208 NA
ATOM     19  O   UNL d   1      15.297  12.734  -0.413  0.00  0.00    -0.265 OA
BRANCH  18  20
ATOM     20  C   UNL d   1      14.237  11.926  -2.145  0.00  0.00     0.085 A 
ATOM     21  C   UNL d   1      14.564  11.852  -2.897  0.00  0.00     0.019 A 
ATOM     22  C   UNL d   1      14.071  11.803  -3.555  0.00  0.00     0.002 A 
ATOM     23  C   UNL d   1      13.253  11.828  -3.461  0.00  0.00     0.000 A 
ATOM     24  C   UNL d   1      12.926  11.903  -2.701  0.00  0.00     0.002 A 
ATOM     25  C   UNL d   1      12.769  11.780  -4.106  0.00  0.00     0.000 C 
ATOM     26  C   UNL d   1      13.422  11.952  -2.047  0.00  0.00     0.019 A 
ENDBRANCH  18  20
ENDBRANCH  16  17
ENDBRANCH   6  16
TORSDOF 3
ENDMDL
MODEL 2
REMARK VINA RESULT:      50.1      2.221      3.792
REMARK  3 active torsions:
REMARK  status: ('A' for Active; 'I' for Inactive)
REMARK    1  A    between atoms: C_8  and  C_6 
REMARK    2  A    between atoms: C_9  and  C_8 
REMARK       I    between atoms: N_10  and  C_9 
REMARK    3  A    between atoms: C_14  and  N_10 
ROOT
ATOM      1  N   UNL d   1      13.491  11.991  -2.241  0.00  0.00    -0.207 NA
ATOM      2  N   UNL d   1      14.452  13.222  -2.851  0.00  0.00    -0.240 NA
ATOM      3  C   UNL d   1      13.595  12.281  -2.993  0.00  0.00     0.297 A 
ATOM      4  C   UNL d   1      13.839  12.226  -1.531  0.00  0.00     0.086 A 
ATOM      5  C   UNL d   1      14.662  13.280  -2.061  0.00  0.00     0.083 A 
ATOM      6  C   UNL d   1      13.921  12.698  -3.196  0.00  0.00     0.144 A 
ATOM      7  C   UNL d   1      14.399  12.835  -1.414  0.00  0.00     0.035 A 
ATOM      8  O   UNL d   1      13.152  11.911  -3.577  0.00  0.00    -0.264 OA
ATOM      9  C   UNL d   1      14.681  12.983  -0.654  0.00  0.00     0.003 A 
ATOM     10  C   UNL d   1      15.214  13.882  -1.946  0.00  0.00     0.019 A 
ATOM     11  C   UNL d   1      13.575  11.779  -0.888  0.00  0.00     0.019 A 
ATOM     12  C   UNL d   1      13.863  11.934  -0.130  0.00  0.00     0.002 A 
ATOM     13  C   UNL d   1      15.506  14.038  -1.176  0.00  0.00     0.002 A 
ATOM     14  C   UNL d   1      14.415  12.536  -0.015  0.00  0.00     0.000 A 
ATOM     15  C   UNL d   1      15.240  13.591  -0.537  0.00  0.00     0.000 A 
ENDROOT
BRANCH   6  16
ATOM     16  C   UNL d   1      13.848  12.799  -4.011  0.00  0.00     0.086 C 
BRANCH  16  17
ATOM     17  C   UNL d   1      13.158  12.534  -4.393  0.00  0.00     0.281 C 
ATOM     18  N   UNL d   1      12.770  13.029  -4.930  0.00  0.00    -0.208 NA
ATOM     19  O   UNL d   1      12.859  11.780  -4.240  0.00  0.00    -0.265 OA
BRANCH  18  20
ATOM     20  C   UNL d   1      13.064  13.784  -5.088  0.00  0.00     0.085 A 
ATOM     21  C   UNL d   1      12.810  14.427  -4.640  0.00  0.00     0.019 A 
ATOM     22  C   UNL d   1      13.106  15.179  -4.799  0.00  0.00     0.002 A 
ATOM     23  C   UNL d   1      13.654  15.288  -5.405  0.00  0.00     0.000 A 
ATOM     24  C   UNL d   1      13.908  14.637  -5.854  0.00  0.00     0.002 A 
ATOM     25  C   UNL d   1      13.945  16.025  -5.561  0.00  0.00     0.000 C 
ATOM     26  C   UNL d   1      13.610  13.888  -5.691  0.00  0.00     0.019 A 
ENDBRANCH  18  20
ENDBRANCH  16  17
ENDBRANCH   6  16
TORSDOF 3
ENDMDL
MODEL 3
REMARK VINA RESULT:      50.2      2.005      3.151
REMARK  3 active torsions:
REMARK  status: ('A' for Active; 'I' for Inactive)
REMARK    1  A    between atoms: C_8  and  C_6 
REMARK    2  A    between atoms: C_9  and  C_8 
REMARK       I    between atoms: N_10  and  C_9 
REMARK    3  A    between atoms: C_14  and  N_10 
ROOT
ATOM      1  N   UNL d   1      13.486  14.543  -4.640  0.00  0.00    -0.207 NA
ATOM      2  N   UNL d   1      13.894  14.363  -3.024  0.00  0.00    -0.240 NA
ATOM      3  C   UNL d   1      13.351  13.946  -4.106  0.00  0.00     0.297 A 
ATOM      4  C   UNL d   1      13.878  15.261  -4.542  0.00  0.00     0.086 A 
ATOM      5  C   UNL d   1      14.225  15.101  -3.155  0.00  0.00     0.083 A 
ATOM      6  C   UNL d   1      13.490  13.888  -3.559  0.00  0.00     0.144 A 
ATOM      7  C   UNL d   1      14.240  15.554  -3.848  0.00  0.00     0.035 A 
ATOM      8  O   UNL d   1      12.936  13.300  -4.398  0.00  0.00    -0.264 OA
ATOM      9  C   UNL d   1      14.606  16.293  -3.864  0.00  0.00     0.003 A 
ATOM     10  C   UNL d   1      14.582  15.390  -2.469  0.00  0.00     0.019 A 
ATOM     11  C   UNL d   1      13.891  15.711  -5.235  0.00  0.00     0.019 A 
ATOM     12  C   UNL d   1      14.260  16.449  -5.243  0.00  0.00     0.002 A 
ATOM     13  C   UNL d   1      14.956  16.140  -2.478  0.00  0.00     0.002 A 
ATOM     14  C   UNL d   1      14.617  16.739  -4.557  0.00  0.00     0.000 A 
ATOM     15  C   UNL d   1      14.967  16.586  -3.171  0.00  0.00     0.000 A 
ENDROOT
BRANCH   6  16
ATOM     16  C   UNL d   1      13.232  13.177  -3.233  0.00  0.00     0.086 C 
BRANCH  16  17
ATOM     17  C   UNL d   1      13.330  12.472  -3.663  0.00  0.00     0.281 C 
ATOM     18  N   UNL d   1      13.557  11.779  -3.273  0.00  0.00    -0.208 NA
ATOM     19  O   UNL d   1      13.203  12.460  -4.479  0.00  0.00    -0.265 OA
BRANCH  18  20
ATOM     20  C   UNL d   1      13.686  11.785  -2.457  0.00  0.00     0.085 A 
ATOM     21  C   UNL d   1      13.046  11.780  -1.938  0.00  0.00     0.019 A 
ATOM     22  C   UNL d   1      13.178  11.786  -1.125  0.00  0.00     0.002 A 
ATOM     23  C   UNL d   1      13.948  11.798  -0.832  0.00  0.00     0.000 A 
ATOM     24  C   UNL d   1      14.590  11.804  -1.357  0.00  0.00     0.002 A 
ATOM     25  C   UNL d   1      14.078  11.804  -0.034  0.00  0.00     0.000 C 
ATOM     26  C   UNL d   1      14.454  11.797  -2.168  0.00  0.00     0.019 A 
ENDBRANCH  18  20
ENDBRANCH  16  17
ENDBRANCH   6  16
TORSDOF 3
ENDMDL
