MODEL 1
REMARK VINA RESULT:      -8.8      0.000      0.000
REMARK  7 active torsions:
REMARK  status: ('A' for Active; 'I' for Inactive)
REMARK    1  A    between atoms: C_14  and  C_4 
REMARK    2  A    between atoms: N_17  and  C_5 
REMARK    3  A    between atoms: C_13  and  C_8 
REMARK    4  A    between atoms: N_11  and  C_18 
REMARK    5  A    between atoms: C_20  and  N_17 
REMARK    6  A    between atoms: C_18  and  C_19 
REMARK    7  A    between atoms: C_19  and  C_20 
ROOT
ATOM      1  C   UNL d   1      52.645  33.925  53.801  0.00  0.00     0.168 A 
ATOM      2  N   UNL d   1      51.956  34.264  53.466  0.00  0.00    -0.184 N 
ATOM      3  N   UNL d   1      52.812  33.135  53.674  0.00  0.00    -0.231 NA
ATOM      4  C   UNL d   1      53.143  34.377  54.249  0.00  0.00     0.057 A 
ATOM      5  C   UNL d   1      51.473  33.794  53.022  0.00  0.00     0.217 A 
ATOM      6  N   UNL d   1      52.295  35.493  54.042  0.00  0.00    -0.160 NA
ATOM      7  C   UNL d   1      51.631  33.001  52.889  0.00  0.00     0.067 A 
ATOM      8  C   UNL d   1      52.309  32.667  53.219  0.00  0.00     0.064 A 
ATOM      9  C   UNL d   1      52.974  35.159  54.372  0.00  0.00     0.124 A 
ENDROOT
BRANCH   5  10
ATOM     10  N   UNL d   1      50.773  34.139  52.681  0.00  0.00    -0.380 NA
BRANCH  10  11
ATOM     11  C   UNL d   1      50.081  34.433  52.286  0.00  0.00     0.164 C 
BRANCH  11  12
ATOM     12  C   UNL d   1      49.511  34.874  52.719  0.00  0.00     0.054 C 
BRANCH  12  13
ATOM     13  C   UNL d   1      48.785  35.102  52.350  0.00  0.00     0.084 C 
BRANCH  13  14
ATOM     14  N   UNL d   1      48.281  35.674  52.731  0.00  0.00    -0.285 N 
ATOM     15  C   UNL d   1      48.351  35.940  53.529  0.00  0.00     0.183 A 
ATOM     16  N   UNL d   1      47.735  36.506  53.668  0.00  0.00    -0.222 NA
ATOM     17  C   UNL d   1      47.287  36.587  52.953  0.00  0.00     0.120 A 
ATOM     18  C   UNL d   1      47.624  36.072  52.374  0.00  0.00     0.102 A 
ENDBRANCH  13  14
ENDBRANCH  12  13
ENDBRANCH  11  12
ENDBRANCH  10  11
ENDBRANCH   5  10
BRANCH   8  19
ATOM     19  C   UNL d   1      52.488  31.843  53.089  0.00  0.00     0.036 C 
ATOM     20  C   UNL d   1      53.094  31.622  52.529  0.00  0.00     0.006 C 
ATOM     21  C   UNL d   1      52.667  31.031  52.957  0.00  0.00     0.006 C 
ATOM     22  C   UNL d   1      52.059  31.247  53.519  0.00  0.00     0.006 C 
ENDBRANCH   8  19
BRANCH   4  23
ATOM     23  C   UNL d   1      53.821  34.044  54.580  0.00  0.00     0.004 A 
ATOM     24  C   UNL d   1      53.776  33.695  55.301  0.00  0.00     0.000 A 
ATOM     25  C   UNL d   1      54.454  33.361  55.632  0.00  0.00     0.000 A 
ATOM     26  C   UNL d   1      55.156  33.387  55.230  0.00  0.00     0.000 A 
ATOM     27  C   UNL d   1      55.195  33.743  54.497  0.00  0.00     0.000 A 
ATOM     28  C   UNL d   1      54.517  34.076  54.166  0.00  0.00     0.000 A 
ENDBRANCH   4  23
TORSDOF 7
ENDMDL
MODEL 2
REMARK VINA RESULT:      -7.1      1.009      2.281
REMARK  7 active torsions:
REMARK  status: ('A' for Active; 'I' for Inactive)
REMARK    1  A    between atoms: C_14  and  C_4 
REMARK    2  A    between atoms: N_17  and  C_5 
REMARK    3  A    between atoms: C_13  and  C_8 
REMARK    4  A    between atoms: N_11  and  C_18 
REMARK    5  A    between atoms: C_20  and  N_17 
REMARK    6  A    between atoms: C_18  and  C_19 
REMARK    7  A    between atoms: C_19  and  C_20 
ROOT
ATOM      1  C   UNL d   1      52.348  33.374  53.293  0.00  0.00     0.168 A 
ATOM      2  N   UNL d   1      51.608  33.502  52.921  0.00  0.00    -0.184 N 
ATOM      3  N   UNL d   1      52.715  33.987  53.690  0.00  0.00    -0.231 NA
ATOM      4  C   UNL d   1      52.699  32.646  53.259  0.00  0.00     0.057 A 
ATOM      5  C   UNL d   1      51.277  34.236  52.968  0.00  0.00     0.217 A 
ATOM      6  N   UNL d   1      51.604  32.168  52.499  0.00  0.00    -0.160 NA
ATOM      7  C   UNL d   1      51.636  34.858  53.363  0.00  0.00     0.067 A 
ATOM      8  C   UNL d   1      52.364  34.731  53.729  0.00  0.00     0.064 A 
ATOM      9  C   UNL d   1      52.333  32.042  52.865  0.00  0.00     0.124 A 
ENDROOT
BRANCH   5  10
ATOM     10  N   UNL d   1      50.525  34.366  52.590  0.00  0.00    -0.380 NA
BRANCH  10  11
ATOM     11  C   UNL d   1      49.811  34.498  52.148  0.00  0.00     0.164 C 
BRANCH  11  12
ATOM     12  C   UNL d   1      49.204  34.978  52.474  0.00  0.00     0.054 C 
BRANCH  12  13
ATOM     13  C   UNL d   1      48.492  35.111  52.038  0.00  0.00     0.084 C 
BRANCH  13  14
ATOM     14  N   UNL d   1      47.924  35.680  52.322  0.00  0.00    -0.285 N 
ATOM     15  C   UNL d   1      47.941  36.060  53.075  0.00  0.00     0.183 A 
ATOM     16  N   UNL d   1      47.271  36.579  53.118  0.00  0.00    -0.222 NA
ATOM     17  C   UNL d   1      46.844  36.517  52.389  0.00  0.00     0.120 A 
ATOM     18  C   UNL d   1      47.248  35.961  51.897  0.00  0.00     0.102 A 
ENDBRANCH  13  14
ENDBRANCH  12  13
ENDBRANCH  11  12
ENDBRANCH  10  11
ENDBRANCH   5  10
BRANCH   8  19
ATOM     19  C   UNL d   1      52.751  35.368  54.145  0.00  0.00     0.036 C 
ATOM     20  C   UNL d   1      52.565  35.514  54.967  0.00  0.00     0.006 C 
ATOM     21  C   UNL d   1      53.129  35.996  54.560  0.00  0.00     0.006 C 
ATOM     22  C   UNL d   1      53.318  35.854  53.738  0.00  0.00     0.006 C 
ENDBRANCH   8  19
BRANCH   4  23
ATOM     23  C   UNL d   1      53.427  32.520  53.625  0.00  0.00     0.004 A 
ATOM     24  C   UNL d   1      53.446  32.271  54.388  0.00  0.00     0.000 A 
ATOM     25  C   UNL d   1      54.174  32.145  54.754  0.00  0.00     0.000 A 
ATOM     26  C   UNL d   1      54.861  32.271  54.346  0.00  0.00     0.000 A 
ATOM     27  C   UNL d   1      54.835  32.524  53.570  0.00  0.00     0.000 A 
ATOM     28  C   UNL d   1      54.107  32.651  53.204  0.00  0.00     0.000 A 
ENDBRANCH   4  23
TORSDOF 7
ENDMDL
MODEL 3
REMARK VINA RESULT:      -6.6      1.229      2.981
REMARK  7 active torsions:
REMARK  status: ('A' for Active; 'I' for Inactive)
REMARK    1  A    between atoms: C_14  and  C_4 
REMARK    2  A    between atoms: N_17  and  C_5 
REMARK    3  A    between atoms: C_13  and  C_8 
REMARK    4  A    between atoms: N_11  and  C_18 
REMARK    5  A    between atoms: C_20  and  N_17 
REMARK    6  A    between atoms: C_18  and  C_19 
REMARK    7  A    between atoms: C_19  and  C_20 
ROOT
ATOM      1  C   UNL d   1      52.757  31.959  53.459  0.00  0.00     0.168 A 
ATOM      2  N   UNL d   1      52.219  32.555  53.218  0.00  0.00    -0.184 N 
ATOM      3  N   UNL d   1      53.406  32.159  53.914  0.00  0.00    -0.231 NA
ATOM      4  C   UNL d   1      52.636  31.190  53.242  0.00  0.00     0.057 A 
ATOM      5  C   UNL d   1      52.360  33.315  53.446  0.00  0.00     0.217 A 
ATOM      6  N   UNL d   1      51.463  31.583  52.553  0.00  0.00    -0.160 NA
ATOM      7  C   UNL d   1      53.007  33.526  53.902  0.00  0.00     0.067 A 
ATOM      8  C   UNL d   1      53.537  32.940  54.140  0.00  0.00     0.064 A 
ATOM      9  C   UNL d   1      51.993  30.997  52.791  0.00  0.00     0.124 A 
ENDROOT
BRANCH   5  10
ATOM     10  N   UNL d   1      51.813  33.920  53.201  0.00  0.00    -0.380 NA
BRANCH  10  11
ATOM     11  C   UNL d   1      51.292  34.564  53.013  0.00  0.00     0.164 C 
BRANCH  11  12
ATOM     12  C   UNL d   1      50.618  34.426  52.530  0.00  0.00     0.054 C 
BRANCH  12  13
ATOM     13  C   UNL d   1      49.880  34.791  52.722  0.00  0.00     0.084 C 
BRANCH  13  14
ATOM     14  N   UNL d   1      49.261  34.823  52.136  0.00  0.00    -0.285 N 
ATOM     15  C   UNL d   1      49.260  34.416  51.397  0.00  0.00     0.183 A 
ATOM     16  N   UNL d   1      48.538  34.610  50.996  0.00  0.00    -0.222 NA
ATOM     17  C   UNL d   1      48.096  35.137  51.492  0.00  0.00     0.120 A 
ATOM     18  C   UNL d   1      48.544  35.269  52.197  0.00  0.00     0.102 A 
ENDBRANCH  13  14
ENDBRANCH  12  13
ENDBRANCH  11  12
ENDBRANCH  10  11
ENDBRANCH   5  10
BRANCH   8  19
ATOM     19  C   UNL d   1      54.215  33.144  54.615  0.00  0.00     0.036 C 
ATOM     20  C   UNL d   1      54.163  33.108  55.468  0.00  0.00     0.006 C 
ATOM     21  C   UNL d   1      54.882  33.344  55.089  0.00  0.00     0.006 C 
ATOM     22  C   UNL d   1      54.939  33.381  54.237  0.00  0.00     0.006 C 
ENDBRANCH   8  19
BRANCH   4  23
ATOM     23  C   UNL d   1      53.166  30.604  53.479  0.00  0.00     0.004 A 
ATOM     24  C   UNL d   1      53.828  30.474  53.044  0.00  0.00     0.000 A 
ATOM     25  C   UNL d   1      54.358  29.888  53.282  0.00  0.00     0.000 A 
ATOM     26  C   UNL d   1      54.209  29.451  53.946  0.00  0.00     0.000 A 
ATOM     27  C   UNL d   1      53.534  29.589  54.384  0.00  0.00     0.000 A 
ATOM     28  C   UNL d   1      53.004  30.175  54.146  0.00  0.00     0.000 A 
ENDBRANCH   4  23
TORSDOF 7
ENDMDL
MODEL 4
REMARK VINA RESULT:      -6.6      1.935      4.929
REMARK  7 active torsions:
REMARK  status: ('A' for Active; 'I' for Inactive)
REMARK    1  A    between atoms: C_14  and  C_4 
REMARK    2  A    between atoms: N_17  and  C_5 
REMARK    3  A    between atoms: C_13  and  C_8 
REMARK    4  A    between atoms: N_11  and  C_18 
REMARK    5  A    between atoms: C_20  and  N_17 
REMARK    6  A    between atoms: C_18  and  C_19 
REMARK    7  A    between atoms: C_19  and  C_20 
ROOT
ATOM      1  C   UNL d   1      53.008  33.524  53.737  0.00  0.00     0.168 A 
ATOM      2  N   UNL d   1      53.160  32.723  53.543  0.00  0.00    -0.184 N 
ATOM      3  N   UNL d   1      52.337  33.892  53.449  0.00  0.00    -0.231 NA
ATOM      4  C   UNL d   1      53.523  33.933  54.208  0.00  0.00     0.057 A 
ATOM      5  C   UNL d   1      52.632  32.336  53.072  0.00  0.00     0.217 A 
ATOM      6  N   UNL d   1      54.335  32.776  54.300  0.00  0.00    -0.160 NA
ATOM      7  C   UNL d   1      51.957  32.695  52.777  0.00  0.00     0.067 A 
ATOM      8  C   UNL d   1      51.807  33.483  52.968  0.00  0.00     0.064 A 
ATOM      9  C   UNL d   1      54.185  33.565  54.491  0.00  0.00     0.124 A 
ENDROOT
BRANCH   5  10
ATOM     10  N   UNL d   1      52.787  31.522  52.874  0.00  0.00    -0.380 NA
BRANCH  10  11
ATOM     11  C   UNL d   1      52.872  30.695  52.700  0.00  0.00     0.164 C 
BRANCH  11  12
ATOM     12  C   UNL d   1      52.776  30.129  53.314  0.00  0.00     0.054 C 
BRANCH  12  13
ATOM     13  C   UNL d   1      53.409  29.600  53.502  0.00  0.00     0.084 C 
BRANCH  13  14
ATOM     14  N   UNL d   1      53.381  29.150  54.227  0.00  0.00    -0.285 N 
ATOM     15  C   UNL d   1      53.574  28.334  54.307  0.00  0.00     0.183 A 
ATOM     16  N   UNL d   1      53.468  28.122  55.122  0.00  0.00    -0.222 NA
ATOM     17  C   UNL d   1      53.209  28.812  55.540  0.00  0.00     0.120 A 
ATOM     18  C   UNL d   1      53.156  29.449  54.986  0.00  0.00     0.102 A 
ENDBRANCH  13  14
ENDBRANCH  12  13
ENDBRANCH  11  12
ENDBRANCH  10  11
ENDBRANCH   5  10
BRANCH   8  19
ATOM     19  C   UNL d   1      51.109  33.871  52.670  0.00  0.00     0.036 C 
ATOM     20  C   UNL d   1      50.390  33.870  53.133  0.00  0.00     0.006 C 
ATOM     21  C   UNL d   1      50.416  34.253  52.379  0.00  0.00     0.006 C 
ATOM     22  C   UNL d   1      51.132  34.256  51.912  0.00  0.00     0.006 C 
ENDBRANCH   8  19
BRANCH   4  23
ATOM     23  C   UNL d   1      53.373  34.721  54.399  0.00  0.00     0.004 A 
ATOM     24  C   UNL d   1      53.628  35.300  53.905  0.00  0.00     0.000 A 
ATOM     25  C   UNL d   1      53.478  36.089  54.096  0.00  0.00     0.000 A 
ATOM     26  C   UNL d   1      53.079  36.273  54.775  0.00  0.00     0.000 A 
ATOM     27  C   UNL d   1      52.823  35.679  55.273  0.00  0.00     0.000 A 
ATOM     28  C   UNL d   1      52.973  34.891  55.082  0.00  0.00     0.000 A 
ENDBRANCH   4  23
TORSDOF 7
ENDMDL
