MODEL 1
REMARK VINA RESULT:      -8.1      0.000      0.000
REMARK  4 active torsions:
REMARK  status: ('A' for Active; 'I' for Inactive)
REMARK    1  A    between atoms: C_3  and  C_1 
REMARK       I    between atoms: N_6  and  C_3 
REMARK    2  A    between atoms: C_12  and  N_5 
REMARK    3  A    between atoms: C_8  and  N_6 
REMARK    4  A    between atoms: S_11  and  C_10 
ROOT
ATOM      1  C   UNL d   1      53.835  32.048  53.273  0.00  0.00     0.348 C 
ATOM      2  N   UNL d   1      53.464  32.714  53.610  0.00  0.00    -0.363 NA
ATOM      3  O   UNL d   1      54.587  32.131  52.881  0.00  0.00    -0.249 OA
ENDROOT
BRANCH   1   4
ATOM      4  C   UNL d   1      53.460  31.303  53.325  0.00  0.00     0.173 A 
ATOM      5  N   UNL d   1      53.710  30.664  53.798  0.00  0.00    -0.159 NA
ATOM      6  N   UNL d   1      53.172  30.040  53.674  0.00  0.00    -0.227 N 
ATOM      7  C   UNL d   1      52.603  30.294  53.135  0.00  0.00     0.102 A 
ATOM      8  C   UNL d   1      52.777  31.074  52.917  0.00  0.00     0.048 A 
BRANCH   6   9
ATOM      9  C   UNL d   1      53.206  29.295  54.032  0.00  0.00     0.101 C 
ATOM     10  C   UNL d   1      53.332  29.026  54.802  0.00  0.00     0.022 C 
ENDBRANCH   6   9
ENDBRANCH   1   4
BRANCH   2  11
ATOM     11  C   UNL d   1      53.292  33.551  53.875  0.00  0.00     0.141 A 
ATOM     12  C   UNL d   1      53.638  33.811  54.572  0.00  0.00     0.055 A 
ATOM     13  C   UNL d   1      53.497  34.561  54.829  0.00  0.00     0.009 A 
ATOM     14  C   UNL d   1      53.007  35.063  54.393  0.00  0.00     0.001 A 
ATOM     15  C   UNL d   1      52.668  34.799  53.703  0.00  0.00     0.003 A 
ATOM     16  C   UNL d   1      52.815  34.035  53.447  0.00  0.00     0.033 A 
BRANCH  12  17
ATOM     17  S   UNL d   1      54.131  33.311  55.015  0.00  0.00    -0.110 SA
ATOM     18  C   UNL d   1      54.584  33.605  55.649  0.00  0.00     0.074 C 
ENDBRANCH  12  17
ENDBRANCH   2  11
TORSDOF 4
ENDMDL
MODEL 2
REMARK VINA RESULT:      -7.7      2.152      3.833
REMARK  4 active torsions:
REMARK  status: ('A' for Active; 'I' for Inactive)
REMARK    1  A    between atoms: C_3  and  C_1 
REMARK       I    between atoms: N_6  and  C_3 
REMARK    2  A    between atoms: C_12  and  N_5 
REMARK    3  A    between atoms: C_8  and  N_6 
REMARK    4  A    between atoms: S_11  and  C_10 
ROOT
ATOM      1  C   UNL d   1      52.460  34.471  52.975  0.00  0.00     0.348 C 
ATOM      2  N   UNL d   1      52.772  34.012  53.597  0.00  0.00    -0.363 NA
ATOM      3  O   UNL d   1      52.977  34.958  52.503  0.00  0.00    -0.249 OA
ENDROOT
BRANCH   1   4
ATOM      4  C   UNL d   1      51.639  34.448  52.823  0.00  0.00     0.173 A 
ATOM      5  N   UNL d   1      51.046  34.793  53.295  0.00  0.00    -0.159 NA
ATOM      6  N   UNL d   1      50.315  34.630  52.931  0.00  0.00    -0.227 N 
ATOM      7  C   UNL d   1      50.458  34.192  52.249  0.00  0.00     0.102 A 
ATOM      8  C   UNL d   1      51.276  34.077  52.178  0.00  0.00     0.048 A 
BRANCH   6   9
ATOM      9  C   UNL d   1      49.573  34.868  53.211  0.00  0.00     0.101 C 
ATOM     10  C   UNL d   1      48.934  35.276  52.887  0.00  0.00     0.022 C 
ENDBRANCH   6   9
ENDBRANCH   1   4
BRANCH   2  11
ATOM     11  C   UNL d   1      53.339  33.634  54.176  0.00  0.00     0.141 A 
ATOM     12  C   UNL d   1      53.521  32.840  54.071  0.00  0.00     0.055 A 
ATOM     13  C   UNL d   1      54.029  32.479  54.581  0.00  0.00     0.009 A 
ATOM     14  C   UNL d   1      54.365  32.907  55.204  0.00  0.00     0.001 A 
ATOM     15  C   UNL d   1      54.180  33.692  55.301  0.00  0.00     0.003 A 
ATOM     16  C   UNL d   1      53.663  34.054  54.780  0.00  0.00     0.033 A 
BRANCH  12  17
ATOM     17  S   UNL d   1      53.188  32.406  53.448  0.00  0.00    -0.110 SA
ATOM     18  C   UNL d   1      53.338  31.591  53.362  0.00  0.00     0.074 C 
ENDBRANCH  12  17
ENDBRANCH   2  11
TORSDOF 4
ENDMDL
MODEL 3
REMARK VINA RESULT:      -7.6      1.247      3.987
REMARK  4 active torsions:
REMARK  status: ('A' for Active; 'I' for Inactive)
REMARK    1  A    between atoms: C_3  and  C_1 
REMARK       I    between atoms: N_6  and  C_3 
REMARK    2  A    between atoms: C_12  and  N_5 
REMARK    3  A    between atoms: C_8  and  N_6 
REMARK    4  A    between atoms: S_11  and  C_10 
ROOT
ATOM      1  C   UNL d   1      54.416  32.637  53.785  0.00  0.00     0.348 C 
ATOM      2  N   UNL d   1      53.900  31.982  53.781  0.00  0.00    -0.363 NA
ATOM      3  O   UNL d   1      55.082  32.659  53.253  0.00  0.00    -0.249 OA
ENDROOT
BRANCH   1   4
ATOM      4  C   UNL d   1      54.270  33.267  54.314  0.00  0.00     0.173 A 
ATOM      5  N   UNL d   1      53.755  33.907  54.180  0.00  0.00    -0.159 NA
ATOM      6  N   UNL d   1      53.787  34.395  54.854  0.00  0.00    -0.227 N 
ATOM      7  C   UNL d   1      54.311  34.058  55.392  0.00  0.00     0.102 A 
ATOM      8  C   UNL d   1      54.613  33.360  55.062  0.00  0.00     0.048 A 
BRANCH   6   9
ATOM      9  C   UNL d   1      53.362  35.097  54.962  0.00  0.00     0.101 C 
ATOM     10  C   UNL d   1      52.954  35.612  54.462  0.00  0.00     0.022 C 
ENDBRANCH   6   9
ENDBRANCH   1   4
BRANCH   2  11
ATOM     11  C   UNL d   1      53.521  31.197  53.580  0.00  0.00     0.141 A 
ATOM     12  C   UNL d   1      52.815  31.210  53.162  0.00  0.00     0.055 A 
ATOM     13  C   UNL d   1      52.455  30.515  52.970  0.00  0.00     0.009 A 
ATOM     14  C   UNL d   1      52.796  29.796  53.195  0.00  0.00     0.001 A 
ATOM     15  C   UNL d   1      53.495  29.792  53.609  0.00  0.00     0.003 A 
ATOM     16  C   UNL d   1      53.856  30.501  53.801  0.00  0.00     0.033 A 
BRANCH  12  17
ATOM     17  S   UNL d   1      52.467  31.928  52.933  0.00  0.00    -0.110 SA
ATOM     18  C   UNL d   1      51.655  31.976  52.754  0.00  0.00     0.074 C 
ENDBRANCH  12  17
ENDBRANCH   2  11
TORSDOF 4
ENDMDL
