MODEL 1
REMARK VINA RESULT:      -7.1      0.000      0.000
REMARK  3 active torsions:
REMARK  status: ('A' for Active; 'I' for Inactive)
REMARK    1  A    between atoms: C_13  and  N_6 
REMARK    2  A    between atoms: C_16  and  C_10 
REMARK    3  A    between atoms: O_19  and  C_17 
ROOT
ATOM      1  C   UNL d   1      53.445  31.699  53.984  0.00  0.00     0.722 A 
ATOM      2  C   UNL d   1      53.398  30.374  53.967  0.00  0.00     0.191 A 
ATOM      3  N   UNL d   1      53.835  31.008  54.223  0.00  0.00    -0.042 NA
ATOM      4  N   UNL d   1      52.778  31.475  53.586  0.00  0.00    -0.131 N 
ATOM      5  C   UNL d   1      52.740  30.665  53.571  0.00  0.00     0.174 A 
ATOM      6  N   UNL d   1      53.487  32.522  54.002  0.00  0.00    -0.138 N 
ATOM      7  N   UNL d   1      53.509  29.566  54.041  0.00  0.00    -0.239 N 
ATOM      8  C   UNL d   1      52.958  29.036  53.716  0.00  0.00     0.358 A 
ATOM      9  N   UNL d   1      52.300  29.326  53.320  0.00  0.00    -0.152 NA
ATOM     10  C   UNL d   1      52.852  32.815  53.619  0.00  0.00     0.100 A 
ATOM     11  C   UNL d   1      52.183  30.151  53.242  0.00  0.00     0.303 A 
ATOM     12  C   UNL d   1      52.393  32.178  53.349  0.00  0.00     0.116 A 
ATOM     13  O   UNL d   1      53.069  28.226  53.789  0.00  0.00    -0.244 OA
ATOM     14  O   UNL d   1      51.534  30.438  52.851  0.00  0.00    -0.263 OA
ATOM     15  C   UNL d   1      54.157  29.279  54.432  0.00  0.00     0.105 C 
ENDROOT
BRANCH   6  16
ATOM     16  C   UNL d   1      54.089  32.963  54.358  0.00  0.00     0.103 A 
ATOM     17  C   UNL d   1      54.800  33.096  53.955  0.00  0.00     0.111 A 
ATOM     18  C   UNL d   1      55.387  33.527  54.306  0.00  0.00     0.026 A 
ATOM     19  C   UNL d   1      55.289  33.838  55.060  0.00  0.00     0.002 A 
ATOM     20  C   UNL d   1      54.578  33.705  55.461  0.00  0.00     0.002 A 
ATOM     21  C   UNL d   1      53.976  33.264  55.106  0.00  0.00     0.020 A 
BRANCH  17  22
ATOM     22  O   UNL d   1      55.173  32.931  53.246  0.00  0.00    -0.327 OA
ATOM     23  C   UNL d   1      55.939  33.198  53.099  0.00  0.00     0.181 C 
ENDBRANCH  17  22
ENDBRANCH   6  16
BRANCH  10  24
ATOM     24  C   UNL d   1      52.671  33.616  53.503  0.00  0.00     0.018 A 
ATOM     25  C   UNL d   1      52.322  34.059  54.106  0.00  0.00     0.002 A 
ATOM     26  C   UNL d   1      52.145  34.843  53.991  0.00  0.00     0.000 A 
ATOM     27  C   UNL d   1      52.312  35.210  53.265  0.00  0.00     0.000 A 
ATOM     28  C   UNL d   1      52.660  34.767  52.662  0.00  0.00     0.000 A 
ATOM     29  C   UNL d   1      52.842  33.966  52.778  0.00  0.00     0.002 A 
ENDBRANCH  10  24
TORSDOF 3
ENDMDL
MODEL 2
REMARK VINA RESULT:      -6.5      1.372      2.839
REMARK  3 active torsions:
REMARK  status: ('A' for Active; 'I' for Inactive)
REMARK    1  A    between atoms: C_13  and  N_6 
REMARK    2  A    between atoms: C_16  and  C_10 
REMARK    3  A    between atoms: O_19  and  C_17 
ROOT
ATOM      1  C   UNL d   1      52.605  32.422  53.278  0.00  0.00     0.722 A 
ATOM      2  C   UNL d   1      52.756  31.105  53.269  0.00  0.00     0.191 A 
ATOM      3  N   UNL d   1      52.366  31.719  52.910  0.00  0.00    -0.042 NA
ATOM      4  N   UNL d   1      53.136  32.224  53.855  0.00  0.00    -0.131 N 
ATOM      5  C   UNL d   1      53.235  31.419  53.857  0.00  0.00     0.174 A 
ATOM      6  N   UNL d   1      52.501  33.239  53.273  0.00  0.00    -0.138 N 
ATOM      7  N   UNL d   1      52.741  30.296  53.140  0.00  0.00    -0.239 N 
ATOM      8  C   UNL d   1      53.209  29.789  53.603  0.00  0.00     0.358 A 
ATOM      9  N   UNL d   1      53.688  30.103  54.191  0.00  0.00    -0.152 NA
ATOM     10  C   UNL d   1      52.963  33.556  53.841  0.00  0.00     0.100 A 
ATOM     11  C   UNL d   1      53.706  30.929  54.325  0.00  0.00     0.303 A 
ATOM     12  C   UNL d   1      53.370  32.939  54.220  0.00  0.00     0.116 A 
ATOM     13  O   UNL d   1      53.194  28.979  53.474  0.00  0.00    -0.244 OA
ATOM     14  O   UNL d   1      54.179  31.239  54.905  0.00  0.00    -0.263 OA
ATOM     15  C   UNL d   1      52.269  29.986  52.560  0.00  0.00     0.105 C 
ENDROOT
BRANCH   6  16
ATOM     16  C   UNL d   1      52.002  33.656  52.763  0.00  0.00     0.103 A 
ATOM     17  C   UNL d   1      51.190  33.702  52.921  0.00  0.00     0.111 A 
ATOM     18  C   UNL d   1      50.704  34.109  52.420  0.00  0.00     0.026 A 
ATOM     19  C   UNL d   1      51.003  34.481  51.752  0.00  0.00     0.002 A 
ATOM     20  C   UNL d   1      51.814  34.434  51.594  0.00  0.00     0.002 A 
ATOM     21  C   UNL d   1      52.314  34.019  52.104  0.00  0.00     0.020 A 
BRANCH  17  22
ATOM     22  O   UNL d   1      50.632  33.456  53.466  0.00  0.00    -0.327 OA
ATOM     23  C   UNL d   1      49.837  33.657  53.376  0.00  0.00     0.181 C 
ENDBRANCH  17  22
ENDBRANCH   6  16
BRANCH  10  24
ATOM     24  C   UNL d   1      53.032  34.360  54.032  0.00  0.00     0.018 A 
ATOM     25  C   UNL d   1      53.510  34.858  53.579  0.00  0.00     0.002 A 
ATOM     26  C   UNL d   1      53.577  35.646  53.767  0.00  0.00     0.000 A 
ATOM     27  C   UNL d   1      53.167  35.960  54.416  0.00  0.00     0.000 A 
ATOM     28  C   UNL d   1      52.689  35.461  54.869  0.00  0.00     0.000 A 
ATOM     29  C   UNL d   1      52.620  34.657  54.679  0.00  0.00     0.002 A 
ENDBRANCH  10  24
TORSDOF 3
ENDMDL
MODEL 3
REMARK VINA RESULT:      -5.7      1.806      3.819
REMARK  3 active torsions:
REMARK  status: ('A' for Active; 'I' for Inactive)
REMARK    1  A    between atoms: C_13  and  N_6 
REMARK    2  A    between atoms: C_16  and  C_10 
REMARK    3  A    between atoms: O_19  and  C_17 
ROOT
ATOM      1  C   UNL d   1      52.497  33.146  53.440  0.00  0.00     0.722 A 
ATOM      2  C   UNL d   1      51.552  34.066  53.300  0.00  0.00     0.191 A 
ATOM      3  N   UNL d   1      52.342  33.960  53.451  0.00  0.00    -0.042 NA
ATOM      4  N   UNL d   1      51.798  32.770  53.283  0.00  0.00    -0.131 N 
ATOM      5  C   UNL d   1      51.214  33.326  53.196  0.00  0.00     0.174 A 
ATOM      6  N   UNL d   1      53.093  32.585  53.530  0.00  0.00    -0.138 N 
ATOM      7  N   UNL d   1      51.091  34.741  53.243  0.00  0.00    -0.239 N 
ATOM      8  C   UNL d   1      50.279  34.680  53.080  0.00  0.00     0.358 A 
ATOM      9  N   UNL d   1      49.940  33.939  52.975  0.00  0.00    -0.152 NA
ATOM     10  C   UNL d   1      52.775  31.861  53.430  0.00  0.00     0.100 A 
ATOM     11  C   UNL d   1      50.408  33.248  53.033  0.00  0.00     0.303 A 
ATOM     12  C   UNL d   1      51.964  31.950  53.275  0.00  0.00     0.116 A 
ATOM     13  O   UNL d   1      49.816  35.355  53.022  0.00  0.00    -0.244 OA
ATOM     14  O   UNL d   1      50.074  32.518  52.930  0.00  0.00    -0.263 OA
ATOM     15  C   UNL d   1      51.425  35.471  53.346  0.00  0.00     0.105 C 
ENDROOT
BRANCH   6  16
ATOM     16  C   UNL d   1      53.886  32.751  53.695  0.00  0.00     0.103 A 
ATOM     17  C   UNL d   1      54.119  32.935  54.468  0.00  0.00     0.111 A 
ATOM     18  C   UNL d   1      54.895  33.098  54.627  0.00  0.00     0.026 A 
ATOM     19  C   UNL d   1      55.460  33.082  54.030  0.00  0.00     0.002 A 
ATOM     20  C   UNL d   1      55.226  32.898  53.258  0.00  0.00     0.002 A 
ATOM     21  C   UNL d   1      54.434  32.732  53.093  0.00  0.00     0.020 A 
BRANCH  17  22
ATOM     22  O   UNL d   1      53.816  33.025  55.222  0.00  0.00    -0.327 OA
ATOM     23  C   UNL d   1      54.287  33.311  55.836  0.00  0.00     0.181 C 
ENDBRANCH  17  22
ENDBRANCH   6  16
BRANCH  10  24
ATOM     24  C   UNL d   1      53.174  31.135  53.473  0.00  0.00     0.018 A 
ATOM     25  C   UNL d   1      53.577  30.839  52.816  0.00  0.00     0.002 A 
ATOM     26  C   UNL d   1      53.967  30.128  52.859  0.00  0.00     0.000 A 
ATOM     27  C   UNL d   1      53.966  29.689  53.564  0.00  0.00     0.000 A 
ATOM     28  C   UNL d   1      53.562  29.985  54.220  0.00  0.00     0.000 A 
ATOM     29  C   UNL d   1      53.163  30.711  54.178  0.00  0.00     0.002 A 
ENDBRANCH  10  24
TORSDOF 3
ENDMDL
MODEL 4
REMARK VINA RESULT:      -5.3      2.067      3.967
REMARK  3 active torsions:
REMARK  status: ('A' for Active; 'I' for Inactive)
REMARK    1  A    between atoms: C_13  and  N_6 
REMARK    2  A    between atoms: C_16  and  C_10 
REMARK    3  A    between atoms: O_19  and  C_17 
ROOT
ATOM      1  C   UNL d   1      52.325  33.429  53.301  0.00  0.00     0.722 A 
ATOM      2  C   UNL d   1      51.191  33.828  52.741  0.00  0.00     0.191 A 
ATOM      3  N   UNL d   1      51.765  33.256  52.715  0.00  0.00    -0.042 NA
ATOM      4  N   UNL d   1      52.081  34.104  53.675  0.00  0.00    -0.131 N 
ATOM      5  C   UNL d   1      51.387  34.356  53.338  0.00  0.00     0.174 A 
ATOM      6  N   UNL d   1      53.029  33.171  53.641  0.00  0.00    -0.138 N 
ATOM      7  N   UNL d   1      50.510  33.942  52.299  0.00  0.00    -0.239 N 
ATOM      8  C   UNL d   1      50.015  34.591  52.453  0.00  0.00     0.358 A 
ATOM      9  N   UNL d   1      50.211  35.119  53.050  0.00  0.00    -0.152 NA
ATOM     10  C   UNL d   1      53.229  33.677  54.223  0.00  0.00     0.100 A 
ATOM     11  C   UNL d   1      50.905  35.006  53.503  0.00  0.00     0.303 A 
ATOM     12  C   UNL d   1      52.650  34.270  54.264  0.00  0.00     0.116 A 
ATOM     13  O   UNL d   1      49.333  34.706  52.010  0.00  0.00    -0.244 OA
ATOM     14  O   UNL d   1      51.099  35.526  54.093  0.00  0.00    -0.263 OA
ATOM     15  C   UNL d   1      50.317  33.422  51.710  0.00  0.00     0.105 C 
ENDROOT
BRANCH   6  16
ATOM     16  C   UNL d   1      53.452  32.499  53.411  0.00  0.00     0.103 A 
ATOM     17  C   UNL d   1      53.156  31.744  53.579  0.00  0.00     0.111 A 
ATOM     18  C   UNL d   1      53.572  31.088  53.354  0.00  0.00     0.026 A 
ATOM     19  C   UNL d   1      54.288  31.158  52.958  0.00  0.00     0.002 A 
ATOM     20  C   UNL d   1      54.583  31.913  52.790  0.00  0.00     0.002 A 
ATOM     21  C   UNL d   1      54.161  32.585  53.019  0.00  0.00     0.020 A 
BRANCH  17  22
ATOM     22  O   UNL d   1      52.519  31.372  53.934  0.00  0.00    -0.327 OA
ATOM     23  C   UNL d   1      52.409  30.559  53.858  0.00  0.00     0.181 C 
ENDBRANCH  17  22
ENDBRANCH   6  16
BRANCH  10  24
ATOM     24  C   UNL d   1      53.898  33.629  54.712  0.00  0.00     0.018 A 
ATOM     25  C   UNL d   1      53.869  33.213  55.424  0.00  0.00     0.002 A 
ATOM     26  C   UNL d   1      54.525  33.168  55.900  0.00  0.00     0.000 A 
ATOM     27  C   UNL d   1      55.233  33.540  55.679  0.00  0.00     0.000 A 
ATOM     28  C   UNL d   1      55.262  33.956  54.967  0.00  0.00     0.000 A 
ATOM     29  C   UNL d   1      54.593  34.003  54.478  0.00  0.00     0.002 A 
ENDBRANCH  10  24
TORSDOF 3
ENDMDL
MODEL 5
REMARK VINA RESULT:      -5.1      0.918      2.368
REMARK  3 active torsions:
REMARK  status: ('A' for Active; 'I' for Inactive)
REMARK    1  A    between atoms: C_13  and  N_6 
REMARK    2  A    between atoms: C_16  and  C_10 
REMARK    3  A    between atoms: O_19  and  C_17 
ROOT
ATOM      1  C   UNL d   1      53.089  32.107  53.820  0.00  0.00     0.722 A 
ATOM      2  C   UNL d   1      52.481  30.975  53.492  0.00  0.00     0.191 A 
ATOM      3  N   UNL d   1      52.366  31.771  53.594  0.00  0.00    -0.042 NA
ATOM      4  N   UNL d   1      53.633  31.509  53.852  0.00  0.00    -0.131 N 
ATOM      5  C   UNL d   1      53.270  30.812  53.652  0.00  0.00     0.174 A 
ATOM      6  N   UNL d   1      53.454  32.817  54.022  0.00  0.00    -0.138 N 
ATOM      7  N   UNL d   1      51.973  30.370  53.273  0.00  0.00    -0.239 N 
ATOM      8  C   UNL d   1      52.252  29.590  53.212  0.00  0.00     0.358 A 
ATOM      9  N   UNL d   1      53.041  29.427  53.373  0.00  0.00    -0.152 NA
ATOM     10  C   UNL d   1      54.221  32.671  54.180  0.00  0.00     0.100 A 
ATOM     11  C   UNL d   1      53.563  30.042  53.596  0.00  0.00     0.303 A 
ATOM     12  C   UNL d   1      54.358  31.858  54.080  0.00  0.00     0.116 A 
ATOM     13  O   UNL d   1      51.744  28.985  52.993  0.00  0.00    -0.244 OA
ATOM     14  O   UNL d   1      54.341  29.881  53.755  0.00  0.00    -0.263 OA
ATOM     15  C   UNL d   1      51.196  30.531  53.114  0.00  0.00     0.105 C 
ENDROOT
BRANCH   6  16
ATOM     16  C   UNL d   1      53.081  33.555  54.053  0.00  0.00     0.103 A 
ATOM     17  C   UNL d   1      52.884  33.951  53.353  0.00  0.00     0.111 A 
ATOM     18  C   UNL d   1      52.520  34.672  53.387  0.00  0.00     0.026 A 
ATOM     19  C   UNL d   1      52.340  35.020  54.108  0.00  0.00     0.002 A 
ATOM     20  C   UNL d   1      52.538  34.624  54.808  0.00  0.00     0.002 A 
ATOM     21  C   UNL d   1      52.910  33.887  54.777  0.00  0.00     0.020 A 
BRANCH  17  22
ATOM     22  O   UNL d   1      52.928  33.870  52.540  0.00  0.00    -0.327 OA
ATOM     23  C   UNL d   1      52.550  34.407  52.042  0.00  0.00     0.181 C 
ENDBRANCH  17  22
ENDBRANCH   6  16
BRANCH  10  24
ATOM     24  C   UNL d   1      54.795  33.226  54.406  0.00  0.00     0.018 A 
ATOM     25  C   UNL d   1      54.833  33.495  55.186  0.00  0.00     0.002 A 
ATOM     26  C   UNL d   1      55.395  34.039  55.405  0.00  0.00     0.000 A 
ATOM     27  C   UNL d   1      55.939  34.330  54.850  0.00  0.00     0.000 A 
ATOM     28  C   UNL d   1      55.900  34.061  54.070  0.00  0.00     0.000 A 
ATOM     29  C   UNL d   1      55.327  33.506  53.844  0.00  0.00     0.002 A 
ENDBRANCH  10  24
TORSDOF 3
ENDMDL
