MODEL 1
REMARK VINA RESULT:      59.3      0.000      0.000
REMARK  3 active torsions:
REMARK  status: ('A' for Active; 'I' for Inactive)
REMARK    1  A    between atoms: N_4  and  C_1 
REMARK    2  A    between atoms: C_5  and  C_3 
REMARK       I    between atoms: C_8  and  N_4 
REMARK    3  A    between atoms: C_9  and  C_8 
ROOT
ATOM      1  C   UNL d   1     -49.554  27.689  33.968  0.00  0.00     0.204 A 
ATOM      2  S   UNL d   1     -49.578  26.939  33.981  0.00  0.00    -0.031 SA
ATOM      3  C   UNL d   1     -50.357  26.672  33.638  0.00  0.00     0.119 A 
ATOM      4  N   UNL d   1     -50.288  28.006  33.627  0.00  0.00    -0.123 NA
ATOM      5  N   UNL d   1     -50.742  27.392  33.442  0.00  0.00    -0.143 NA
ENDROOT
BRANCH   3   6
ATOM      6  C   UNL d   1     -50.600  25.931  33.552  0.00  0.00     0.081 A 
ATOM      7  C   UNL d   1     -51.645  26.109  33.557  0.00  0.00     0.023 A 
ATOM      8  C   UNL d   1     -52.109  25.432  33.475  0.00  0.00     0.045 A 
ATOM      9  C   UNL d   1     -51.693  24.672  33.396  0.00  0.00    -0.022 A 
ATOM     10  C   UNL d   1     -51.939  24.248  33.345  0.00  0.00    -0.022 A 
ATOM     11  C   UNL d   1     -50.910  24.514  33.390  0.00  0.00    -0.008 A 
ATOM     12  C   UNL d   1     -50.171  25.234  33.481  0.00  0.00    -0.017 A 
ATOM     13  C   UNL d   1     -50.550  23.811  33.317  0.00  0.00    -0.001 A 
ATOM     14  C   UNL d   1     -51.128  24.382  33.372  0.00  0.00    -0.008 A 
ATOM     15  C   UNL d   1     -50.663  25.060  33.454  0.00  0.00    -0.017 A 
ENDBRANCH   3   6
BRANCH   1  16
ATOM     16  N   UNL d   1     -48.990  28.235  34.205  0.00  0.00    -0.248 N 
ATOM     17  C   UNL d   1     -48.815  28.403  34.993  0.00  0.00     0.289 C 
ATOM     18  O   UNL d   1     -49.235  27.996  35.594  0.00  0.00    -0.264 OA
ATOM     19  C   UNL d   1     -48.587  28.625  33.651  0.00  0.00     0.104 C 
BRANCH  17  20
ATOM     20  C   UNL d   1     -48.238  28.962  35.197  0.00  0.00     0.156 A 
ATOM     21  O   UNL d   1     -47.778  29.481  34.743  0.00  0.00    -0.300 OA
ATOM     22  C   UNL d   1     -47.283  29.916  35.290  0.00  0.00     0.123 A 
ATOM     23  C   UNL d   1     -47.437  29.673  36.027  0.00  0.00     0.029 A 
ATOM     24  C   UNL d   1     -48.015  29.092  35.993  0.00  0.00     0.032 A 
ENDBRANCH  17  20
ENDBRANCH   1  16
TORSDOF 3
ENDMDL
