MODEL 1
REMARK VINA RESULT:      33.5      0.000      0.000
REMARK  4 active torsions:
REMARK  status: ('A' for Active; 'I' for Inactive)
REMARK    1  A    between atoms: C_2  and  C_1 
REMARK       I    between atoms: N_7  and  C_2 
REMARK    2  A    between atoms: C_9  and  N_7 
REMARK    3  A    between atoms: O_16  and  C_10 
REMARK    4  A    between atoms: C_18  and  O_16 
ROOT
ATOM      1  C   UNL d   1      13.177  12.507  -4.722  0.00  0.00     0.280 C 
ATOM      2  N   UNL d   1      13.381  11.808  -4.337  0.00  0.00    -0.208 NA
ATOM      3  O   UNL d   1      13.018  12.492  -5.533  0.00  0.00    -0.265 OA
ENDROOT
BRANCH   1   4
ATOM      4  C   UNL d   1      13.133  13.214  -4.301  0.00  0.00     0.065 A 
ATOM      5  C   UNL d   1      13.449  13.939  -4.540  0.00  0.00     0.011 A 
ATOM      6  C   UNL d   1      13.274  14.486  -3.954  0.00  0.00     0.030 A 
ATOM      7  C   UNL d   1      13.871  14.169  -5.212  0.00  0.00     0.001 A 
ATOM      8  C   UNL d   1      13.521  15.273  -4.035  0.00  0.00     0.006 A 
ATOM      9  S   UNL d   1      12.853  14.105  -3.357  0.00  0.00    -0.086 SA
ATOM     10  C   UNL d   1      13.933  15.498  -4.691  0.00  0.00     0.001 A 
ATOM     11  C   UNL d   1      14.112  14.950  -5.285  0.00  0.00     0.000 A 
ATOM     12  C   UNL d   1      12.769  13.312  -3.581  0.00  0.00     0.040 A 
ENDBRANCH   1   4
BRANCH   2  13
ATOM     13  C   UNL d   1      13.543  11.820  -3.519  0.00  0.00     0.085 A 
ATOM     14  C   UNL d   1      14.323  11.868  -3.258  0.00  0.00     0.021 A 
ATOM     15  C   UNL d   1      14.484  11.880  -2.450  0.00  0.00     0.026 A 
ATOM     16  C   UNL d   1      13.864  11.843  -1.896  0.00  0.00     0.100 A 
ATOM     17  C   UNL d   1      13.086  11.794  -2.166  0.00  0.00     0.026 A 
ATOM     18  C   UNL d   1      12.924  11.783  -2.979  0.00  0.00     0.021 A 
BRANCH  16  19
ATOM     19  O   UNL d   1      14.012  11.854  -1.080  0.00  0.00    -0.305 OA
BRANCH  19  20
ATOM     20  C   UNL d   1      14.780  11.955  -0.797  0.00  0.00     0.123 C 
ATOM     21  C   UNL d   1      14.907  12.205  -0.019  0.00  0.00     0.029 C 
ENDBRANCH  19  20
ENDBRANCH  16  19
ENDBRANCH   2  13
TORSDOF 4
ENDMDL
