MODEL 1
REMARK VINA RESULT:      27.0      0.000      0.000
REMARK  6 active torsions:
REMARK  status: ('A' for Active; 'I' for Inactive)
REMARK    1  A    between atoms: C_2  and  S_1 
REMARK    2  A    between atoms: N_8  and  S_1 
REMARK    3  A    between atoms: O_15  and  C_3 
REMARK    4  A    between atoms: C_14  and  N_8 
REMARK    5  A    between atoms: N_10  and  C_17 
REMARK    6  A    between atoms: C_17  and  C_14 
ROOT
ATOM      1  S   UNL d   1     -56.597 -98.787 -44.304  0.00  0.00     0.287 S 
ATOM      2  O   UNL d   1     -56.326 -98.764 -43.519  0.00  0.00    -0.198 OA
ATOM      3  O   UNL d   1     -56.869 -98.810 -45.080  0.00  0.00    -0.198 OA
ENDROOT
BRANCH   1   4
ATOM      4  C   UNL d   1     -57.373 -98.802 -44.031  0.00  0.00     0.128 A 
ATOM      5  C   UNL d   1     -58.005 -98.788 -44.569  0.00  0.00     0.118 A 
ATOM      6  C   UNL d   1     -58.782 -98.803 -44.297  0.00  0.00     0.091 A 
ATOM      7 CL   UNL d   1     -59.406 -98.789 -44.833  0.00  0.00    -0.079 Cl
ATOM      8  C   UNL d   1     -58.935 -98.831 -43.486  0.00  0.00     0.070 A 
ATOM      9  C   UNL d   1     -58.311 -98.845 -42.949  0.00  0.00     0.013 A 
ATOM     10 CL   UNL d   1     -59.711 -98.846 -43.213  0.00  0.00    -0.081 Cl
ATOM     11  C   UNL d   1     -57.526 -98.830 -43.221  0.00  0.00     0.016 A 
BRANCH   5  12
ATOM     12  O   UNL d   1     -57.852 -98.760 -45.379  0.00  0.00    -0.327 OA
ATOM     13  C   UNL d   1     -58.476 -98.768 -45.918  0.00  0.00     0.181 C 
ENDBRANCH   5  12
ENDBRANCH   1   4
BRANCH   1  14
ATOM     14  N   UNL d   1     -55.816 -98.772 -44.576  0.00  0.00    -0.155 NA
BRANCH  14  15
ATOM     15  C   UNL d   1     -55.441 -99.474 -44.789  0.00  0.00     0.131 C 
BRANCH  15  16
ATOM     16  C   UNL d   1     -55.092 -99.944 -44.211  0.00  0.00     0.102 C 
BRANCH  16  17
ATOM     17  N   UNL d   1     -55.027-100.757 -44.327  0.00  0.00    -0.298 N 
ATOM     18  C   UNL d   1     -54.853-101.058 -45.084  0.00  0.00     0.107 A 
ATOM     19  C   UNL d   1     -54.788-101.866 -45.201  0.00  0.00     0.142 A 
ATOM     20  O   UNL d   1     -54.895-102.386 -44.569  0.00  0.00    -0.300 OA
ATOM     21  C   UNL d   1     -55.068-102.086 -43.816  0.00  0.00     0.142 A 
ATOM     22  C   UNL d   1     -55.134-101.270 -43.692  0.00  0.00     0.107 A 
ENDBRANCH  16  17
ENDBRANCH  15  16
ENDBRANCH  14  15
ENDBRANCH   1  14
TORSDOF 6
ENDMDL
