MODEL 1
REMARK VINA RESULT:      70.5      0.000      0.000
REMARK  5 active torsions:
REMARK  status: ('A' for Active; 'I' for Inactive)
REMARK    1  A    between atoms: C_3  and  C_1 
REMARK    2  A    between atoms: N_2  and  C_7 
REMARK       I    between atoms: N_4  and  C_3 
REMARK    3  A    between atoms: C_9  and  N_4 
REMARK    4  A    between atoms: O_19  and  C_6 
REMARK    5  A    between atoms: O_20  and  C_10 
ROOT
ATOM      1  C   UNL d   1     -55.316-102.267 -41.042  0.00  0.00     0.281 C 
ATOM      2  N   UNL d   1     -55.618-101.601 -41.425  0.00  0.00    -0.206 NA
ATOM      3  O   UNL d   1     -54.825-102.765 -41.432  0.00  0.00    -0.265 OA
ENDROOT
BRANCH   1   4
ATOM      4  C   UNL d   1     -55.527-102.412 -40.251  0.00  0.00     0.080 A 
ATOM      5  C   UNL d   1     -55.008-102.242 -39.643  0.00  0.00     0.007 A 
ATOM      6  C   UNL d   1     -55.240-102.395 -38.851  0.00  0.00     0.000 A 
ATOM      7  C   UNL d   1     -54.711-102.221 -38.245  0.00  0.00     0.000 A 
ATOM      8  C   UNL d   1     -55.988-102.715 -38.710  0.00  0.00     0.002 A 
ATOM      9  C   UNL d   1     -54.950-102.377 -37.453  0.00  0.00     0.000 A 
ATOM     10  C   UNL d   1     -55.670-102.685 -37.318  0.00  0.00     0.000 A 
ATOM     11  C   UNL d   1     -56.199-102.859 -37.927  0.00  0.00     0.000 A 
ATOM     12  C   UNL d   1     -56.492-102.877 -39.336  0.00  0.00     0.024 A 
ATOM     13  C   UNL d   1     -56.250-102.721 -40.113  0.00  0.00     0.099 A 
BRANCH  13  14
ATOM     14  O   UNL d   1     -56.750-102.880 -40.765  0.00  0.00    -0.328 OA
ATOM     15  C   UNL d   1     -57.572-102.753 -40.689  0.00  0.00     0.181 C 
ENDBRANCH  13  14
ENDBRANCH   1   4
BRANCH   2  16
ATOM     16  C   UNL d   1     -55.430-101.439 -42.185  0.00  0.00     0.107 A 
ATOM     17  C   UNL d   1     -55.022-100.749 -42.354  0.00  0.00     0.113 A 
ATOM     18  C   UNL d   1     -54.821-100.568 -43.136  0.00  0.00     0.049 A 
ATOM     19  C   UNL d   1     -55.027-101.078 -43.756  0.00  0.00     0.129 A 
ATOM     20  C   UNL d   1     -55.437-101.769 -43.583  0.00  0.00     0.025 A 
ATOM     21  C   UNL d   1     -55.639-101.954 -42.809  0.00  0.00     0.023 A 
BRANCH  17  22
ATOM     22  O   UNL d   1     -54.807-100.224 -41.736  0.00  0.00    -0.327 OA
ATOM     23  C   UNL d   1     -55.099 -99.438 -41.752  0.00  0.00     0.181 C 
ENDBRANCH  17  22
BRANCH  19  24
ATOM     24  N   UNL d   1     -54.815-100.876 -44.535  0.00  0.00    -0.114 N 
ATOM     25  O   UNL d   1     -54.711-100.076 -44.709  0.00  0.00    -0.532 OA
ATOM     26  O   UNL d   1     -54.715-101.461 -45.101  0.00  0.00    -0.532 OA
ENDBRANCH  19  24
ENDBRANCH   2  16
TORSDOF 5
ENDMDL
