MODEL 1
REMARK VINA RESULT:      72.1      0.000      0.000
REMARK  4 active torsions:
REMARK  status: ('A' for Active; 'I' for Inactive)
REMARK    1  A    between atoms: N_7  and  C_1 
REMARK    2  A    between atoms: C_8  and  C_4 
REMARK    3  A    between atoms: C_10  and  N_7 
REMARK    4  A    between atoms: C_12  and  C_8 
ROOT
ATOM      1  C   UNL d   1      59.788  49.159  50.672  0.00  0.00     0.184 A 
ATOM      2  N   UNL d   1      59.839  48.607  50.054  0.00  0.00    -0.129 NA
ATOM      3  N   UNL d   1      60.452  48.053  50.046  0.00  0.00    -0.147 NA
ATOM      4  C   UNL d   1      61.008  48.043  50.644  0.00  0.00     0.103 A 
ATOM      5  C   UNL d   1      60.352  49.143  51.269  0.00  0.00     0.039 A 
ATOM      6  C   UNL d   1      60.965  48.588  51.262  0.00  0.00     0.022 A 
ATOM      7  C   UNL d   1      60.293  49.702  51.887  0.00  0.00     0.003 A 
ATOM      8  C   UNL d   1      61.527  48.586  51.873  0.00  0.00     0.002 A 
ATOM      9  C   UNL d   1      61.471  49.131  52.477  0.00  0.00     0.000 A 
ATOM     10  C   UNL d   1      60.858  49.686  52.485  0.00  0.00     0.000 A 
ENDROOT
BRANCH   1  11
ATOM     11  N   UNL d   1      59.182  49.708  50.679  0.00  0.00    -0.225 NA
BRANCH  11  12
ATOM     12  C   UNL d   1      58.481  49.554  50.288  0.00  0.00     0.083 A 
ATOM     13  C   UNL d   1      57.837  49.248  50.696  0.00  0.00     0.020 A 
ATOM     14  C   UNL d   1      57.140  49.096  50.303  0.00  0.00     0.013 A 
ATOM     15  C   UNL d   1      57.064  49.242  49.500  0.00  0.00     0.058 A 
ATOM     16  C   UNL d   1      57.712  49.550  49.089  0.00  0.00     0.013 A 
ATOM     17 CL   UNL d   1      56.379  49.096  49.100  0.00  0.00    -0.082 Cl
ATOM     18  C   UNL d   1      58.424  49.708  49.480  0.00  0.00     0.020 A 
ENDBRANCH  11  12
ENDBRANCH   1  11
BRANCH   4  19
ATOM     19  C   UNL d   1      61.622  47.489  50.637  0.00  0.00     0.021 C 
BRANCH  19  20
ATOM     20  C   UNL d   1      61.560  46.811  50.160  0.00  0.00     0.005 A 
ATOM     21  C   UNL d   1      61.759  46.853  49.370  0.00  0.00     0.021 A 
ATOM     22  C   UNL d   1      61.697  46.180  48.902  0.00  0.00     0.099 A 
ATOM     23  N   UNL d   1      61.437  45.472  49.229  0.00  0.00    -0.242 NA
ATOM     24  C   UNL d   1      61.237  45.434  50.025  0.00  0.00     0.099 A 
ATOM     25  C   UNL d   1      61.302  46.117  50.492  0.00  0.00     0.021 A 
ENDBRANCH  19  20
ENDBRANCH   4  19
TORSDOF 4
ENDMDL
