MODEL 1
REMARK VINA RESULT:      -7.9      0.000      0.000
REMARK  2 active torsions:
REMARK  status: ('A' for Active; 'I' for Inactive)
REMARK    1  A    between atoms: C_7  and  C_1 
REMARK    2  A    between atoms: C_11  and  C_7 
ROOT
ATOM      1  C   UNL d   1     -48.816  11.970  22.654  0.00  0.00     0.116 A 
ATOM      2  N   UNL d   1     -49.619  11.442  23.698  0.00  0.00    -0.152 NA
ATOM      3  N   UNL d   1     -50.222  12.238  22.653  0.00  0.00    -0.152 NA
ATOM      4  C   UNL d   1     -48.898  11.545  23.330  0.00  0.00     0.288 A 
ATOM      5  C   UNL d   1     -49.481  12.320  22.311  0.00  0.00     0.288 A 
ATOM      6  C   UNL d   1     -50.302  11.801  23.347  0.00  0.00     0.374 A 
ATOM      7  O   UNL d   1     -49.420  12.768  21.606  0.00  0.00    -0.265 OA
ATOM      8  O   UNL d   1     -48.216  11.194  23.670  0.00  0.00    -0.265 OA
ATOM      9  O   UNL d   1     -51.064  11.730  23.677  0.00  0.00    -0.242 OA
ENDROOT
BRANCH   1  10
ATOM     10  C   UNL d   1     -48.064  12.063  22.293  0.00  0.00     0.010 C 
BRANCH  10  11
ATOM     11  C   UNL d   1     -47.591  12.697  22.526  0.00  0.00     0.000 A 
ATOM     12  C   UNL d   1     -46.920  12.560  22.973  0.00  0.00     0.002 A 
ATOM     13  C   UNL d   1     -46.452  13.186  23.204  0.00  0.00     0.030 A 
ATOM     14  C   UNL d   1     -46.657  13.960  22.987  0.00  0.00     0.140 A 
ATOM     15  C   UNL d   1     -47.328  14.098  22.539  0.00  0.00     0.030 A 
ATOM     16  F   UNL d   1     -46.189  14.625  23.213  0.00  0.00    -0.204 F 
ATOM     17  C   UNL d   1     -47.795  13.471  22.308  0.00  0.00     0.002 A 
ENDBRANCH  10  11
ENDBRANCH   1  10
TORSDOF 2
ENDMDL
MODEL 2
REMARK VINA RESULT:      -7.8      2.280      3.200
REMARK  2 active torsions:
REMARK  status: ('A' for Active; 'I' for Inactive)
REMARK    1  A    between atoms: C_7  and  C_1 
REMARK    2  A    between atoms: C_11  and  C_7 
ROOT
ATOM      1  C   UNL d   1     -47.522  13.465  22.438  0.00  0.00     0.116 A 
ATOM      2  N   UNL d   1     -46.295  13.407  23.149  0.00  0.00    -0.152 NA
ATOM      3  N   UNL d   1     -47.089  12.211  22.977  0.00  0.00    -0.152 NA
ATOM      4  C   UNL d   1     -46.862  13.818  22.731  0.00  0.00     0.288 A 
ATOM      5  C   UNL d   1     -47.638  12.657  22.560  0.00  0.00     0.288 A 
ATOM      6  C   UNL d   1     -46.414  12.577  23.275  0.00  0.00     0.374 A 
ATOM      7  O   UNL d   1     -48.318  12.267  22.264  0.00  0.00    -0.265 OA
ATOM      8  O   UNL d   1     -46.754  14.640  22.601  0.00  0.00    -0.265 OA
ATOM      9  O   UNL d   1     -45.869  12.106  23.695  0.00  0.00    -0.242 OA
ENDROOT
BRANCH   1  10
ATOM     10  C   UNL d   1     -48.092  13.908  22.010  0.00  0.00     0.010 C 
BRANCH  10  11
ATOM     11  C   UNL d   1     -48.702  14.272  22.429  0.00  0.00     0.000 A 
ATOM     12  C   UNL d   1     -48.738  15.088  22.466  0.00  0.00     0.002 A 
ATOM     13  C   UNL d   1     -49.342  15.448  22.880  0.00  0.00     0.030 A 
ATOM     14  C   UNL d   1     -49.916  14.988  23.262  0.00  0.00     0.140 A 
ATOM     15  C   UNL d   1     -49.880  14.172  23.225  0.00  0.00     0.030 A 
ATOM     16  F   UNL d   1     -50.550  15.337  23.696  0.00  0.00    -0.204 F 
ATOM     17  C   UNL d   1     -49.277  13.812  22.811  0.00  0.00     0.002 A 
ENDBRANCH  10  11
ENDBRANCH   1  10
TORSDOF 2
ENDMDL
