MODEL 1
REMARK VINA RESULT:      41.6      0.000      0.000
REMARK  6 active torsions:
REMARK  status: ('A' for Active; 'I' for Inactive)
REMARK    1  A    between atoms: C_13  and  C_3 
REMARK    2  A    between atoms: S_12  and  C_4 
REMARK    3  A    between atoms: C_8  and  C_6 
REMARK    4  A    between atoms: O_17  and  C_8 
REMARK    5  A    between atoms: C_10  and  C_16 
REMARK    6  A    between atoms: C_16  and  S_12 
ROOT
ATOM      1  O   UNL d   1      59.011  49.403  50.040  0.00  0.00    -0.263 OA
ATOM      2  N   UNL d   1      58.590  49.705  51.268  0.00  0.00    -0.120 NA
ATOM      3  C   UNL d   1      58.340  49.548  50.508  0.00  0.00     0.205 A 
ATOM      4  C   UNL d   1      59.673  49.475  50.530  0.00  0.00     0.236 A 
ATOM      5  N   UNL d   1      59.415  49.660  51.285  0.00  0.00    -0.114 NA
ENDROOT
BRANCH   4   6
ATOM      6  S   UNL d   1      60.471  49.378  50.305  0.00  0.00    -0.039 SA
BRANCH   6   7
ATOM      7  C   UNL d   1      60.984  48.936  50.778  0.00  0.00     0.064 C 
BRANCH   7   8
ATOM      8  C   UNL d   1      61.138  48.149  50.588  0.00  0.00     0.107 A 
ATOM      9  O   UNL d   1      61.588  47.801  49.989  0.00  0.00    -0.301 OA
ATOM     10  C   UNL d   1      61.536  46.972  50.078  0.00  0.00     0.163 A 
ATOM     11  C   UNL d   1      61.056  46.825  50.730  0.00  0.00     0.032 A 
ATOM     12  C   UNL d   1      60.810  47.537  51.045  0.00  0.00     0.027 A 
BRANCH  10  13
ATOM     13  C   UNL d   1      61.901  46.403  49.600  0.00  0.00     0.319 C 
ATOM     14  O   UNL d   1      61.437  45.914  49.117  0.00  0.00    -0.257 OA
BRANCH  13  15
ATOM     15  O   UNL d   1      62.722  46.316  49.600  0.00  0.00    -0.294 OA
ATOM     16  C   UNL d   1      63.088  45.758  49.109  0.00  0.00     0.185 C 
ENDBRANCH  13  15
ENDBRANCH  10  13
ENDBRANCH   7   8
ENDBRANCH   6   7
ENDBRANCH   4   6
BRANCH   3  17
ATOM     17  C   UNL d   1      57.574  49.522  50.197  0.00  0.00     0.046 A 
ATOM     18  C   UNL d   1      56.946  49.312  50.683  0.00  0.00     0.024 A 
ATOM     19  C   UNL d   1      56.180  49.284  50.381  0.00  0.00     0.099 A 
ATOM     20  N   UNL d   1      56.036  49.468  49.588  0.00  0.00    -0.242 NA
ATOM     21  C   UNL d   1      56.671  49.681  49.098  0.00  0.00     0.099 A 
ATOM     22  C   UNL d   1      57.434  49.707  49.405  0.00  0.00     0.024 A 
ENDBRANCH   3  17
TORSDOF 6
ENDMDL
