MODEL 1
REMARK VINA RESULT:      -2.8      0.000      0.000
REMARK  2 active torsions:
REMARK  status: ('A' for Active; 'I' for Inactive)
REMARK    1  A    between atoms: C_6  and  C_1 
REMARK    2  A    between atoms: C_7  and  C_5 
ROOT
ATOM      1  C   UNL d   1      33.074  19.263 -22.509  0.00  0.00     0.169 A 
ATOM      2  C   UNL d   1      32.837  19.880 -22.873  0.00  0.00     0.048 A 
ATOM      3  N   UNL d   1      33.139  19.949 -21.391  0.00  0.00    -0.148 NA
ATOM      4  N   UNL d   1      33.227  19.292 -21.767  0.00  0.00    -0.142 NA
ATOM      5  C   UNL d   1      32.903  20.565 -21.755  0.00  0.00     0.105 A 
ENDROOT
BRANCH   5   6
ATOM      6  C   UNL d   1      32.748  21.345 -21.545  0.00  0.00     0.020 A 
ATOM      7  C   UNL d   1      32.271  21.514 -20.889  0.00  0.00     0.004 A 
ATOM      8  C   UNL d   1      32.116  22.300 -20.678  0.00  0.00     0.030 A 
ATOM      9  C   UNL d   1      32.439  22.919 -21.122  0.00  0.00     0.140 A 
ATOM     10  C   UNL d   1      32.920  22.745 -21.784  0.00  0.00     0.030 A 
ATOM     11  F   UNL d   1      32.289  23.695 -20.918  0.00  0.00    -0.204 F 
ATOM     12  C   UNL d   1      33.070  21.960 -21.988  0.00  0.00     0.004 A 
ENDBRANCH   5   6
BRANCH   1  13
ATOM     13  C   UNL d   1      33.161  18.607 -22.884  0.00  0.00     0.231 C 
ATOM     14  O   UNL d   1      33.232  17.959 -22.505  0.00  0.00    -0.643 OA
ATOM     15  O   UNL d   1      33.176  18.610 -23.642  0.00  0.00    -0.643 OA
ENDBRANCH   1  13
TORSDOF 2
ENDMDL
MODEL 2
REMARK VINA RESULT:      -2.8      3.631      4.421
REMARK  2 active torsions:
REMARK  status: ('A' for Active; 'I' for Inactive)
REMARK    1  A    between atoms: C_6  and  C_1 
REMARK    2  A    between atoms: C_7  and  C_5 
ROOT
ATOM      1  C   UNL d   1      32.218  23.477 -20.881  0.00  0.00     0.169 A 
ATOM      2  C   UNL d   1      31.700  23.579 -20.342  0.00  0.00     0.048 A 
ATOM      3  N   UNL d   1      33.129  23.256 -19.962  0.00  0.00    -0.148 NA
ATOM      4  N   UNL d   1      32.935  23.315 -20.696  0.00  0.00    -0.142 NA
ATOM      5  C   UNL d   1      32.611  23.358 -19.423  0.00  0.00     0.105 A 
ENDROOT
BRANCH   5   6
ATOM      6  C   UNL d   1      32.612  23.340 -18.601  0.00  0.00     0.020 A 
ATOM      7  C   UNL d   1      33.223  22.960 -18.192  0.00  0.00     0.004 A 
ATOM      8  C   UNL d   1      33.222  22.942 -17.364  0.00  0.00     0.030 A 
ATOM      9  C   UNL d   1      32.610  23.305 -16.943  0.00  0.00     0.140 A 
ATOM     10  C   UNL d   1      31.994  23.689 -17.359  0.00  0.00     0.030 A 
ATOM     11  F   UNL d   1      32.605  23.291 -16.127  0.00  0.00    -0.204 F 
ATOM     12  C   UNL d   1      32.001  23.702 -18.183  0.00  0.00     0.004 A 
ENDBRANCH   5   6
BRANCH   1  13
ATOM     13  C   UNL d   1      32.024  23.536 -21.615  0.00  0.00     0.231 C 
ATOM     14  O   UNL d   1      32.543  23.436 -22.153  0.00  0.00    -0.643 OA
ATOM     15  O   UNL d   1      31.306  23.695 -21.799  0.00  0.00    -0.643 OA
ENDBRANCH   1  13
TORSDOF 2
ENDMDL
MODEL 3
REMARK VINA RESULT:      -2.7      4.803      5.549
REMARK  2 active torsions:
REMARK  status: ('A' for Active; 'I' for Inactive)
REMARK    1  A    between atoms: C_6  and  C_1 
REMARK    2  A    between atoms: C_7  and  C_5 
ROOT
ATOM      1  C   UNL d   1      29.047  16.338 -23.803  0.00  0.00     0.169 A 
ATOM      2  C   UNL d   1      29.199  16.989 -24.152  0.00  0.00     0.048 A 
ATOM      3  N   UNL d   1      30.332  16.129 -23.632  0.00  0.00    -0.148 NA
ATOM      4  N   UNL d   1      29.611  15.903 -23.541  0.00  0.00    -0.142 NA
ATOM      5  C   UNL d   1      30.484  16.780 -23.980  0.00  0.00     0.105 A 
ENDROOT
BRANCH   5   6
ATOM      6  C   UNL d   1      31.169  17.193 -24.175  0.00  0.00     0.020 A 
ATOM      7  C   UNL d   1      31.230  17.583 -24.902  0.00  0.00     0.004 A 
ATOM      8  C   UNL d   1      31.919  17.998 -25.097  0.00  0.00     0.030 A 
ATOM      9  C   UNL d   1      32.551  18.023 -24.563  0.00  0.00     0.140 A 
ATOM     10  C   UNL d   1      32.487  17.628 -23.829  0.00  0.00     0.030 A 
ATOM     11  F   UNL d   1      33.233  18.431 -24.750  0.00  0.00    -0.204 F 
ATOM     12  C   UNL d   1      31.797  17.217 -23.642  0.00  0.00     0.004 A 
ENDBRANCH   5   6
BRANCH   1  13
ATOM     13  C   UNL d   1      28.326  16.111 -23.712  0.00  0.00     0.231 C 
ATOM     14  O   UNL d   1      28.096  15.453 -24.000  0.00  0.00    -0.643 OA
ATOM     15  O   UNL d   1      27.842  16.553 -23.331  0.00  0.00    -0.643 OA
ENDBRANCH   1  13
TORSDOF 2
ENDMDL
MODEL 4
REMARK VINA RESULT:      -2.7      4.766      5.878
REMARK  2 active torsions:
REMARK  status: ('A' for Active; 'I' for Inactive)
REMARK    1  A    between atoms: C_6  and  C_1 
REMARK    2  A    between atoms: C_7  and  C_5 
ROOT
ATOM      1  C   UNL d   1      31.784  17.694 -24.530  0.00  0.00     0.169 A 
ATOM      2  C   UNL d   1      31.606  17.332 -23.893  0.00  0.00     0.048 A 
ATOM      3  N   UNL d   1      30.597  17.419 -25.019  0.00  0.00    -0.148 NA
ATOM      4  N   UNL d   1      31.283  17.742 -25.097  0.00  0.00    -0.142 NA
ATOM      5  C   UNL d   1      30.419  17.057 -24.382  0.00  0.00     0.105 A 
ENDROOT
BRANCH   5   6
ATOM      6  C   UNL d   1      29.757  16.654 -24.105  0.00  0.00     0.020 A 
ATOM      7  C   UNL d   1      29.818  15.863 -23.869  0.00  0.00     0.004 A 
ATOM      8  C   UNL d   1      29.151  15.459 -23.590  0.00  0.00     0.030 A 
ATOM      9  C   UNL d   1      28.421  15.847 -23.547  0.00  0.00     0.140 A 
ATOM     10  C   UNL d   1      28.363  16.646 -23.786  0.00  0.00     0.030 A 
ATOM     11  F   UNL d   1      27.761  15.453 -23.273  0.00  0.00    -0.204 F 
ATOM     12  C   UNL d   1      29.031  17.041 -24.063  0.00  0.00     0.004 A 
ENDBRANCH   5   6
BRANCH   1  13
ATOM     13  C   UNL d   1      32.470  18.016 -24.608  0.00  0.00     0.231 C 
ATOM     14  O   UNL d   1      32.567  18.746 -24.443  0.00  0.00    -0.643 OA
ATOM     15  O   UNL d   1      33.052  17.598 -24.852  0.00  0.00    -0.643 OA
ENDBRANCH   1  13
TORSDOF 2
ENDMDL
MODEL 5
REMARK VINA RESULT:      -2.6      2.694      3.819
REMARK  2 active torsions:
REMARK  status: ('A' for Active; 'I' for Inactive)
REMARK    1  A    between atoms: C_6  and  C_1 
REMARK    2  A    between atoms: C_7  and  C_5 
ROOT
ATOM      1  C   UNL d   1      32.712  21.740 -21.125  0.00  0.00     0.169 A 
ATOM      2  C   UNL d   1      32.495  21.036 -20.965  0.00  0.00     0.048 A 
ATOM      3  N   UNL d   1      33.224  21.324 -22.260  0.00  0.00    -0.148 NA
ATOM      4  N   UNL d   1      33.077  21.890 -21.773  0.00  0.00    -0.142 NA
ATOM      5  C   UNL d   1      33.007  20.620 -22.100  0.00  0.00     0.105 A 
ENDROOT
BRANCH   5   6
ATOM      6  C   UNL d   1      33.064  19.891 -22.476  0.00  0.00     0.020 A 
ATOM      7  C   UNL d   1      33.183  19.201 -22.035  0.00  0.00     0.004 A 
ATOM      8  C   UNL d   1      33.241  18.467 -22.415  0.00  0.00     0.030 A 
ATOM      9  C   UNL d   1      33.180  18.422 -23.239  0.00  0.00     0.140 A 
ATOM     10  C   UNL d   1      33.060  19.121 -23.682  0.00  0.00     0.030 A 
ATOM     11  F   UNL d   1      33.236  17.702 -23.618  0.00  0.00    -0.204 F 
ATOM     12  C   UNL d   1      33.004  19.848 -23.297  0.00  0.00     0.004 A 
ENDBRANCH   5   6
BRANCH   1  13
ATOM     13  C   UNL d   1      32.566  22.307 -20.638  0.00  0.00     0.231 C 
ATOM     14  O   UNL d   1      31.930  22.707 -20.701  0.00  0.00    -0.643 OA
ATOM     15  O   UNL d   1      33.064  22.464 -20.089  0.00  0.00    -0.643 OA
ENDBRANCH   1  13
TORSDOF 2
ENDMDL
MODEL 6
REMARK VINA RESULT:      -2.4      1.490      2.178
REMARK  2 active torsions:
REMARK  status: ('A' for Active; 'I' for Inactive)
REMARK    1  A    between atoms: C_6  and  C_1 
REMARK    2  A    between atoms: C_7  and  C_5 
ROOT
ATOM      1  C   UNL d   1      32.436  17.630 -23.437  0.00  0.00     0.169 A 
ATOM      2  C   UNL d   1      32.079  18.278 -23.586  0.00  0.00     0.048 A 
ATOM      3  N   UNL d   1      33.240  18.262 -22.613  0.00  0.00    -0.148 NA
ATOM      4  N   UNL d   1      33.018  17.617 -22.950  0.00  0.00    -0.142 NA
ATOM      5  C   UNL d   1      32.883  18.910 -22.762  0.00  0.00     0.105 A 
ENDROOT
BRANCH   5   6
ATOM      6  C   UNL d   1      32.961  19.690 -22.514  0.00  0.00     0.020 A 
ATOM      7  C   UNL d   1      33.158  20.283 -23.056  0.00  0.00     0.004 A 
ATOM      8  C   UNL d   1      33.237  21.068 -22.805  0.00  0.00     0.030 A 
ATOM      9  C   UNL d   1      33.118  21.262 -22.009  0.00  0.00     0.140 A 
ATOM     10  C   UNL d   1      32.919  20.661 -21.464  0.00  0.00     0.030 A 
ATOM     11  F   UNL d   1      33.194  22.035 -21.757  0.00  0.00    -0.204 F 
ATOM     12  C   UNL d   1      32.843  19.881 -21.721  0.00  0.00     0.004 A 
ENDBRANCH   5   6
BRANCH   1  13
ATOM     13  C   UNL d   1      32.214  16.985 -23.774  0.00  0.00     0.231 C 
ATOM     14  O   UNL d   1      32.634  16.679 -24.321  0.00  0.00    -0.643 OA
ATOM     15  O   UNL d   1      31.569  16.653 -23.556  0.00  0.00    -0.643 OA
ENDBRANCH   1  13
TORSDOF 2
ENDMDL
MODEL 7
REMARK VINA RESULT:      -2.0      3.000      4.709
REMARK  2 active torsions:
REMARK  status: ('A' for Active; 'I' for Inactive)
REMARK    1  A    between atoms: C_6  and  C_1 
REMARK    2  A    between atoms: C_7  and  C_5 
ROOT
ATOM      1  C   UNL d   1      33.040  19.886 -22.937  0.00  0.00     0.169 A 
ATOM      2  C   UNL d   1      32.711  19.325 -22.557  0.00  0.00     0.048 A 
ATOM      3  N   UNL d   1      33.107  19.124 -24.004  0.00  0.00    -0.148 NA
ATOM      4  N   UNL d   1      33.241  19.791 -23.663  0.00  0.00    -0.142 NA
ATOM      5  C   UNL d   1      32.777  18.563 -23.624  0.00  0.00     0.105 A 
ENDROOT
BRANCH   5   6
ATOM      6  C   UNL d   1      32.551  17.792 -23.800  0.00  0.00     0.020 A 
ATOM      7  C   UNL d   1      33.065  17.161 -23.650  0.00  0.00     0.004 A 
ATOM      8  C   UNL d   1      32.837  16.385 -23.828  0.00  0.00     0.030 A 
ATOM      9  C   UNL d   1      32.091  16.239 -24.157  0.00  0.00     0.140 A 
ATOM     10  C   UNL d   1      31.574  16.878 -24.307  0.00  0.00     0.030 A 
ATOM     11  F   UNL d   1      31.862  15.476 -24.334  0.00  0.00    -0.204 F 
ATOM     12  C   UNL d   1      31.809  17.648 -24.127  0.00  0.00     0.004 A 
ENDBRANCH   5   6
BRANCH   1  13
ATOM     13  C   UNL d   1      33.175  20.553 -22.595  0.00  0.00     0.231 C 
ATOM     14  O   UNL d   1      33.241  21.183 -23.005  0.00  0.00    -0.643 OA
ATOM     15  O   UNL d   1      33.241  20.579 -21.841  0.00  0.00    -0.643 OA
ENDBRANCH   1  13
TORSDOF 2
ENDMDL
MODEL 8
REMARK VINA RESULT:      -1.2      1.847      2.440
REMARK  2 active torsions:
REMARK  status: ('A' for Active; 'I' for Inactive)
REMARK    1  A    between atoms: C_6  and  C_1 
REMARK    2  A    between atoms: C_7  and  C_5 
ROOT
ATOM      1  C   UNL d   1      32.671  21.120 -21.733  0.00  0.00     0.169 A 
ATOM      2  C   UNL d   1      33.211  21.563 -21.451  0.00  0.00     0.048 A 
ATOM      3  N   UNL d   1      31.906  21.396 -20.702  0.00  0.00    -0.148 NA
ATOM      4  N   UNL d   1      32.015  21.032 -21.362  0.00  0.00    -0.142 NA
ATOM      5  C   UNL d   1      32.447  21.840 -20.420  0.00  0.00     0.105 A 
ENDROOT
BRANCH   5   6
ATOM      6  C   UNL d   1      32.528  22.305 -19.747  0.00  0.00     0.020 A 
ATOM      7  C   UNL d   1      31.987  22.911 -19.590  0.00  0.00     0.004 A 
ATOM      8  C   UNL d   1      32.070  23.379 -18.912  0.00  0.00     0.030 A 
ATOM      9  C   UNL d   1      32.696  23.242 -18.388  0.00  0.00     0.140 A 
ATOM     10  C   UNL d   1      33.241  22.629 -18.550  0.00  0.00     0.030 A 
ATOM     11  F   UNL d   1      32.782  23.701 -17.719  0.00  0.00    -0.204 F 
ATOM     12  C   UNL d   1      33.152  22.167 -19.227  0.00  0.00     0.004 A 
ENDBRANCH   5   6
BRANCH   1  13
ATOM     13  C   UNL d   1      32.780  20.756 -22.393  0.00  0.00     0.231 C 
ATOM     14  O   UNL d   1      32.952  21.144 -23.016  0.00  0.00    -0.643 OA
ATOM     15  O   UNL d   1      32.713  20.001 -22.418  0.00  0.00    -0.643 OA
ENDBRANCH   1  13
TORSDOF 2
ENDMDL
