MODEL 1
REMARK VINA RESULT:      -9.5      0.000      0.000
REMARK  1 active torsions:
REMARK  status: ('A' for Active; 'I' for Inactive)
REMARK    1  A    between atoms: N_11  and  C_7 
ROOT
ATOM      1  C   UNL d   1      52.641  32.147  52.947  0.00  0.00     0.201 A 
ATOM      2  C   UNL d   1      53.067  32.548  53.532  0.00  0.00     0.141 A 
ATOM      3  N   UNL d   1      52.742  31.336  52.846  0.00  0.00    -0.036 NA
ATOM      4  C   UNL d   1      52.858  33.345  53.507  0.00  0.00     0.040 A 
ATOM      5  N   UNL d   1      52.166  32.699  52.558  0.00  0.00    -0.225 NA
ATOM      6  N   UNL d   1      53.598  32.136  54.021  0.00  0.00    -0.129 NA
ATOM      7  C   UNL d   1      53.271  30.919  53.331  0.00  0.00     0.788 A 
ATOM      8  C   UNL d   1      52.302  33.438  52.907  0.00  0.00     0.085 A 
ATOM      9  N   UNL d   1      53.695  31.321  53.914  0.00  0.00     0.048 NA
ATOM     10  C   UNL d   1      53.098  33.995  53.950  0.00  0.00     0.003 A 
ATOM     11  C   UNL d   1      51.981  34.182  52.743  0.00  0.00     0.019 A 
ATOM     12  C   UNL d   1      52.783  34.737  53.792  0.00  0.00     0.000 A 
ATOM     13  C   UNL d   1      52.222  34.831  53.185  0.00  0.00     0.002 A 
ATOM     14  C   UNL d   1      53.023  35.399  54.237  0.00  0.00     0.000 C 
ENDROOT
BRANCH   7  15
ATOM     15  N   UNL d   1      53.367  30.105  53.224  0.00  0.00     0.069 NA
ATOM     16  N   UNL d   1      53.280  29.524  53.802  0.00  0.00    -0.006 N 
ENDBRANCH   7  15
TORSDOF 1
ENDMDL
MODEL 2
REMARK VINA RESULT:      -9.1      1.492      3.441
REMARK  1 active torsions:
REMARK  status: ('A' for Active; 'I' for Inactive)
REMARK    1  A    between atoms: N_11  and  C_7 
ROOT
ATOM      1  C   UNL d   1      53.161  32.964  53.508  0.00  0.00     0.201 A 
ATOM      2  C   UNL d   1      53.465  32.429  54.061  0.00  0.00     0.141 A 
ATOM      3  N   UNL d   1      53.216  33.774  53.646  0.00  0.00    -0.036 NA
ATOM      4  C   UNL d   1      53.335  31.664  53.782  0.00  0.00     0.040 A 
ATOM      5  N   UNL d   1      52.841  32.528  52.885  0.00  0.00    -0.225 NA
ATOM      6  N   UNL d   1      53.828  32.704  54.757  0.00  0.00    -0.129 NA
ATOM      7  C   UNL d   1      53.576  34.055  54.338  0.00  0.00     0.788 A 
ATOM      8  C   UNL d   1      52.950  31.725  53.057  0.00  0.00     0.085 A 
ATOM      9  N   UNL d   1      53.879  33.520  54.888  0.00  0.00     0.048 NA
ATOM     10  C   UNL d   1      53.515  30.923  54.092  0.00  0.00     0.003 A 
ATOM     11  C   UNL d   1      52.741  31.046  52.634  0.00  0.00     0.019 A 
ATOM     12  C   UNL d   1      53.310  30.245  53.676  0.00  0.00     0.000 A 
ATOM     13  C   UNL d   1      52.921  30.307  52.943  0.00  0.00     0.002 A 
ATOM     14  C   UNL d   1      53.490  29.492  53.985  0.00  0.00     0.000 C 
ENDROOT
BRANCH   7  15
ATOM     15  N   UNL d   1      53.627  34.870  54.469  0.00  0.00     0.069 NA
ATOM     16  N   UNL d   1      52.997  35.401  54.493  0.00  0.00    -0.006 N 
ENDBRANCH   7  15
TORSDOF 1
ENDMDL
MODEL 3
REMARK VINA RESULT:      -9.1      1.574      3.084
REMARK  1 active torsions:
REMARK  status: ('A' for Active; 'I' for Inactive)
REMARK    1  A    between atoms: N_11  and  C_7 
ROOT
ATOM      1  C   UNL d   1      52.236  33.233  53.077  0.00  0.00     0.201 A 
ATOM      2  C   UNL d   1      52.576  33.814  53.557  0.00  0.00     0.141 A 
ATOM      3  N   UNL d   1      51.545  33.397  52.658  0.00  0.00    -0.036 NA
ATOM      4  C   UNL d   1      53.254  33.501  53.906  0.00  0.00     0.040 A 
ATOM      5  N   UNL d   1      52.706  32.557  53.128  0.00  0.00    -0.225 NA
ATOM      6  N   UNL d   1      52.224  34.565  53.620  0.00  0.00    -0.129 NA
ATOM      7  C   UNL d   1      51.190  34.143  52.717  0.00  0.00     0.788 A 
ATOM      8  C   UNL d   1      53.334  32.725  53.641  0.00  0.00     0.085 A 
ATOM      9  N   UNL d   1      51.531  34.722  53.196  0.00  0.00     0.048 NA
ATOM     10  C   UNL d   1      53.807  33.818  54.426  0.00  0.00     0.003 A 
ATOM     11  C   UNL d   1      53.968  32.258  53.894  0.00  0.00     0.019 A 
ATOM     12  C   UNL d   1      54.438  33.359  54.682  0.00  0.00     0.000 A 
ATOM     13  C   UNL d   1      54.519  32.575  54.414  0.00  0.00     0.002 A 
ATOM     14  C   UNL d   1      55.001  33.675  55.209  0.00  0.00     0.000 C 
ENDROOT
BRANCH   7  15
ATOM     15  N   UNL d   1      50.498  34.300  52.294  0.00  0.00     0.069 NA
ATOM     16  N   UNL d   1      49.774  34.532  52.612  0.00  0.00    -0.006 N 
ENDBRANCH   7  15
TORSDOF 1
ENDMDL
MODEL 4
REMARK VINA RESULT:      -8.1      1.614      2.690
REMARK  1 active torsions:
REMARK  status: ('A' for Active; 'I' for Inactive)
REMARK    1  A    between atoms: N_11  and  C_7 
ROOT
ATOM      1  C   UNL d   1      53.296  33.180  54.075  0.00  0.00     0.201 A 
ATOM      2  C   UNL d   1      52.871  33.890  54.079  0.00  0.00     0.141 A 
ATOM      3  N   UNL d   1      53.998  33.119  54.501  0.00  0.00    -0.036 NA
ATOM      4  C   UNL d   1      52.199  33.795  53.611  0.00  0.00     0.040 A 
ATOM      5  N   UNL d   1      52.885  32.643  53.603  0.00  0.00    -0.225 NA
ATOM      6  N   UNL d   1      53.149  34.544  54.511  0.00  0.00    -0.129 NA
ATOM      7  C   UNL d   1      54.281  33.767  54.933  0.00  0.00     0.788 A 
ATOM      8  C   UNL d   1      52.207  33.025  53.318  0.00  0.00     0.085 A 
ATOM      9  N   UNL d   1      53.856  34.475  54.936  0.00  0.00     0.048 NA
ATOM     10  C   UNL d   1      51.583  34.304  53.415  0.00  0.00     0.003 A 
ATOM     11  C   UNL d   1      51.600  32.756  52.825  0.00  0.00     0.019 A 
ATOM     12  C   UNL d   1      50.977  34.043  52.925  0.00  0.00     0.000 A 
ATOM     13  C   UNL d   1      50.985  33.265  52.629  0.00  0.00     0.002 A 
ATOM     14  C   UNL d   1      50.351  34.554  52.723  0.00  0.00     0.000 C 
ENDROOT
BRANCH   7  15
ATOM     15  N   UNL d   1      54.987  33.698  55.358  0.00  0.00     0.069 NA
ATOM     16  N   UNL d   1      55.717  34.015  55.146  0.00  0.00    -0.006 N 
ENDBRANCH   7  15
TORSDOF 1
ENDMDL
MODEL 5
REMARK VINA RESULT:      -7.6      1.825      2.799
REMARK  1 active torsions:
REMARK  status: ('A' for Active; 'I' for Inactive)
REMARK    1  A    between atoms: N_11  and  C_7 
ROOT
ATOM      1  C   UNL d   1      53.411  34.378  54.273  0.00  0.00     0.201 A 
ATOM      2  C   UNL d   1      53.038  33.643  54.201  0.00  0.00     0.141 A 
ATOM      3  N   UNL d   1      54.121  34.441  54.685  0.00  0.00    -0.036 NA
ATOM      4  C   UNL d   1      52.345  33.743  53.766  0.00  0.00     0.040 A 
ATOM      5  N   UNL d   1      52.946  34.936  53.881  0.00  0.00    -0.225 NA
ATOM      6  N   UNL d   1      53.377  32.965  54.543  0.00  0.00    -0.129 NA
ATOM      7  C   UNL d   1      54.464  33.769  55.028  0.00  0.00     0.788 A 
ATOM      8  C   UNL d   1      52.288  34.541  53.568  0.00  0.00     0.085 A 
ATOM      9  N   UNL d   1      54.091  33.036  54.955  0.00  0.00     0.048 NA
ATOM     10  C   UNL d   1      51.761  33.217  53.525  0.00  0.00     0.003 A 
ATOM     11  C   UNL d   1      51.647  34.820  53.128  0.00  0.00     0.019 A 
ATOM     12  C   UNL d   1      51.121  33.488  53.086  0.00  0.00     0.000 A 
ATOM     13  C   UNL d   1      51.063  34.294  52.887  0.00  0.00     0.002 A 
ATOM     14  C   UNL d   1      50.526  32.960  52.840  0.00  0.00     0.000 C 
ENDROOT
BRANCH   7  15
ATOM     15  N   UNL d   1      55.177  33.840  55.440  0.00  0.00     0.069 NA
ATOM     16  N   UNL d   1      55.923  33.953  55.107  0.00  0.00    -0.006 N 
ENDBRANCH   7  15
TORSDOF 1
ENDMDL
MODEL 6
REMARK VINA RESULT:      -7.3      1.894      3.150
REMARK  1 active torsions:
REMARK  status: ('A' for Active; 'I' for Inactive)
REMARK    1  A    between atoms: N_11  and  C_7 
ROOT
ATOM      1  C   UNL d   1      51.917  34.446  53.551  0.00  0.00     0.201 A 
ATOM      2  C   UNL d   1      52.189  33.690  53.748  0.00  0.00     0.141 A 
ATOM      3  N   UNL d   1      51.209  34.535  53.138  0.00  0.00    -0.036 NA
ATOM      4  C   UNL d   1      52.902  33.767  54.155  0.00  0.00     0.040 A 
ATOM      5  N   UNL d   1      52.464  34.993  53.837  0.00  0.00    -0.225 NA
ATOM      6  N   UNL d   1      51.752  33.017  53.532  0.00  0.00    -0.129 NA
ATOM      7  C   UNL d   1      50.769  33.867  52.920  0.00  0.00     0.788 A 
ATOM      8  C   UNL d   1      53.071  34.571  54.210  0.00  0.00     0.085 A 
ATOM      9  N   UNL d   1      51.042  33.114  53.117  0.00  0.00     0.048 NA
ATOM     10  C   UNL d   1      53.416  33.214  54.482  0.00  0.00     0.003 A 
ATOM     11  C   UNL d   1      53.757  34.831  54.592  0.00  0.00     0.019 A 
ATOM     12  C   UNL d   1      54.100  33.466  54.862  0.00  0.00     0.000 A 
ATOM     13  C   UNL d   1      54.271  34.278  54.918  0.00  0.00     0.002 A 
ATOM     14  C   UNL d   1      54.624  32.911  55.194  0.00  0.00     0.000 C 
ENDROOT
BRANCH   7  15
ATOM     15  N   UNL d   1      50.060  33.964  52.506  0.00  0.00     0.069 NA
ATOM     16  N   UNL d   1      49.891  34.559  51.962  0.00  0.00    -0.006 N 
ENDBRANCH   7  15
TORSDOF 1
ENDMDL
