MODEL 1
REMARK VINA RESULT:      -8.8      0.000      0.000
REMARK  5 active torsions:
REMARK  status: ('A' for Active; 'I' for Inactive)
REMARK    1  A    between atoms: N_6  and  S_1 
REMARK    2  A    between atoms: C_16  and  S_1 
REMARK    3  A    between atoms: N_2  and  C_15 
REMARK       I    between atoms: C_9  and  N_8 
REMARK    4  A    between atoms: C_10  and  C_9 
REMARK    5  A    between atoms: C_15  and  C_10 
ROOT
ATOM      1  N   UNL d   1      51.985  33.908  53.385  0.00  0.00    -0.226 N 
ATOM      2  N   UNL d   1      50.624  34.292  52.544  0.00  0.00    -0.269 N 
ATOM      3  C   UNL d   1      49.938  34.488  52.130  0.00  0.00     0.267 C 
ATOM      4  C   UNL d   1      51.934  33.715  52.572  0.00  0.00     0.111 A 
ATOM      5  C   UNL d   1      51.360  34.288  53.764  0.00  0.00     0.111 A 
ATOM      6  C   UNL d   1      50.677  34.480  53.342  0.00  0.00     0.103 A 
ATOM      7  C   UNL d   1      51.252  33.907  52.150  0.00  0.00     0.103 A 
ATOM      8  O   UNL d   1      49.878  34.301  51.328  0.00  0.00    -0.267 OA
ENDROOT
BRANCH   3   9
ATOM      9  C   UNL d   1      49.318  34.867  52.515  0.00  0.00     0.082 C 
BRANCH   9  10
ATOM     10  C   UNL d   1      48.730  35.237  52.070  0.00  0.00     0.105 C 
BRANCH  10  11
ATOM     11  N   UNL d   1      48.130  35.658  52.457  0.00  0.00    -0.228 N 
ATOM     12  N   UNL d   1      48.153  35.952  53.226  0.00  0.00    -0.165 NA
ATOM     13  C   UNL d   1      47.439  36.334  53.385  0.00  0.00     0.103 A 
ATOM     14  C   UNL d   1      47.228  36.709  54.094  0.00  0.00     0.022 C 
ATOM     15  C   UNL d   1      46.968  36.277  52.711  0.00  0.00     0.037 A 
ATOM     16  C   UNL d   1      47.392  35.860  52.135  0.00  0.00     0.084 A 
ATOM     17  C   UNL d   1      46.209  36.582  52.623  0.00  0.00     0.003 C 
ATOM     18  C   UNL d   1      47.121  35.680  51.376  0.00  0.00     0.021 C 
ENDBRANCH  10  11
ENDBRANCH   9  10
ENDBRANCH   3   9
BRANCH   1  19
ATOM     19  S   UNL d   1      52.670  33.715  53.809  0.00  0.00     0.271 S 
ATOM     20  O   UNL d   1      52.549  34.373  54.305  0.00  0.00    -0.200 OA
ATOM     21  O   UNL d   1      52.790  33.064  53.318  0.00  0.00    -0.200 OA
BRANCH  19  22
ATOM     22  C   UNL d   1      53.359  33.520  54.234  0.00  0.00     0.104 A 
ATOM     23  C   UNL d   1      53.483  32.733  54.465  0.00  0.00     0.013 A 
ATOM     24  C   UNL d   1      54.172  32.539  54.891  0.00  0.00     0.001 A 
ATOM     25  C   UNL d   1      54.724  33.136  55.078  0.00  0.00     0.000 A 
ATOM     26  C   UNL d   1      54.584  33.919  54.839  0.00  0.00     0.001 A 
ATOM     27  C   UNL d   1      53.900  34.107  54.417  0.00  0.00     0.013 A 
ENDBRANCH  19  22
ENDBRANCH   1  19
TORSDOF 5
ENDMDL
MODEL 2
REMARK VINA RESULT:      -7.6      1.441      5.923
REMARK  5 active torsions:
REMARK  status: ('A' for Active; 'I' for Inactive)
REMARK    1  A    between atoms: N_6  and  S_1 
REMARK    2  A    between atoms: C_16  and  S_1 
REMARK    3  A    between atoms: N_2  and  C_15 
REMARK       I    between atoms: C_9  and  N_8 
REMARK    4  A    between atoms: C_10  and  C_9 
REMARK    5  A    between atoms: C_15  and  C_10 
ROOT
ATOM      1  N   UNL d   1      48.738  35.204  52.362  0.00  0.00    -0.226 N 
ATOM      2  N   UNL d   1      50.201  34.457  52.284  0.00  0.00    -0.269 N 
ATOM      3  C   UNL d   1      50.937  34.084  52.254  0.00  0.00     0.267 C 
ATOM      4  C   UNL d   1      48.972  34.831  51.650  0.00  0.00     0.111 A 
ATOM      5  C   UNL d   1      49.233  35.199  53.020  0.00  0.00     0.111 A 
ATOM      6  C   UNL d   1      49.967  34.824  52.981  0.00  0.00     0.103 A 
ATOM      7  C   UNL d   1      49.706  34.456  51.611  0.00  0.00     0.103 A 
ATOM      8  O   UNL d   1      51.178  33.713  51.557  0.00  0.00    -0.267 OA
ENDROOT
BRANCH   3   9
ATOM      9  C   UNL d   1      51.425  34.083  52.915  0.00  0.00     0.082 C 
BRANCH   9  10
ATOM     10  C   UNL d   1      52.065  33.563  52.945  0.00  0.00     0.105 C 
BRANCH  10  11
ATOM     11  N   UNL d   1      52.609  33.621  53.568  0.00  0.00    -0.228 N 
ATOM     12  N   UNL d   1      52.706  34.260  54.078  0.00  0.00    -0.165 NA
ATOM     13  C   UNL d   1      53.308  34.082  54.614  0.00  0.00     0.103 A 
ATOM     14  C   UNL d   1      53.586  34.571  55.224  0.00  0.00     0.022 C 
ATOM     15  C   UNL d   1      53.587  33.327  54.437  0.00  0.00     0.037 A 
ATOM     16  C   UNL d   1      53.157  33.038  53.791  0.00  0.00     0.084 A 
ATOM     17  C   UNL d   1      54.187  32.927  54.832  0.00  0.00     0.003 C 
ATOM     18  C   UNL d   1      53.261  32.301  53.436  0.00  0.00     0.021 C 
ENDBRANCH  10  11
ENDBRANCH   9  10
ENDBRANCH   3   9
BRANCH   1  19
ATOM     19  S   UNL d   1      48.000  35.581  52.402  0.00  0.00     0.271 S 
ATOM     20  O   UNL d   1      47.785  35.236  51.675  0.00  0.00    -0.200 OA
ATOM     21  O   UNL d   1      48.213  35.923  53.121  0.00  0.00    -0.200 OA
BRANCH  19  22
ATOM     22  C   UNL d   1      47.259  35.960  52.441  0.00  0.00     0.104 A 
ATOM     23  C   UNL d   1      46.766  35.952  51.774  0.00  0.00     0.013 A 
ATOM     24  C   UNL d   1      46.025  36.330  51.813  0.00  0.00     0.001 A 
ATOM     25  C   UNL d   1      45.792  36.709  52.519  0.00  0.00     0.000 A 
ATOM     26  C   UNL d   1      46.299  36.707  53.177  0.00  0.00     0.001 A 
ATOM     27  C   UNL d   1      47.032  36.331  53.134  0.00  0.00     0.013 A 
ENDBRANCH  19  22
ENDBRANCH   1  19
TORSDOF 5
ENDMDL
MODEL 3
REMARK VINA RESULT:      -7.2      1.513      2.130
REMARK  5 active torsions:
REMARK  status: ('A' for Active; 'I' for Inactive)
REMARK    1  A    between atoms: N_6  and  S_1 
REMARK    2  A    between atoms: C_16  and  S_1 
REMARK    3  A    between atoms: N_2  and  C_15 
REMARK       I    between atoms: C_9  and  N_8 
REMARK    4  A    between atoms: C_10  and  C_9 
REMARK    5  A    between atoms: C_15  and  C_10 
ROOT
ATOM      1  N   UNL d   1      52.033  32.703  53.195  0.00  0.00    -0.226 N 
ATOM      2  N   UNL d   1      51.121  34.071  53.151  0.00  0.00    -0.269 N 
ATOM      3  C   UNL d   1      50.656  34.752  53.126  0.00  0.00     0.267 C 
ATOM      4  C   UNL d   1      52.355  33.422  53.477  0.00  0.00     0.111 A 
ATOM      5  C   UNL d   1      51.266  32.677  52.897  0.00  0.00     0.111 A 
ATOM      6  C   UNL d   1      50.808  33.363  52.875  0.00  0.00     0.103 A 
ATOM      7  C   UNL d   1      51.898  34.108  53.455  0.00  0.00     0.103 A 
ATOM      8  O   UNL d   1      50.964  35.467  53.402  0.00  0.00    -0.267 OA
ENDROOT
BRANCH   3   9
ATOM      9  C   UNL d   1      49.891  34.718  52.827  0.00  0.00     0.082 C 
BRANCH   9  10
ATOM     10  C   UNL d   1      49.340  35.288  53.057  0.00  0.00     0.105 C 
BRANCH  10  11
ATOM     11  N   UNL d   1      48.660  35.407  52.599  0.00  0.00    -0.228 N 
ATOM     12  N   UNL d   1      48.506  35.086  51.856  0.00  0.00    -0.165 NA
ATOM     13  C   UNL d   1      47.765  35.349  51.603  0.00  0.00     0.103 A 
ATOM     14  C   UNL d   1      47.394  35.159  50.886  0.00  0.00     0.022 C 
ATOM     15  C   UNL d   1      47.457  35.836  52.191  0.00  0.00     0.037 A 
ATOM     16  C   UNL d   1      48.008  35.875  52.809  0.00  0.00     0.084 A 
ATOM     17  C   UNL d   1      46.730  36.219  52.171  0.00  0.00     0.003 C 
ATOM     18  C   UNL d   1      47.916  36.305  53.507  0.00  0.00     0.021 C 
ENDBRANCH  10  11
ENDBRANCH   9  10
ENDBRANCH   3   9
BRANCH   1  19
ATOM     19  S   UNL d   1      52.493  32.013  53.216  0.00  0.00     0.271 S 
ATOM     20  O   UNL d   1      52.388  31.917  52.396  0.00  0.00    -0.200 OA
ATOM     21  O   UNL d   1      52.597  32.108  54.028  0.00  0.00    -0.200 OA
BRANCH  19  22
ATOM     22  C   UNL d   1      52.955  31.320  53.238  0.00  0.00     0.104 A 
ATOM     23  C   UNL d   1      52.586  30.585  53.127  0.00  0.00     0.013 A 
ATOM     24  C   UNL d   1      53.048  29.893  53.149  0.00  0.00     0.001 A 
ATOM     25  C   UNL d   1      53.870  29.948  53.282  0.00  0.00     0.000 A 
ATOM     26  C   UNL d   1      54.222  30.693  53.391  0.00  0.00     0.001 A 
ATOM     27  C   UNL d   1      53.761  31.377  53.368  0.00  0.00     0.013 A 
ENDBRANCH  19  22
ENDBRANCH   1  19
TORSDOF 5
ENDMDL
MODEL 4
REMARK VINA RESULT:      -7.2      1.894      6.046
REMARK  5 active torsions:
REMARK  status: ('A' for Active; 'I' for Inactive)
REMARK    1  A    between atoms: N_6  and  S_1 
REMARK    2  A    between atoms: C_16  and  S_1 
REMARK    3  A    between atoms: N_2  and  C_15 
REMARK       I    between atoms: C_9  and  N_8 
REMARK    4  A    between atoms: C_10  and  C_9 
REMARK    5  A    between atoms: C_15  and  C_10 
ROOT
ATOM      1  N   UNL d   1      50.145  34.585  52.776  0.00  0.00    -0.226 N 
ATOM      2  N   UNL d   1      51.588  33.812  52.939  0.00  0.00    -0.269 N 
ATOM      3  C   UNL d   1      52.307  33.416  53.021  0.00  0.00     0.267 C 
ATOM      4  C   UNL d   1      50.856  35.027  52.738  0.00  0.00     0.111 A 
ATOM      5  C   UNL d   1      50.165  33.771  52.894  0.00  0.00     0.111 A 
ATOM      6  C   UNL d   1      50.888  33.383  52.975  0.00  0.00     0.103 A 
ATOM      7  C   UNL d   1      51.579  34.638  52.820  0.00  0.00     0.103 A 
ATOM      8  O   UNL d   1      53.013  33.841  52.986  0.00  0.00    -0.267 OA
ENDROOT
BRANCH   3   9
ATOM      9  C   UNL d   1      52.318  32.602  53.138  0.00  0.00     0.082 C 
BRANCH   9  10
ATOM     10  C   UNL d   1      53.039  32.220  53.259  0.00  0.00     0.105 C 
BRANCH  10  11
ATOM     11  N   UNL d   1      53.061  31.392  53.292  0.00  0.00    -0.228 N 
ATOM     12  N   UNL d   1      52.750  30.869  52.737  0.00  0.00    -0.165 NA
ATOM     13  C   UNL d   1      52.896  30.097  52.989  0.00  0.00     0.103 A 
ATOM     14  C   UNL d   1      52.677  29.400  52.596  0.00  0.00     0.022 C 
ATOM     15  C   UNL d   1      53.301  30.139  53.706  0.00  0.00     0.037 A 
ATOM     16  C   UNL d   1      53.406  30.939  53.896  0.00  0.00     0.084 A 
ATOM     17  C   UNL d   1      53.559  29.500  54.155  0.00  0.00     0.003 C 
ATOM     18  C   UNL d   1      53.786  31.225  54.570  0.00  0.00     0.021 C 
ENDBRANCH  10  11
ENDBRANCH   9  10
ENDBRANCH   3   9
BRANCH   1  19
ATOM     19  S   UNL d   1      49.418  34.975  52.694  0.00  0.00     0.271 S 
ATOM     20  O   UNL d   1      49.307  34.612  51.953  0.00  0.00    -0.200 OA
ATOM     21  O   UNL d   1      49.528  35.334  53.428  0.00  0.00    -0.200 OA
BRANCH  19  22
ATOM     22  C   UNL d   1      48.688  35.367  52.612  0.00  0.00     0.104 A 
ATOM     23  C   UNL d   1      48.383  35.792  53.256  0.00  0.00     0.013 A 
ATOM     24  C   UNL d   1      47.652  36.184  53.174  0.00  0.00     0.001 A 
ATOM     25  C   UNL d   1      47.241  36.143  52.449  0.00  0.00     0.000 A 
ATOM     26  C   UNL d   1      47.561  35.713  51.815  0.00  0.00     0.001 A 
ATOM     27  C   UNL d   1      48.285  35.326  51.900  0.00  0.00     0.013 A 
ENDBRANCH  19  22
ENDBRANCH   1  19
TORSDOF 5
ENDMDL
