MODEL 1
REMARK VINA RESULT:      -3.8      0.000      0.000
REMARK  5 active torsions:
REMARK  status: ('A' for Active; 'I' for Inactive)
REMARK    1  A    between atoms: C_7  and  C_1 
REMARK    2  A    between atoms: C_6  and  O_13 
REMARK    3  A    between atoms: C_12  and  C_6 
REMARK    4  A    between atoms: O_13  and  C_10 
REMARK    5  A    between atoms: C_28  and  C_14 
ROOT
ATOM      1  C   UNL d   1      56.595  -0.629  32.140  0.00  0.00     0.064 A 
ATOM      2  C   UNL d   1      57.476  -0.461  31.034  0.00  0.00     0.062 A 
ATOM      3  C   UNL d   1      57.024  -0.136  31.640  0.00  0.00     0.199 A 
ATOM      4  C   UNL d   1      56.618  -1.446  32.035  0.00  0.00     0.126 A 
ATOM      5  C   UNL d   1      57.500  -1.278  30.928  0.00  0.00     0.105 A 
ATOM      6  O   UNL d   1      57.070  -1.772  31.429  0.00  0.00    -0.305 OA
ATOM      7  C   UNL d   1      57.905   0.032  30.534  0.00  0.00     0.007 A 
ATOM      8  C   UNL d   1      58.384  -1.110  29.819  0.00  0.00     0.105 A 
ATOM      9  C   UNL d   1      57.952  -1.604  30.322  0.00  0.00     0.050 A 
ATOM     10  C   UNL d   1      58.361  -0.293  29.924  0.00  0.00     0.023 A 
ATOM     11  O   UNL d   1      57.000   0.682  31.746  0.00  0.00    -0.286 OA
ENDROOT
BRANCH   1  12
ATOM     12  C   UNL d   1      56.142  -0.304  32.747  0.00  0.00     0.007 A 
ATOM     13  C   UNL d   1      56.432  -0.294  33.529  0.00  0.00     0.027 A 
ATOM     14  C   UNL d   1      55.986   0.027  34.133  0.00  0.00     0.123 A 
ATOM     15  O   UNL d   1      56.278   0.034  34.902  0.00  0.00    -0.301 OA
ATOM     16  C   UNL d   1      55.232   0.350  33.970  0.00  0.00     0.123 A 
ATOM     17  C   UNL d   1      55.825   0.360  35.513  0.00  0.00     0.149 A 
ATOM     18  C   UNL d   1      55.080   0.680  35.357  0.00  0.00     0.149 A 
ATOM     19  O   UNL d   1      54.782   0.674  34.578  0.00  0.00    -0.301 OA
ATOM     20  C   UNL d   1      54.942   0.340  33.188  0.00  0.00     0.027 A 
ATOM     21  C   UNL d   1      55.395   0.015  32.582  0.00  0.00     0.002 A 
ENDBRANCH   1  12
BRANCH  10  22
ATOM     22  C   UNL d   1      58.795   0.202  29.417  0.00  0.00     0.002 C 
ATOM     23  C   UNL d   1      59.404   0.668  29.717  0.00  0.00     0.000 C 
ENDBRANCH  10  22
BRANCH   8  24
ATOM     24  O   UNL d   1      58.842  -1.434  29.206  0.00  0.00    -0.271 OA
BRANCH  24  25
ATOM     25  C   UNL d   1      58.819  -2.245  29.057  0.00  0.00     0.323 C 
ATOM     26  O   UNL d   1      58.103  -2.644  29.025  0.00  0.00    -0.257 OA
BRANCH  25  27
ATOM     27  C   UNL d   1      59.525  -2.662  28.940  0.00  0.00     0.163 A 
ATOM     28  O   UNL d   1      60.281  -2.340  28.909  0.00  0.00    -0.300 OA
ATOM     29  C   UNL d   1      60.824  -2.949  28.784  0.00  0.00     0.123 A 
ATOM     30  C   UNL d   1      60.393  -3.658  28.737  0.00  0.00     0.029 A 
ATOM     31  C   UNL d   1      59.589  -3.474  28.834  0.00  0.00     0.032 A 
ENDBRANCH  25  27
ENDBRANCH  24  25
ENDBRANCH   8  24
TORSDOF 5
ENDMDL
MODEL 2
REMARK VINA RESULT:      -0.9      1.464      1.818
REMARK  5 active torsions:
REMARK  status: ('A' for Active; 'I' for Inactive)
REMARK    1  A    between atoms: C_7  and  C_1 
REMARK    2  A    between atoms: C_6  and  O_13 
REMARK    3  A    between atoms: C_12  and  C_6 
REMARK    4  A    between atoms: O_13  and  C_10 
REMARK    5  A    between atoms: C_28  and  C_14 
ROOT
ATOM      1  C   UNL d   1      57.387   0.616  32.337  0.00  0.00     0.064 A 
ATOM      2  C   UNL d   1      57.939   0.532  31.026  0.00  0.00     0.062 A 
ATOM      3  C   UNL d   1      57.282   0.547  31.523  0.00  0.00     0.199 A 
ATOM      4  C   UNL d   1      58.147   0.668  32.653  0.00  0.00     0.126 A 
ATOM      5  C   UNL d   1      58.698   0.584  31.342  0.00  0.00     0.105 A 
ATOM      6  O   UNL d   1      58.803   0.652  32.156  0.00  0.00    -0.305 OA
ATOM      7  C   UNL d   1      57.834   0.463  30.212  0.00  0.00     0.007 A 
ATOM      8  C   UNL d   1      59.251   0.500  30.027  0.00  0.00     0.105 A 
ATOM      9  C   UNL d   1      59.354   0.569  30.845  0.00  0.00     0.050 A 
ATOM     10  C   UNL d   1      58.492   0.448  29.711  0.00  0.00     0.023 A 
ATOM     11  O   UNL d   1      56.522   0.495  31.207  0.00  0.00    -0.286 OA
ENDROOT
BRANCH   1  12
ATOM     12  C   UNL d   1      56.731   0.631  32.835  0.00  0.00     0.007 A 
ATOM     13  C   UNL d   1      56.831   0.634  33.663  0.00  0.00     0.027 A 
ATOM     14  C   UNL d   1      56.184   0.649  34.159  0.00  0.00     0.123 A 
ATOM     15  O   UNL d   1      56.290   0.652  34.976  0.00  0.00    -0.301 OA
ATOM     16  C   UNL d   1      55.411   0.663  33.839  0.00  0.00     0.123 A 
ATOM     17  C   UNL d   1      55.632   0.668  35.477  0.00  0.00     0.149 A 
ATOM     18  C   UNL d   1      54.868   0.681  35.165  0.00  0.00     0.149 A 
ATOM     19  O   UNL d   1      54.758   0.678  34.339  0.00  0.00    -0.301 OA
ATOM     20  C   UNL d   1      55.311   0.660  33.011  0.00  0.00     0.027 A 
ATOM     21  C   UNL d   1      55.967   0.644  32.514  0.00  0.00     0.002 A 
ENDBRANCH   1  12
BRANCH  10  22
ATOM     22  C   UNL d   1      58.390   0.379  28.889  0.00  0.00     0.002 C 
ATOM     23  C   UNL d   1      57.691   0.633  28.537  0.00  0.00     0.000 C 
ENDBRANCH  10  22
BRANCH   8  24
ATOM     24  O   UNL d   1      59.911   0.484  29.521  0.00  0.00    -0.271 OA
BRANCH  24  25
ATOM     25  C   UNL d   1      60.597   0.088  29.750  0.00  0.00     0.323 C 
ATOM     26  O   UNL d   1      61.104   0.418  30.305  0.00  0.00    -0.257 OA
BRANCH  25  27
ATOM     27  C   UNL d   1      60.778  -0.648  29.418  0.00  0.00     0.163 A 
ATOM     28  O   UNL d   1      60.761  -0.839  28.618  0.00  0.00    -0.300 OA
ATOM     29  C   UNL d   1      60.979  -1.630  28.529  0.00  0.00     0.123 A 
ATOM     30  C   UNL d   1      61.133  -1.930  29.287  0.00  0.00     0.029 A 
ATOM     31  C   UNL d   1      61.007  -1.318  29.835  0.00  0.00     0.032 A 
ENDBRANCH  25  27
ENDBRANCH  24  25
ENDBRANCH   8  24
TORSDOF 5
ENDMDL
