MODEL 1
REMARK VINA RESULT:      33.2      0.000      0.000
REMARK  7 active torsions:
REMARK  status: ('A' for Active; 'I' for Inactive)
REMARK    1  A    between atoms: C_2  and  S_1 
REMARK    2  A    between atoms: N_4  and  S_1 
REMARK    3  A    between atoms: C_13  and  N_4 
REMARK    4  A    between atoms: C_14  and  N_4 
REMARK    5  A    between atoms: O_12  and  C_7 
REMARK    6  A    between atoms: C_16  and  C_13 
REMARK    7  A    between atoms: C_17  and  C_14 
ROOT
ATOM      1  S   UNL d   1     -52.425  24.113  34.105  0.00  0.00     0.271 S 
ATOM      2  O   UNL d   1     -52.235  24.184  34.905  0.00  0.00    -0.200 OA
ATOM      3  O   UNL d   1     -52.614  24.042  33.306  0.00  0.00    -0.200 OA
ENDROOT
BRANCH   1   4
ATOM      4  C   UNL d   1     -51.750  24.530  33.909  0.00  0.00     0.106 A 
ATOM      5  C   UNL d   1     -51.773  25.352  33.859  0.00  0.00     0.038 A 
ATOM      6  C   UNL d   1     -51.093  25.772  33.661  0.00  0.00     0.105 A 
ATOM      7  C   UNL d   1     -50.392  25.371  33.512  0.00  0.00     0.080 A 
ATOM      8  C   UNL d   1     -50.366  24.551  33.560  0.00  0.00     0.014 A 
ATOM      9 CL   UNL d   1     -49.711  25.792  33.313  0.00  0.00    -0.080 Cl
ATOM     10  C   UNL d   1     -51.046  24.130  33.759  0.00  0.00     0.014 A 
BRANCH   6  11
ATOM     11  O   UNL d   1     -51.119  26.593  33.612  0.00  0.00    -0.327 OA
ATOM     12  C   UNL d   1     -51.652  27.015  34.079  0.00  0.00     0.181 C 
ENDBRANCH   6  11
ENDBRANCH   1   4
BRANCH   1  13
ATOM     13  N   UNL d   1     -53.106  23.692  34.304  0.00  0.00    -0.229 N 
BRANCH  13  14
ATOM     14  C   UNL d   1     -53.472  23.213  33.743  0.00  0.00     0.092 C 
BRANCH  14  15
ATOM     15  C   UNL d   1     -54.244  23.377  33.503  0.00  0.00     0.020 C 
ATOM     16  C   UNL d   1     -54.497  24.156  33.425  0.00  0.00     0.002 C 
ENDBRANCH  14  15
ENDBRANCH  13  14
BRANCH  13  17
ATOM     17  C   UNL d   1     -53.419  23.749  35.063  0.00  0.00     0.092 C 
BRANCH  17  18
ATOM     18  C   UNL d   1     -53.145  23.253  35.662  0.00  0.00     0.020 C 
ATOM     19  C   UNL d   1     -53.493  23.279  36.412  0.00  0.00     0.002 C 
ENDBRANCH  17  18
ENDBRANCH  13  17
ENDBRANCH   1  13
TORSDOF 7
ENDMDL
MODEL 2
REMARK VINA RESULT:      34.2      1.880      3.818
REMARK  7 active torsions:
REMARK  status: ('A' for Active; 'I' for Inactive)
REMARK    1  A    between atoms: C_2  and  S_1 
REMARK    2  A    between atoms: N_4  and  S_1 
REMARK    3  A    between atoms: C_13  and  N_4 
REMARK    4  A    between atoms: C_14  and  N_4 
REMARK    5  A    between atoms: O_12  and  C_7 
REMARK    6  A    between atoms: C_16  and  C_13 
REMARK    7  A    between atoms: C_17  and  C_14 
ROOT
ATOM      1  S   UNL d   1     -51.471  25.968  33.976  0.00  0.00     0.271 S 
ATOM      2  O   UNL d   1     -50.986  25.830  33.323  0.00  0.00    -0.200 OA
ATOM      3  O   UNL d   1     -51.955  26.106  34.629  0.00  0.00    -0.200 OA
ENDROOT
BRANCH   1   4
ATOM      4  C   UNL d   1     -51.878  25.277  33.820  0.00  0.00     0.106 A 
ATOM      5  C   UNL d   1     -52.683  25.302  33.651  0.00  0.00     0.038 A 
ATOM      6  C   UNL d   1     -53.094  24.605  33.493  0.00  0.00     0.105 A 
ATOM      7  C   UNL d   1     -52.699  23.886  33.505  0.00  0.00     0.080 A 
ATOM      8  C   UNL d   1     -51.894  23.857  33.673  0.00  0.00     0.014 A 
ATOM      9 CL   UNL d   1     -53.110  23.188  33.347  0.00  0.00    -0.080 Cl
ATOM     10  C   UNL d   1     -51.484  24.554  33.830  0.00  0.00     0.014 A 
BRANCH   6  11
ATOM     11  O   UNL d   1     -53.898  24.634  33.326  0.00  0.00    -0.327 OA
ATOM     12  C   UNL d   1     -54.347  23.942  33.350  0.00  0.00     0.181 C 
ENDBRANCH   6  11
ENDBRANCH   1   4
BRANCH   1  13
ATOM     13  N   UNL d   1     -51.059  26.666  34.134  0.00  0.00    -0.229 N 
BRANCH  13  14
ATOM     14  C   UNL d   1     -51.060  26.981  34.894  0.00  0.00     0.092 C 
BRANCH  14  15
ATOM     15  C   UNL d   1     -50.505  26.723  35.448  0.00  0.00     0.020 C 
ATOM     16  C   UNL d   1     -50.400  27.138  36.151  0.00  0.00     0.002 C 
ENDBRANCH  14  15
ENDBRANCH  13  14
BRANCH  13  17
ATOM     17  C   UNL d   1     -50.648  27.047  33.531  0.00  0.00     0.092 C 
BRANCH  17  18
ATOM     18  C   UNL d   1     -50.355  27.809  33.650  0.00  0.00     0.020 C 
ATOM     19  C   UNL d   1     -49.539  27.931  33.715  0.00  0.00     0.002 C 
ENDBRANCH  17  18
ENDBRANCH  13  17
ENDBRANCH   1  13
TORSDOF 7
ENDMDL
MODEL 3
REMARK VINA RESULT:      34.4      6.709      8.534
REMARK  7 active torsions:
REMARK  status: ('A' for Active; 'I' for Inactive)
REMARK    1  A    between atoms: C_2  and  S_1 
REMARK    2  A    between atoms: N_4  and  S_1 
REMARK    3  A    between atoms: C_13  and  N_4 
REMARK    4  A    between atoms: C_14  and  N_4 
REMARK    5  A    between atoms: O_12  and  C_7 
REMARK    6  A    between atoms: C_16  and  C_13 
REMARK    7  A    between atoms: C_17  and  C_14 
ROOT
ATOM      1  S   UNL d   1     -47.402  30.958  35.139  0.00  0.00     0.271 S 
ATOM      2  O   UNL d   1     -47.686  30.525  34.496  0.00  0.00    -0.200 OA
ATOM      3  O   UNL d   1     -47.118  31.390  35.782  0.00  0.00    -0.200 OA
ENDROOT
BRANCH   1   4
ATOM      4  C   UNL d   1     -47.404  31.636  34.684  0.00  0.00     0.106 A 
ATOM      5  C   UNL d   1     -48.112  31.928  34.381  0.00  0.00     0.038 A 
ATOM      6  C   UNL d   1     -48.114  32.612  33.922  0.00  0.00     0.105 A 
ATOM      7  C   UNL d   1     -47.409  33.003  33.766  0.00  0.00     0.080 A 
ATOM      8  C   UNL d   1     -46.700  32.715  34.067  0.00  0.00     0.014 A 
ATOM      9 CL   UNL d   1     -47.412  33.688  33.307  0.00  0.00    -0.080 Cl
ATOM     10  C   UNL d   1     -46.698  32.031  34.526  0.00  0.00     0.014 A 
BRANCH   6  11
ATOM     11  O   UNL d   1     -48.823  32.900  33.621  0.00  0.00    -0.327 OA
ATOM     12  C   UNL d   1     -48.858  33.665  33.315  0.00  0.00     0.181 C 
ENDBRANCH   6  11
ENDBRANCH   1   4
BRANCH   1  13
ATOM     13  N   UNL d   1     -47.399  30.273  35.599  0.00  0.00    -0.229 N 
BRANCH  13  14
ATOM     14  C   UNL d   1     -47.359  30.328  36.420  0.00  0.00     0.092 C 
BRANCH  14  15
ATOM     15  C   UNL d   1     -46.700  30.035  36.821  0.00  0.00     0.020 C 
ATOM     16  C   UNL d   1     -46.706  29.983  37.642  0.00  0.00     0.002 C 
ENDBRANCH  14  15
ENDBRANCH  13  14
BRANCH  13  17
ATOM     17  C   UNL d   1     -47.437  29.534  35.238  0.00  0.00     0.092 C 
BRANCH  17  18
ATOM     18  C   UNL d   1     -47.909  28.940  35.562  0.00  0.00     0.020 C 
ATOM     19  C   UNL d   1     -48.235  28.359  35.072  0.00  0.00     0.002 C 
ENDBRANCH  17  18
ENDBRANCH  13  17
ENDBRANCH   1  13
TORSDOF 7
ENDMDL
