MODEL 1
REMARK VINA RESULT:      -2.5      0.000      0.000
REMARK  4 active torsions:
REMARK  status: ('A' for Active; 'I' for Inactive)
REMARK    1  A    between atoms: N_2  and  C_1 
REMARK    2  A    between atoms: N_4  and  C_1 
REMARK       I    between atoms: C_3  and  N_2 
REMARK    3  A    between atoms: C_6  and  C_3 
REMARK    4  A    between atoms: C_9  and  N_5 
ROOT
ATOM      1  N   UNL d   1      32.722  18.674 -23.209  0.00  0.00    -0.278 N 
ATOM      2  N   UNL d   1      32.893  20.019 -22.278  0.00  0.00    -0.301 N 
ATOM      3  C   UNL d   1      32.531  19.420 -23.516  0.00  0.00     0.101 A 
ATOM      4  C   UNL d   1      33.000  18.596 -22.433  0.00  0.00     0.101 A 
ATOM      5  C   UNL d   1      32.619  20.090 -23.043  0.00  0.00     0.100 A 
ATOM      6  C   UNL d   1      33.087  19.266 -21.962  0.00  0.00     0.100 A 
ENDROOT
BRANCH   1   7
ATOM      7  C   UNL d   1      32.631  18.009 -23.688  0.00  0.00     0.209 C 
ATOM      8  S   UNL d   1      33.232  17.798 -24.196  0.00  0.00    -0.038 SA
BRANCH   7   9
ATOM      9  N   UNL d   1      31.937  17.581 -23.635  0.00  0.00    -0.179 NA
ATOM     10  C   UNL d   1      31.819  16.942 -24.123  0.00  0.00     0.287 C 
ATOM     11  O   UNL d   1      32.414  16.760 -24.649  0.00  0.00    -0.265 OA
BRANCH  10  12
ATOM     12  C   UNL d   1      31.141  16.503 -24.090  0.00  0.00     0.087 A 
ATOM     13  S   UNL d   1      31.048  15.827 -23.640  0.00  0.00    -0.082 SA
ATOM     14  C   UNL d   1      30.265  15.527 -23.752  0.00  0.00     0.036 A 
ATOM     15  C   UNL d   1      29.894  16.049 -24.285  0.00  0.00     0.008 A 
ATOM     16  C   UNL d   1      30.402  16.640 -24.499  0.00  0.00     0.012 A 
ENDBRANCH  10  12
ENDBRANCH   7   9
ENDBRANCH   1   7
BRANCH   2  17
ATOM     17  C   UNL d   1      32.980  20.690 -21.808  0.00  0.00     0.064 A 
ATOM     18  C   UNL d   1      32.912  20.629 -20.981  0.00  0.00     0.020 A 
ATOM     19  C   UNL d   1      33.001  21.306 -20.522  0.00  0.00     0.031 A 
ATOM     20  C   UNL d   1      33.156  22.044 -20.868  0.00  0.00     0.140 A 
ATOM     21  C   UNL d   1      33.224  22.104 -21.695  0.00  0.00     0.031 A 
ATOM     22  F   UNL d   1      33.241  22.705 -20.394  0.00  0.00    -0.204 F 
ATOM     23  C   UNL d   1      33.134  21.420 -22.162  0.00  0.00     0.020 A 
ENDBRANCH   2  17
TORSDOF 4
ENDMDL
MODEL 2
REMARK VINA RESULT:      -1.5      3.041      5.436
REMARK  4 active torsions:
REMARK  status: ('A' for Active; 'I' for Inactive)
REMARK    1  A    between atoms: N_2  and  C_1 
REMARK    2  A    between atoms: N_4  and  C_1 
REMARK       I    between atoms: C_3  and  N_2 
REMARK    3  A    between atoms: C_6  and  C_3 
REMARK    4  A    between atoms: C_9  and  N_5 
ROOT
ATOM      1  N   UNL d   1      33.110  20.701 -22.839  0.00  0.00    -0.278 N 
ATOM      2  N   UNL d   1      33.107  19.103 -23.226  0.00  0.00    -0.301 N 
ATOM      3  C   UNL d   1      33.233  20.462 -23.623  0.00  0.00     0.101 A 
ATOM      4  C   UNL d   1      32.985  20.141 -22.241  0.00  0.00     0.101 A 
ATOM      5  C   UNL d   1      33.230  19.658 -23.810  0.00  0.00     0.100 A 
ATOM      6  C   UNL d   1      32.983  19.340 -22.430  0.00  0.00     0.100 A 
ENDROOT
BRANCH   1   7
ATOM      7  C   UNL d   1      33.115  21.506 -22.660  0.00  0.00     0.209 C 
ATOM      8  S   UNL d   1      33.241  22.047 -23.257  0.00  0.00    -0.038 SA
BRANCH   7   9
ATOM      9  N   UNL d   1      32.992  21.736 -21.885  0.00  0.00    -0.179 NA
ATOM     10  C   UNL d   1      33.005  22.524 -21.691  0.00  0.00     0.287 C 
ATOM     11  O   UNL d   1      33.143  23.055 -22.295  0.00  0.00    -0.265 OA
BRANCH  10  12
ATOM     12  C   UNL d   1      32.886  22.777 -20.932  0.00  0.00     0.087 A 
ATOM     13  S   UNL d   1      32.425  23.419 -20.724  0.00  0.00    -0.082 SA
ATOM     14  C   UNL d   1      32.437  23.505 -19.882  0.00  0.00     0.036 A 
ATOM     15  C   UNL d   1      32.922  22.891 -19.597  0.00  0.00     0.008 A 
ATOM     16  C   UNL d   1      33.201  22.444 -20.209  0.00  0.00     0.012 A 
ENDBRANCH  10  12
ENDBRANCH   7   9
ENDBRANCH   1   7
BRANCH   2  17
ATOM     17  C   UNL d   1      33.105  18.301 -23.415  0.00  0.00     0.064 A 
ATOM     18  C   UNL d   1      33.239  17.734 -22.821  0.00  0.00     0.020 A 
ATOM     19  C   UNL d   1      33.234  16.937 -23.022  0.00  0.00     0.031 A 
ATOM     20  C   UNL d   1      33.098  16.690 -23.802  0.00  0.00     0.140 A 
ATOM     21  C   UNL d   1      32.964  17.257 -24.395  0.00  0.00     0.031 A 
ATOM     22  F   UNL d   1      33.097  15.891 -23.981  0.00  0.00    -0.204 F 
ATOM     23  C   UNL d   1      32.968  18.065 -24.194  0.00  0.00     0.020 A 
ENDBRANCH   2  17
TORSDOF 4
ENDMDL
MODEL 3
REMARK VINA RESULT:      -1.4      3.497      6.064
REMARK  4 active torsions:
REMARK  status: ('A' for Active; 'I' for Inactive)
REMARK    1  A    between atoms: N_2  and  C_1 
REMARK    2  A    between atoms: N_4  and  C_1 
REMARK       I    between atoms: C_3  and  N_2 
REMARK    3  A    between atoms: C_6  and  C_3 
REMARK    4  A    between atoms: C_9  and  N_5 
ROOT
ATOM      1  N   UNL d   1      32.992  21.675 -20.996  0.00  0.00    -0.278 N 
ATOM      2  N   UNL d   1      32.953  20.262 -21.836  0.00  0.00    -0.301 N 
ATOM      3  C   UNL d   1      32.992  20.951 -20.593  0.00  0.00     0.101 A 
ATOM      4  C   UNL d   1      32.973  21.698 -21.824  0.00  0.00     0.101 A 
ATOM      5  C   UNL d   1      32.972  20.246 -21.021  0.00  0.00     0.100 A 
ATOM      6  C   UNL d   1      32.954  20.993 -22.249  0.00  0.00     0.100 A 
ENDROOT
BRANCH   1   7
ATOM      7  C   UNL d   1      33.011  22.376 -20.561  0.00  0.00     0.209 C 
ATOM      8  S   UNL d   1      33.028  23.090 -20.954  0.00  0.00    -0.038 SA
BRANCH   7   9
ATOM      9  N   UNL d   1      33.013  22.329 -19.745  0.00  0.00    -0.179 NA
ATOM     10  C   UNL d   1      32.875  22.996 -19.302  0.00  0.00     0.287 C 
ATOM     11  O   UNL d   1      32.739  23.691 -19.707  0.00  0.00    -0.265 OA
BRANCH  10  12
ATOM     12  C   UNL d   1      32.872  22.976 -18.494  0.00  0.00     0.087 A 
ATOM     13  S   UNL d   1      33.240  22.402 -18.044  0.00  0.00    -0.082 SA
ATOM     14  C   UNL d   1      33.112  22.571 -17.224  0.00  0.00     0.036 A 
ATOM     15  C   UNL d   1      32.654  23.267 -17.203  0.00  0.00     0.008 A 
ATOM     16  C   UNL d   1      32.500  23.525 -17.953  0.00  0.00     0.012 A 
ENDBRANCH  10  12
ENDBRANCH   7   9
ENDBRANCH   1   7
BRANCH   2  17
ATOM     17  C   UNL d   1      32.934  19.557 -22.262  0.00  0.00     0.064 A 
ATOM     18  C   UNL d   1      32.624  19.546 -23.033  0.00  0.00     0.020 A 
ATOM     19  C   UNL d   1      32.610  18.836 -23.448  0.00  0.00     0.031 A 
ATOM     20  C   UNL d   1      32.898  18.135 -23.111  0.00  0.00     0.140 A 
ATOM     21  C   UNL d   1      33.208  18.147 -22.340  0.00  0.00     0.031 A 
ATOM     22  F   UNL d   1      32.875  17.439 -23.541  0.00  0.00    -0.204 F 
ATOM     23  C   UNL d   1      33.223  18.865 -21.918  0.00  0.00     0.020 A 
ENDBRANCH   2  17
TORSDOF 4
ENDMDL
MODEL 4
REMARK VINA RESULT:      -0.9      2.836      5.395
REMARK  4 active torsions:
REMARK  status: ('A' for Active; 'I' for Inactive)
REMARK    1  A    between atoms: N_2  and  C_1 
REMARK    2  A    between atoms: N_4  and  C_1 
REMARK       I    between atoms: C_3  and  N_2 
REMARK    3  A    between atoms: C_6  and  C_3 
REMARK    4  A    between atoms: C_9  and  N_5 
ROOT
ATOM      1  N   UNL d   1      31.537  17.155 -24.447  0.00  0.00    -0.278 N 
ATOM      2  N   UNL d   1      30.023  16.584 -24.153  0.00  0.00    -0.301 N 
ATOM      3  C   UNL d   1      31.426  16.510 -23.937  0.00  0.00     0.101 A 
ATOM      4  C   UNL d   1      30.890  17.519 -24.814  0.00  0.00     0.101 A 
ATOM      5  C   UNL d   1      30.663  16.229 -23.795  0.00  0.00     0.100 A 
ATOM      6  C   UNL d   1      30.130  17.237 -24.670  0.00  0.00     0.100 A 
ENDROOT
BRANCH   1   7
ATOM      7  C   UNL d   1      32.302  17.429 -24.584  0.00  0.00     0.209 C 
ATOM      8  S   UNL d   1      32.917  16.896 -24.620  0.00  0.00    -0.038 SA
BRANCH   7   9
ATOM      9  N   UNL d   1      32.418  18.233 -24.680  0.00  0.00    -0.179 NA
ATOM     10  C   UNL d   1      32.896  18.637 -24.162  0.00  0.00     0.287 C 
ATOM     11  O   UNL d   1      33.240  18.208 -23.561  0.00  0.00    -0.265 OA
BRANCH  10  12
ATOM     12  C   UNL d   1      33.026  19.431 -24.236  0.00  0.00     0.087 A 
ATOM     13  S   UNL d   1      33.114  19.947 -23.608  0.00  0.00    -0.082 SA
ATOM     14  C   UNL d   1      33.241  20.728 -23.909  0.00  0.00     0.036 A 
ATOM     15  C   UNL d   1      33.225  20.658 -24.739  0.00  0.00     0.008 A 
ATOM     16  C   UNL d   1      33.098  19.890 -24.955  0.00  0.00     0.012 A 
ENDBRANCH  10  12
ENDBRANCH   7   9
ENDBRANCH   1   7
BRANCH   2  17
ATOM     17  C   UNL d   1      29.262  16.302 -24.009  0.00  0.00     0.064 A 
ATOM     18  C   UNL d   1      28.883  15.824 -24.575  0.00  0.00     0.020 A 
ATOM     19  C   UNL d   1      28.124  15.548 -24.420  0.00  0.00     0.031 A 
ATOM     20  C   UNL d   1      27.733  15.737 -23.714  0.00  0.00     0.140 A 
ATOM     21  C   UNL d   1      28.112  16.215 -23.149  0.00  0.00     0.031 A 
ATOM     22  F   UNL d   1      26.977  15.453 -23.579  0.00  0.00    -0.204 F 
ATOM     23  C   UNL d   1      28.881  16.496 -23.304  0.00  0.00     0.020 A 
ENDBRANCH   2  17
TORSDOF 4
ENDMDL
