MODEL 1
REMARK VINA RESULT:      -9.1      0.000      0.000
REMARK  2 active torsions:
REMARK  status: ('A' for Active; 'I' for Inactive)
REMARK    1  A    between atoms: N_5  and  C_1 
REMARK    2  A    between atoms: C_8  and  C_4 
ROOT
ATOM      1  C   UNL d   1     -48.640  14.088  22.937  0.00  0.00     0.166 A 
ATOM      2  N   UNL d   1     -47.878  14.359  22.927  0.00  0.00    -0.225 NA
ATOM      3  N   UNL d   1     -48.117  12.763  22.960  0.00  0.00    -0.241 NA
ATOM      4  C   UNL d   1     -48.762  13.276  22.954  0.00  0.00     0.116 A 
ATOM      5  C   UNL d   1     -47.226  13.877  22.932  0.00  0.00     0.101 A 
ATOM      6  C   UNL d   1     -47.348  13.064  22.949  0.00  0.00     0.099 A 
ATOM      7  C   UNL d   1     -46.463  14.147  22.922  0.00  0.00     0.021 A 
ATOM      8  C   UNL d   1     -46.701  12.551  22.955  0.00  0.00     0.021 A 
ATOM      9  C   UNL d   1     -45.962  12.857  22.944  0.00  0.00     0.002 A 
ATOM     10  C   UNL d   1     -45.841  13.670  22.927  0.00  0.00     0.002 A 
ENDROOT
BRANCH   1  11
ATOM     11  N   UNL d   1     -49.290  14.570  22.932  0.00  0.00    -0.284 N 
ATOM     12  C   UNL d   1     -49.566  14.856  23.658  0.00  0.00     0.108 A 
ATOM     13  C   UNL d   1     -50.240  15.356  23.661  0.00  0.00     0.142 A 
ATOM     14  O   UNL d   1     -50.605  15.548  22.951  0.00  0.00    -0.300 OA
ATOM     15  C   UNL d   1     -50.319  15.257  22.243  0.00  0.00     0.142 A 
ATOM     16  C   UNL d   1     -49.657  14.762  22.212  0.00  0.00     0.108 A 
ENDBRANCH   1  11
BRANCH   4  17
ATOM     17  C   UNL d   1     -49.528  12.974  22.965  0.00  0.00     0.021 A 
ATOM     18  C   UNL d   1     -49.902  12.824  23.685  0.00  0.00     0.002 A 
ATOM     19  C   UNL d   1     -50.671  12.521  23.698  0.00  0.00     0.000 A 
ATOM     20  C   UNL d   1     -51.064  12.368  22.989  0.00  0.00     0.000 A 
ATOM     21  C   UNL d   1     -50.690  12.518  22.268  0.00  0.00     0.000 A 
ATOM     22  C   UNL d   1     -49.922  12.821  22.257  0.00  0.00     0.002 A 
ENDBRANCH   4  17
TORSDOF 2
ENDMDL
MODEL 2
REMARK VINA RESULT:      -9.0      1.538      3.622
REMARK  2 active torsions:
REMARK  status: ('A' for Active; 'I' for Inactive)
REMARK    1  A    between atoms: N_5  and  C_1 
REMARK    2  A    between atoms: C_8  and  C_4 
ROOT
ATOM      1  C   UNL d   1     -48.924  13.356  23.091  0.00  0.00     0.166 A 
ATOM      2  N   UNL d   1     -49.675  13.583  23.283  0.00  0.00    -0.225 NA
ATOM      3  N   UNL d   1     -48.577  14.737  23.027  0.00  0.00    -0.241 NA
ATOM      4  C   UNL d   1     -48.364  13.943  22.960  0.00  0.00     0.116 A 
ATOM      5  C   UNL d   1     -49.911  14.355  23.356  0.00  0.00     0.101 A 
ATOM      6  C   UNL d   1     -49.352  14.943  23.225  0.00  0.00     0.099 A 
ATOM      7  C   UNL d   1     -50.664  14.583  23.549  0.00  0.00     0.021 A 
ATOM      8  C   UNL d   1     -49.565  15.737  23.292  0.00  0.00     0.021 A 
ATOM      9  C   UNL d   1     -50.319  15.922  23.485  0.00  0.00     0.002 A 
ATOM     10  C   UNL d   1     -50.879  15.334  23.616  0.00  0.00     0.002 A 
ENDROOT
BRANCH   1  11
ATOM     11  N   UNL d   1     -48.690  12.586  23.019  0.00  0.00    -0.284 N 
ATOM     12  C   UNL d   1     -48.414  12.198  23.697  0.00  0.00     0.108 A 
ATOM     13  C   UNL d   1     -48.170  11.398  23.630  0.00  0.00     0.142 A 
ATOM     14  O   UNL d   1     -48.209  11.022  22.902  0.00  0.00    -0.300 OA
ATOM     15  C   UNL d   1     -48.483  11.419  22.242  0.00  0.00     0.142 A 
ATOM     16  C   UNL d   1     -48.731  12.207  22.280  0.00  0.00     0.108 A 
ENDBRANCH   1  11
BRANCH   4  17
ATOM     17  C   UNL d   1     -47.591  13.739  22.762  0.00  0.00     0.021 A 
ATOM     18  C   UNL d   1     -47.019  13.667  23.353  0.00  0.00     0.002 A 
ATOM     19  C   UNL d   1     -46.243  13.463  23.156  0.00  0.00     0.000 A 
ATOM     20  C   UNL d   1     -46.040  13.331  22.367  0.00  0.00     0.000 A 
ATOM     21  C   UNL d   1     -46.613  13.403  21.776  0.00  0.00     0.000 A 
ATOM     22  C   UNL d   1     -47.388  13.607  21.974  0.00  0.00     0.002 A 
ENDBRANCH   4  17
TORSDOF 2
ENDMDL
MODEL 3
REMARK VINA RESULT:      -8.3      1.539      3.195
REMARK  2 active torsions:
REMARK  status: ('A' for Active; 'I' for Inactive)
REMARK    1  A    between atoms: N_5  and  C_1 
REMARK    2  A    between atoms: C_8  and  C_4 
ROOT
ATOM      1  C   UNL d   1     -48.370  13.996  22.954  0.00  0.00     0.166 A 
ATOM      2  N   UNL d   1     -48.625  14.760  23.027  0.00  0.00    -0.225 NA
ATOM      3  N   UNL d   1     -49.677  13.577  23.339  0.00  0.00    -0.241 NA
ATOM      4  C   UNL d   1     -48.906  13.394  23.113  0.00  0.00     0.116 A 
ATOM      5  C   UNL d   1     -49.377  14.969  23.247  0.00  0.00     0.101 A 
ATOM      6  C   UNL d   1     -49.913  14.366  23.406  0.00  0.00     0.099 A 
ATOM      7  C   UNL d   1     -49.632  15.734  23.320  0.00  0.00     0.021 A 
ATOM      8  C   UNL d   1     -50.685  14.551  23.631  0.00  0.00     0.021 A 
ATOM      9  C   UNL d   1     -50.899  15.319  23.692  0.00  0.00     0.002 A 
ATOM     10  C   UNL d   1     -50.363  15.922  23.534  0.00  0.00     0.002 A 
ENDROOT
BRANCH   1  11
ATOM     11  N   UNL d   1     -47.620  13.790  22.735  0.00  0.00    -0.284 N 
ATOM     12  C   UNL d   1     -47.039  13.756  23.324  0.00  0.00     0.108 A 
ATOM     13  C   UNL d   1     -46.258  13.543  23.104  0.00  0.00     0.142 A 
ATOM     14  O   UNL d   1     -46.090  13.373  22.318  0.00  0.00    -0.300 OA
ATOM     15  C   UNL d   1     -46.676  13.411  21.750  0.00  0.00     0.142 A 
ATOM     16  C   UNL d   1     -47.453  13.619  21.939  0.00  0.00     0.108 A 
ENDBRANCH   1  11
BRANCH   4  17
ATOM     17  C   UNL d   1     -48.673  12.607  23.047  0.00  0.00     0.021 A 
ATOM     18  C   UNL d   1     -48.761  12.209  22.329  0.00  0.00     0.002 A 
ATOM     19  C   UNL d   1     -48.527  11.420  22.261  0.00  0.00     0.000 A 
ATOM     20  C   UNL d   1     -48.206  11.028  22.912  0.00  0.00     0.000 A 
ATOM     21  C   UNL d   1     -48.118  11.426  23.631  0.00  0.00     0.000 A 
ATOM     22  C   UNL d   1     -48.352  12.215  23.698  0.00  0.00     0.002 A 
ENDBRANCH   4  17
TORSDOF 2
ENDMDL
MODEL 4
REMARK VINA RESULT:      -6.4      9.403     10.575
REMARK  2 active torsions:
REMARK  status: ('A' for Active; 'I' for Inactive)
REMARK    1  A    between atoms: N_5  and  C_1 
REMARK    2  A    between atoms: C_8  and  C_4 
ROOT
ATOM      1  C   UNL d   1     -39.846  15.132  18.822  0.00  0.00     0.166 A 
ATOM      2  N   UNL d   1     -40.155  15.533  19.453  0.00  0.00    -0.225 NA
ATOM      3  N   UNL d   1     -39.089  14.359  19.750  0.00  0.00    -0.241 NA
ATOM      4  C   UNL d   1     -39.303  14.534  18.974  0.00  0.00     0.116 A 
ATOM      5  C   UNL d   1     -39.962  15.382  20.225  0.00  0.00     0.101 A 
ATOM      6  C   UNL d   1     -39.419  14.783  20.377  0.00  0.00     0.099 A 
ATOM      7  C   UNL d   1     -40.272  15.783  20.857  0.00  0.00     0.021 A 
ATOM      8  C   UNL d   1     -39.205  14.608  21.154  0.00  0.00     0.021 A 
ATOM      9  C   UNL d   1     -39.533  15.028  21.752  0.00  0.00     0.002 A 
ATOM     10  C   UNL d   1     -40.076  15.626  21.600  0.00  0.00     0.002 A 
ENDROOT
BRANCH   1  11
ATOM     11  N   UNL d   1     -40.039  15.284  18.052  0.00  0.00    -0.284 N 
ATOM     12  C   UNL d   1     -40.719  14.925  17.744  0.00  0.00     0.108 A 
ATOM     13  C   UNL d   1     -40.925  15.078  16.945  0.00  0.00     0.142 A 
ATOM     14  O   UNL d   1     -40.455  15.575  16.493  0.00  0.00    -0.300 OA
ATOM     15  C   UNL d   1     -39.787  15.922  16.813  0.00  0.00     0.142 A 
ATOM     16  C   UNL d   1     -39.560  15.788  17.597  0.00  0.00     0.108 A 
ENDBRANCH   1  11
BRANCH   4  17
ATOM     17  C   UNL d   1     -38.973  14.109  18.350  0.00  0.00     0.021 A 
ATOM     18  C   UNL d   1     -39.345  13.427  18.072  0.00  0.00     0.002 A 
ATOM     19  C   UNL d   1     -39.014  13.000  17.447  0.00  0.00     0.000 A 
ATOM     20  C   UNL d   1     -38.312  13.257  17.099  0.00  0.00     0.000 A 
ATOM     21  C   UNL d   1     -37.940  13.941  17.376  0.00  0.00     0.000 A 
ATOM     22  C   UNL d   1     -38.270  14.366  18.002  0.00  0.00     0.002 A 
ENDBRANCH   4  17
TORSDOF 2
ENDMDL
