MODEL 1
REMARK VINA RESULT:      -7.9      0.000      0.000
REMARK  5 active torsions:
REMARK  status: ('A' for Active; 'I' for Inactive)
REMARK    1  A    between atoms: C_9  and  C_3 
REMARK    2  A    between atoms: N_11  and  C_4 
REMARK    3  A    between atoms: C_17  and  N_11 
REMARK    4  A    between atoms: O_19  and  C_13 
REMARK    5  A    between atoms: O_20  and  C_15 
ROOT
ATOM      1  N   UNL d   1     -46.362  12.398  23.083  0.00  0.00    -0.184 N 
ATOM      2  C   UNL d   1     -47.124  12.743  23.073  0.00  0.00     0.168 A 
ATOM      3  C   UNL d   1     -47.224  13.532  22.864  0.00  0.00     0.055 A 
ATOM      4  C   UNL d   1     -46.284  11.606  23.295  0.00  0.00     0.218 A 
ATOM      5  N   UNL d   1     -45.793  13.640  22.674  0.00  0.00    -0.162 NA
ATOM      6  C   UNL d   1     -46.555  13.985  22.663  0.00  0.00     0.104 A 
ATOM      7  N   UNL d   1     -47.793  12.290  23.274  0.00  0.00    -0.227 NA
ATOM      8  C   UNL d   1     -46.936  11.145  23.496  0.00  0.00     0.071 A 
ATOM      9  C   UNL d   1     -47.698  11.490  23.486  0.00  0.00     0.087 A 
ATOM     10  C   UNL d   1     -46.640  14.772  22.454  0.00  0.00     0.023 C 
ATOM     11  C   UNL d   1     -48.389  11.020  23.694  0.00  0.00     0.021 C 
ENDROOT
BRANCH   3  12
ATOM     12  C   UNL d   1     -47.974  13.872  22.854  0.00  0.00     0.007 A 
ATOM     13  C   UNL d   1     -48.445  13.794  22.181  0.00  0.00     0.026 A 
ATOM     14  C   UNL d   1     -49.207  14.140  22.170  0.00  0.00     0.116 A 
ATOM     15  C   UNL d   1     -49.483  14.557  22.833  0.00  0.00     0.116 A 
ATOM     16  C   UNL d   1     -49.001  14.625  23.495  0.00  0.00     0.026 A 
ATOM     17  C   UNL d   1     -48.242  14.281  23.506  0.00  0.00     0.002 A 
BRANCH  14  18
ATOM     18  O   UNL d   1     -49.700  14.068  21.488  0.00  0.00    -0.326 OA
ATOM     19  C   UNL d   1     -49.752  13.306  21.071  0.00  0.00     0.181 C 
ENDBRANCH  14  18
BRANCH  15  20
ATOM     20  O   UNL d   1     -50.269  14.913  22.822  0.00  0.00    -0.326 OA
ATOM     21  C   UNL d   1     -50.423  15.612  23.309  0.00  0.00     0.181 C 
ENDBRANCH  15  20
ENDBRANCH   3  12
BRANCH   4  22
ATOM     22  N   UNL d   1     -45.501  11.251  23.306  0.00  0.00    -0.383 NA
BRANCH  22  23
ATOM     23  C   UNL d   1     -44.806  10.936  23.315  0.00  0.00     0.134 A 
ATOM     24  C   UNL d   1     -44.230  11.285  22.952  0.00  0.00     0.032 A 
ATOM     25  C   UNL d   1     -43.535  10.970  22.961  0.00  0.00     0.003 A 
ATOM     26  C   UNL d   1     -43.991   9.968  23.691  0.00  0.00     0.003 A 
ATOM     27  C   UNL d   1     -44.690  10.284  23.681  0.00  0.00     0.032 A 
ENDBRANCH  22  23
ENDBRANCH   4  22
TORSDOF 5
ENDMDL
MODEL 2
REMARK VINA RESULT:      -7.7      0.796      1.748
REMARK  5 active torsions:
REMARK  status: ('A' for Active; 'I' for Inactive)
REMARK    1  A    between atoms: C_9  and  C_3 
REMARK    2  A    between atoms: N_11  and  C_4 
REMARK    3  A    between atoms: C_17  and  N_11 
REMARK    4  A    between atoms: O_19  and  C_13 
REMARK    5  A    between atoms: O_20  and  C_15 
ROOT
ATOM      1  N   UNL d   1     -46.970  12.069  23.219  0.00  0.00    -0.184 N 
ATOM      2  C   UNL d   1     -47.545  12.665  23.100  0.00  0.00     0.168 A 
ATOM      3  C   UNL d   1     -48.344  12.503  23.198  0.00  0.00     0.055 A 
ATOM      4  C   UNL d   1     -46.174  12.252  23.115  0.00  0.00     0.218 A 
ATOM      5  N   UNL d   1     -48.002  11.138  23.538  0.00  0.00    -0.162 NA
ATOM      6  C   UNL d   1     -48.577  11.735  23.419  0.00  0.00     0.104 A 
ATOM      7  N   UNL d   1     -47.312  13.433  22.879  0.00  0.00    -0.227 NA
ATOM      8  C   UNL d   1     -45.928  13.008  22.896  0.00  0.00     0.071 A 
ATOM      9  C   UNL d   1     -46.503  13.605  22.777  0.00  0.00     0.087 A 
ATOM     10  C   UNL d   1     -49.370  11.560  23.521  0.00  0.00     0.023 C 
ATOM     11  C   UNL d   1     -46.260  14.399  22.549  0.00  0.00     0.021 C 
ENDROOT
BRANCH   3  12
ATOM     12  C   UNL d   1     -48.910  13.090  23.081  0.00  0.00     0.007 A 
ATOM     13  C   UNL d   1     -49.265  13.169  22.340  0.00  0.00     0.026 A 
ATOM     14  C   UNL d   1     -49.840  13.765  22.221  0.00  0.00     0.116 A 
ATOM     15  C   UNL d   1     -50.048  14.271  22.846  0.00  0.00     0.116 A 
ATOM     16  C   UNL d   1     -49.685  14.179  23.577  0.00  0.00     0.026 A 
ATOM     17  C   UNL d   1     -49.113  13.586  23.695  0.00  0.00     0.002 A 
BRANCH  14  18
ATOM     18  O   UNL d   1     -50.211  13.858  21.469  0.00  0.00    -0.326 OA
ATOM     19  C   UNL d   1     -50.541  13.163  21.062  0.00  0.00     0.181 C 
ENDBRANCH  14  18
BRANCH  15  20
ATOM     20  O   UNL d   1     -50.641  14.887  22.723  0.00  0.00    -0.326 OA
ATOM     21  C   UNL d   1     -50.730  15.512  23.314  0.00  0.00     0.181 C 
ENDBRANCH  15  20
ENDBRANCH   3  12
BRANCH   4  22
ATOM     22  N   UNL d   1     -45.584  11.640  23.237  0.00  0.00    -0.383 NA
BRANCH  22  23
ATOM     23  C   UNL d   1     -45.059  11.095  23.345  0.00  0.00     0.134 A 
ATOM     24  C   UNL d   1     -44.323  11.250  23.206  0.00  0.00     0.032 A 
ATOM     25  C   UNL d   1     -43.799  10.707  23.314  0.00  0.00     0.003 A 
ATOM     26  C   UNL d   1     -44.742   9.864  23.698  0.00  0.00     0.003 A 
ATOM     27  C   UNL d   1     -45.268  10.411  23.589  0.00  0.00     0.032 A 
ENDBRANCH  22  23
ENDBRANCH   4  22
TORSDOF 5
ENDMDL
MODEL 3
REMARK VINA RESULT:      -5.6      1.132      2.140
REMARK  5 active torsions:
REMARK  status: ('A' for Active; 'I' for Inactive)
REMARK    1  A    between atoms: C_9  and  C_3 
REMARK    2  A    between atoms: N_11  and  C_4 
REMARK    3  A    between atoms: C_17  and  N_11 
REMARK    4  A    between atoms: O_19  and  C_13 
REMARK    5  A    between atoms: O_20  and  C_15 
ROOT
ATOM      1  N   UNL d   1     -46.659  12.873  22.539  0.00  0.00    -0.184 N 
ATOM      2  C   UNL d   1     -47.398  13.257  22.623  0.00  0.00     0.168 A 
ATOM      3  C   UNL d   1     -48.081  12.824  22.769  0.00  0.00     0.055 A 
ATOM      4  C   UNL d   1     -45.986  13.325  22.393  0.00  0.00     0.218 A 
ATOM      5  N   UNL d   1     -47.291  11.612  22.747  0.00  0.00    -0.162 NA
ATOM      6  C   UNL d   1     -48.030  11.996  22.832  0.00  0.00     0.104 A 
ATOM      7  N   UNL d   1     -47.449  14.085  22.560  0.00  0.00    -0.227 NA
ATOM      8  C   UNL d   1     -46.021  14.145  22.328  0.00  0.00     0.071 A 
ATOM      9  C   UNL d   1     -46.760  14.530  22.412  0.00  0.00     0.087 A 
ATOM     10  C   UNL d   1     -48.702  11.553  22.977  0.00  0.00     0.023 C 
ATOM     11  C   UNL d   1     -46.811  15.387  22.347  0.00  0.00     0.021 C 
ENDROOT
BRANCH   3  12
ATOM     12  C   UNL d   1     -48.808  13.202  22.852  0.00  0.00     0.007 A 
ATOM     13  C   UNL d   1     -49.277  13.330  22.185  0.00  0.00     0.026 A 
ATOM     14  C   UNL d   1     -50.016  13.714  22.269  0.00  0.00     0.116 A 
ATOM     15  C   UNL d   1     -50.271  13.963  23.019  0.00  0.00     0.116 A 
ATOM     16  C   UNL d   1     -49.791  13.828  23.673  0.00  0.00     0.026 A 
ATOM     17  C   UNL d   1     -49.056  13.445  23.589  0.00  0.00     0.002 A 
BRANCH  14  18
ATOM     18  O   UNL d   1     -50.506  13.852  21.596  0.00  0.00    -0.326 OA
ATOM     19  C   UNL d   1     -50.627  13.217  21.013  0.00  0.00     0.181 C 
ENDBRANCH  14  18
BRANCH  15  20
ATOM     20  O   UNL d   1     -51.032  14.359  23.106  0.00  0.00    -0.326 OA
ATOM     21  C   UNL d   1     -51.064  15.136  23.487  0.00  0.00     0.181 C 
ENDBRANCH  15  20
ENDBRANCH   3  12
BRANCH   4  22
ATOM     22  N   UNL d   1     -45.228  12.930  22.306  0.00  0.00    -0.383 NA
BRANCH  22  23
ATOM     23  C   UNL d   1     -44.554  12.580  22.229  0.00  0.00     0.134 A 
ATOM     24  C   UNL d   1     -44.407  11.954  22.644  0.00  0.00     0.032 A 
ATOM     25  C   UNL d   1     -43.733  11.603  22.567  0.00  0.00     0.003 A 
ATOM     26  C   UNL d   1     -43.362  12.498  21.669  0.00  0.00     0.003 A 
ATOM     27  C   UNL d   1     -44.039  12.851  21.747  0.00  0.00     0.032 A 
ENDBRANCH  22  23
ENDBRANCH   4  22
TORSDOF 5
ENDMDL
MODEL 4
REMARK VINA RESULT:      -5.5      2.036      4.835
REMARK  5 active torsions:
REMARK  status: ('A' for Active; 'I' for Inactive)
REMARK    1  A    between atoms: C_9  and  C_3 
REMARK    2  A    between atoms: N_11  and  C_4 
REMARK    3  A    between atoms: C_17  and  N_11 
REMARK    4  A    between atoms: O_19  and  C_13 
REMARK    5  A    between atoms: O_20  and  C_15 
ROOT
ATOM      1  N   UNL d   1     -48.249  13.522  22.738  0.00  0.00    -0.184 N 
ATOM      2  C   UNL d   1     -47.628  12.966  22.804  0.00  0.00     0.168 A 
ATOM      3  C   UNL d   1     -46.863  13.211  22.976  0.00  0.00     0.055 A 
ATOM      4  C   UNL d   1     -49.009  13.257  22.565  0.00  0.00     0.218 A 
ATOM      5  N   UNL d   1     -47.333  14.579  23.019  0.00  0.00    -0.162 NA
ATOM      6  C   UNL d   1     -46.712  14.022  23.084  0.00  0.00     0.104 A 
ATOM      7  N   UNL d   1     -47.779  12.155  22.695  0.00  0.00    -0.227 NA
ATOM      8  C   UNL d   1     -49.174  12.457  22.455  0.00  0.00     0.071 A 
ATOM      9  C   UNL d   1     -48.552  11.900  22.520  0.00  0.00     0.087 A 
ATOM     10  C   UNL d   1     -45.954  14.279  23.256  0.00  0.00     0.023 C 
ATOM     11  C   UNL d   1     -48.710  11.061  22.408  0.00  0.00     0.021 C 
ENDROOT
BRANCH   3  12
ATOM     12  C   UNL d   1     -46.251  12.663  23.041  0.00  0.00     0.007 A 
ATOM     13  C   UNL d   1     -45.622  12.693  22.507  0.00  0.00     0.026 A 
ATOM     14  C   UNL d   1     -45.000  12.136  22.573  0.00  0.00     0.116 A 
ATOM     15  C   UNL d   1     -45.020  11.561  23.171  0.00  0.00     0.116 A 
ATOM     16  C   UNL d   1     -45.654  11.545  23.694  0.00  0.00     0.026 A 
ATOM     17  C   UNL d   1     -46.273  12.099  23.628  0.00  0.00     0.002 A 
BRANCH  14  18
ATOM     18  O   UNL d   1     -44.350  12.155  22.034  0.00  0.00    -0.326 OA
ATOM     19  C   UNL d   1     -44.164  12.890  21.608  0.00  0.00     0.181 C 
ENDBRANCH  14  18
BRANCH  15  20
ATOM     20  O   UNL d   1     -44.379  10.987  23.239  0.00  0.00    -0.326 OA
ATOM     21  C   UNL d   1     -44.506  10.264  23.698  0.00  0.00     0.181 C 
ENDBRANCH  15  20
ENDBRANCH   3  12
BRANCH   4  22
ATOM     22  N   UNL d   1     -49.647  13.828  22.497  0.00  0.00    -0.383 NA
BRANCH  22  23
ATOM     23  C   UNL d   1     -50.214  14.336  22.437  0.00  0.00     0.134 A 
ATOM     24  C   UNL d   1     -50.495  14.662  23.070  0.00  0.00     0.032 A 
ATOM     25  C   UNL d   1     -51.062  15.169  23.010  0.00  0.00     0.003 A 
ATOM     26  C   UNL d   1     -51.063  15.024  21.697  0.00  0.00     0.003 A 
ATOM     27  C   UNL d   1     -50.494  14.514  21.758  0.00  0.00     0.032 A 
ENDBRANCH  22  23
ENDBRANCH   4  22
TORSDOF 5
ENDMDL
