MODEL 1
REMARK VINA RESULT:     115.8      0.000      0.000
REMARK  7 active torsions:
REMARK  status: ('A' for Active; 'I' for Inactive)
REMARK    1  A    between atoms: N_3  and  C_1 
REMARK       I    between atoms: C_7  and  N_3 
REMARK    2  A    between atoms: C_11  and  N_3 
REMARK    3  A    between atoms: S_5  and  C_10 
REMARK    4  A    between atoms: C_14  and  S_5 
REMARK    5  A    between atoms: C_9  and  C_7 
REMARK    6  A    between atoms: C_10  and  C_9 
REMARK    7  A    between atoms: C_18  and  C_11 
ROOT
ATOM      1  N   UNL d   1      60.810  46.280  50.804  0.00  0.00    -0.253 N 
ATOM      2  C   UNL d   1      60.852  45.715  51.422  0.00  0.00     0.267 C 
ATOM      3  O   UNL d   1      60.778  45.964  52.202  0.00  0.00    -0.267 OA
ENDROOT
BRANCH   1   4
ATOM      4  C   UNL d   1      60.695  47.076  50.986  0.00  0.00     0.182 A 
ATOM      5  N   UNL d   1      60.145  47.586  50.631  0.00  0.00    -0.219 NA
ATOM      6  C   UNL d   1      60.220  48.334  50.983  0.00  0.00     0.117 A 
ATOM      7  C   UNL d   1      59.819  49.033  50.846  0.00  0.00     0.158 A 
ATOM      8  C   UNL d   1      60.810  48.288  51.550  0.00  0.00     0.052 A 
ATOM      9  F   UNL d   1      59.230  49.082  50.281  0.00  0.00    -0.203 F 
ATOM     10  C   UNL d   1      60.014  49.694  51.285  0.00  0.00     0.031 A 
ATOM     11  C   UNL d   1      60.607  49.658  51.858  0.00  0.00     0.003 A 
ATOM     12  C   UNL d   1      61.004  48.949  51.988  0.00  0.00     0.008 A 
ATOM     13  S   UNL d   1      61.107  47.515  51.557  0.00  0.00    -0.048 SA
ENDBRANCH   1   4
BRANCH   1  14
ATOM     14  C   UNL d   1      60.883  46.039  50.020  0.00  0.00     0.086 C 
BRANCH  14  15
ATOM     15  C   UNL d   1      61.630  45.980  49.674  0.00  0.00     0.037 A 
ATOM     16  C   UNL d   1      61.811  45.341  49.188  0.00  0.00     0.100 A 
ATOM     17  N   UNL d   1      62.558  45.282  48.843  0.00  0.00    -0.242 NA
ATOM     18  C   UNL d   1      63.124  45.862  48.983  0.00  0.00     0.099 A 
ATOM     19  C   UNL d   1      62.945  46.506  49.472  0.00  0.00     0.021 A 
ATOM     20  C   UNL d   1      62.199  46.565  49.817  0.00  0.00     0.005 A 
ENDBRANCH  14  15
ENDBRANCH   1  14
BRANCH   2  21
ATOM     21  C   UNL d   1      60.967  44.925  51.239  0.00  0.00     0.073 C 
BRANCH  21  22
ATOM     22  C   UNL d   1      61.102  44.380  51.849  0.00  0.00     0.104 C 
BRANCH  22  23
ATOM     23  S   UNL d   1      61.547  43.698  51.703  0.00  0.00     0.211 S 
ATOM     24  O   UNL d   1      61.297  43.703  50.903  0.00  0.00    -0.217 OA
ATOM     25  O   UNL d   1      61.797  43.692  52.497  0.00  0.00    -0.217 OA
BRANCH  23  26
ATOM     26  C   UNL d   1      61.993  43.014  51.553  0.00  0.00     0.088 A 
ATOM     27  C   UNL d   1      62.702  43.071  51.135  0.00  0.00     0.011 A 
ATOM     28  C   UNL d   1      63.148  42.395  50.984  0.00  0.00     0.001 A 
ATOM     29  C   UNL d   1      62.884  41.662  51.251  0.00  0.00     0.000 A 
ATOM     30  C   UNL d   1      62.184  41.602  51.665  0.00  0.00     0.001 A 
ATOM     31  C   UNL d   1      61.731  42.278  51.820  0.00  0.00     0.011 A 
ENDBRANCH  23  26
ENDBRANCH  22  23
ENDBRANCH  21  22
ENDBRANCH   2  21
TORSDOF 7
ENDMDL
