MODEL 1
REMARK VINA RESULT:      -2.2      0.000      0.000
REMARK  3 active torsions:
REMARK  status: ('A' for Active; 'I' for Inactive)
REMARK       I    between atoms: C_2  and  N_1 
REMARK    1  A    between atoms: C_4  and  N_1 
REMARK    2  A    between atoms: C_5  and  N_1 
REMARK    3  A    between atoms: C_6  and  C_2 
ROOT
ATOM      1  N   UNL d   1      29.860  16.374 -24.249  0.00  0.00    -0.274 N 
ATOM      2  C   UNL d   1      29.683  17.159 -24.491  0.00  0.00     0.276 C 
ATOM      3  O   UNL d   1      30.283  17.647 -24.744  0.00  0.00    -0.266 OA
ENDROOT
BRANCH   1   4
ATOM      4  C   UNL d   1      30.636  16.099 -24.266  0.00  0.00     0.067 A 
ATOM      5  C   UNL d   1      30.936  15.723 -24.937  0.00  0.00     0.018 A 
ATOM      6  C   UNL d   1      31.722  15.458 -24.921  0.00  0.00     0.002 A 
ATOM      7  C   UNL d   1      32.194  15.566 -24.253  0.00  0.00     0.000 A 
ATOM      8  C   UNL d   1      31.887  15.937 -23.598  0.00  0.00     0.002 A 
ATOM      9  C   UNL d   1      31.105  16.208 -23.597  0.00  0.00     0.018 A 
ENDBRANCH   1   4
BRANCH   1  10
ATOM     10  C   UNL d   1      29.245  15.895 -23.998  0.00  0.00     0.067 C 
ATOM     11  C   UNL d   1      28.815  15.453 -24.576  0.00  0.00     0.019 C 
ATOM     12  C   UNL d   1      29.027  15.827 -23.208  0.00  0.00     0.019 C 
ENDBRANCH   1  10
BRANCH   2  13
ATOM     13  C   UNL d   1      28.906  17.419 -24.469  0.00  0.00     0.129 C 
ATOM     14 CL   UNL d   1      28.739  18.188 -24.727  0.00  0.00    -0.076 Cl
ENDBRANCH   2  13
TORSDOF 3
ENDMDL
MODEL 2
REMARK VINA RESULT:      -2.2      1.536      1.883
REMARK  3 active torsions:
REMARK  status: ('A' for Active; 'I' for Inactive)
REMARK       I    between atoms: C_2  and  N_1 
REMARK    1  A    between atoms: C_4  and  N_1 
REMARK    2  A    between atoms: C_5  and  N_1 
REMARK    3  A    between atoms: C_6  and  C_2 
ROOT
ATOM      1  N   UNL d   1      30.924  16.681 -24.307  0.00  0.00    -0.274 N 
ATOM      2  C   UNL d   1      30.117  16.913 -24.323  0.00  0.00     0.276 C 
ATOM      3  O   UNL d   1      29.925  17.703 -24.351  0.00  0.00    -0.266 OA
ENDROOT
BRANCH   1   4
ATOM      4  C   UNL d   1      31.520  17.250 -24.320  0.00  0.00     0.067 A 
ATOM      5  C   UNL d   1      31.779  17.575 -25.032  0.00  0.00     0.018 A 
ATOM      6  C   UNL d   1      32.380  18.146 -25.009  0.00  0.00     0.002 A 
ATOM      7  C   UNL d   1      32.712  18.384 -24.293  0.00  0.00     0.000 A 
ATOM      8  C   UNL d   1      32.449  18.057 -23.597  0.00  0.00     0.002 A 
ATOM      9  C   UNL d   1      31.850  17.486 -23.602  0.00  0.00     0.018 A 
ENDBRANCH   1   4
BRANCH   1  10
ATOM     10  C   UNL d   1      31.101  15.882 -24.279  0.00  0.00     0.067 C 
ATOM     11  C   UNL d   1      31.202  15.465 -25.007  0.00  0.00     0.019 C 
ATOM     12  C   UNL d   1      31.183  15.468 -23.573  0.00  0.00     0.019 C 
ENDBRANCH   1  10
BRANCH   2  13
ATOM     13  C   UNL d   1      29.535  16.335 -24.310  0.00  0.00     0.129 C 
ATOM     14 CL   UNL d   1      28.742  16.573 -24.300  0.00  0.00    -0.076 Cl
ENDBRANCH   2  13
TORSDOF 3
ENDMDL
MODEL 3
REMARK VINA RESULT:      -2.2      1.133      2.344
REMARK  3 active torsions:
REMARK  status: ('A' for Active; 'I' for Inactive)
REMARK       I    between atoms: C_2  and  N_1 
REMARK    1  A    between atoms: C_4  and  N_1 
REMARK    2  A    between atoms: C_5  and  N_1 
REMARK    3  A    between atoms: C_6  and  C_2 
ROOT
ATOM      1  N   UNL d   1      30.748  16.298 -24.214  0.00  0.00    -0.274 N 
ATOM      2  C   UNL d   1      30.892  17.117 -24.333  0.00  0.00     0.276 C 
ATOM      3  O   UNL d   1      30.268  17.638 -24.346  0.00  0.00    -0.266 OA
ENDROOT
BRANCH   1   4
ATOM      4  C   UNL d   1      29.978  16.023 -24.111  0.00  0.00     0.067 A 
ATOM      5  C   UNL d   1      29.509  15.825 -24.761  0.00  0.00     0.018 A 
ATOM      6  C   UNL d   1      28.739  15.551 -24.622  0.00  0.00     0.002 A 
ATOM      7  C   UNL d   1      28.446  15.477 -23.854  0.00  0.00     0.000 A 
ATOM      8  C   UNL d   1      28.917  15.675 -23.221  0.00  0.00     0.002 A 
ATOM      9  C   UNL d   1      29.689  15.950 -23.342  0.00  0.00     0.018 A 
ENDBRANCH   1   4
BRANCH   1  10
ATOM     10  C   UNL d   1      31.387  15.787 -24.203  0.00  0.00     0.067 C 
ATOM     11  C   UNL d   1      31.649  15.453 -24.934  0.00  0.00     0.019 C 
ATOM     12  C   UNL d   1      31.784  15.584 -23.513  0.00  0.00     0.019 C 
ENDBRANCH   1  10
BRANCH   2  13
ATOM     13  C   UNL d   1      31.663  17.377 -24.434  0.00  0.00     0.129 C 
ATOM     14 CL   UNL d   1      31.797  18.187 -24.540  0.00  0.00    -0.076 Cl
ENDBRANCH   2  13
TORSDOF 3
ENDMDL
MODEL 4
REMARK VINA RESULT:      -2.0      2.560      3.348
REMARK  3 active torsions:
REMARK  status: ('A' for Active; 'I' for Inactive)
REMARK       I    between atoms: C_2  and  N_1 
REMARK    1  A    between atoms: C_4  and  N_1 
REMARK    2  A    between atoms: C_5  and  N_1 
REMARK    3  A    between atoms: C_6  and  C_2 
ROOT
ATOM      1  N   UNL d   1      32.564  17.847 -23.892  0.00  0.00    -0.274 N 
ATOM      2  C   UNL d   1      32.812  18.335 -23.255  0.00  0.00     0.276 C 
ATOM      3  O   UNL d   1      32.852  18.027 -22.503  0.00  0.00    -0.266 OA
ENDROOT
BRANCH   1   4
ATOM      4  C   UNL d   1      32.362  17.060 -23.758  0.00  0.00     0.067 A 
ATOM      5  C   UNL d   1      32.937  16.468 -23.768  0.00  0.00     0.018 A 
ATOM      6  C   UNL d   1      32.699  15.686 -23.629  0.00  0.00     0.002 A 
ATOM      7  C   UNL d   1      31.909  15.501 -23.483  0.00  0.00     0.000 A 
ATOM      8  C   UNL d   1      31.351  16.093 -23.475  0.00  0.00     0.002 A 
ATOM      9  C   UNL d   1      31.571  16.879 -23.612  0.00  0.00     0.018 A 
ENDBRANCH   1   4
BRANCH   1  10
ATOM     10  C   UNL d   1      32.529  18.173 -24.643  0.00  0.00     0.067 C 
ATOM     11  C   UNL d   1      33.241  18.217 -25.097  0.00  0.00     0.019 C 
ATOM     12  C   UNL d   1      31.833  18.458 -24.973  0.00  0.00     0.019 C 
ENDBRANCH   1  10
BRANCH   2  13
ATOM     13  C   UNL d   1      33.011  19.117 -23.403  0.00  0.00     0.129 C 
ATOM     14 CL   UNL d   1      33.202  19.606 -22.763  0.00  0.00    -0.076 Cl
ENDBRANCH   2  13
TORSDOF 3
ENDMDL
MODEL 5
REMARK VINA RESULT:      -2.0      1.888      3.121
REMARK  3 active torsions:
REMARK  status: ('A' for Active; 'I' for Inactive)
REMARK       I    between atoms: C_2  and  N_1 
REMARK    1  A    between atoms: C_4  and  N_1 
REMARK    2  A    between atoms: C_5  and  N_1 
REMARK    3  A    between atoms: C_6  and  C_2 
ROOT
ATOM      1  N   UNL d   1      31.475  16.827 -24.471  0.00  0.00    -0.274 N 
ATOM      2  C   UNL d   1      31.881  16.163 -24.789  0.00  0.00     0.276 C 
ATOM      3  O   UNL d   1      31.458  15.541 -25.097  0.00  0.00    -0.266 OA
ENDROOT
BRANCH   1   4
ATOM      4  C   UNL d   1      30.652  16.847 -24.471  0.00  0.00     0.067 A 
ATOM      5  C   UNL d   1      30.219  16.466 -23.880  0.00  0.00     0.018 A 
ATOM      6  C   UNL d   1      29.391  16.507 -23.909  0.00  0.00     0.002 A 
ATOM      7  C   UNL d   1      29.007  16.917 -24.513  0.00  0.00     0.000 A 
ATOM      8  C   UNL d   1      29.443  17.288 -25.090  0.00  0.00     0.002 A 
ATOM      9  C   UNL d   1      30.270  17.258 -25.076  0.00  0.00     0.018 A 
ENDBRANCH   1   4
BRANCH   1  10
ATOM     10  C   UNL d   1      31.916  17.445 -24.165  0.00  0.00     0.067 C 
ATOM     11  C   UNL d   1      32.160  17.405 -23.357  0.00  0.00     0.019 C 
ATOM     12  C   UNL d   1      32.130  18.102 -24.609  0.00  0.00     0.019 C 
ENDBRANCH   1  10
BRANCH   2  13
ATOM     13  C   UNL d   1      32.701  16.157 -24.782  0.00  0.00     0.129 C 
ATOM     14 CL   UNL d   1      33.094  15.499 -25.097  0.00  0.00    -0.076 Cl
ENDBRANCH   2  13
TORSDOF 3
ENDMDL
